MODEL        1
REMARK 921   NORMALIZED FREE ENERGY PREDICTED BY IDOCK:   -5.30 KCAL/MOL
REMARK 922        TOTAL FREE ENERGY PREDICTED BY IDOCK:  -10.97 KCAL/MOL
REMARK 923 INTER-LIGAND FREE ENERGY PREDICTED BY IDOCK:   -9.01 KCAL/MOL
REMARK 924 INTRA-LIGAND FREE ENERGY PREDICTED BY IDOCK:   -1.96 KCAL/MOL
REMARK 927      BINDING AFFINITY PREDICTED BY RF-SCORE:    0.00 PKD
ROOT
HETATM    1  C   UNL     1      -9.882   9.239  71.035  1.00  0.00    -0.355 C  
HETATM    2  C   UNL     1     -11.158   8.869  71.770  1.00  0.00    -0.433 C  
ENDROOT
BRANCH   2   3
HETATM    3  C   UNL     1     -12.265   9.879  71.490  1.00  0.00    -0.505 C  
BRANCH   3   4
HETATM    4  C   UNL     1     -11.807  10.936  70.487  1.00  0.00    -0.457 C  
BRANCH   4   5
HETATM    5  C   UNL     1     -12.593  12.222  70.706  1.00  0.00    -0.302 C  
BRANCH   5   6
HETATM    6  C   UNL     1     -13.234  12.304  72.059  1.00  0.00    -0.508 C  
HETATM    7  C   UNL     1     -13.909  13.390  72.470  1.00  0.00    -0.595 C  
BRANCH   7   8
HETATM    8  C   UNL     1     -14.077  14.634  71.651  1.00  0.00    -0.571 C  
BRANCH   8   9
HETATM    9  C   UNL     1     -13.332  15.794  72.237  1.00  0.00    -0.513 C  
HETATM   10  C   UNL     1     -12.100  16.176  71.868  1.00  0.00    -0.548 C  
BRANCH  10  11
HETATM   11  C   UNL     1     -11.237  15.447  70.882  1.00  0.00    -0.397 C  
BRANCH  11  12
HETATM   12  C   UNL     1     -11.570  15.829  69.467  1.00  0.00    -0.368 C  
HETATM   13  C   UNL     1     -11.104  15.203  68.375  1.00  0.00    -0.286 C  
BRANCH  13  14
HETATM   14  C   UNL     1     -10.169  14.036  68.461  1.00  0.00    -0.237 C  
BRANCH  14  15
HETATM   15  C   UNL     1     -10.137  13.179  67.203  1.00  0.00    -0.242 C  
BRANCH  15  16
HETATM   16  C   UNL     1     -11.507  12.529  67.004  1.00  0.00    -0.419 C  
BRANCH  16  17
HETATM   17  C   UNL     1     -11.717  12.101  65.559  1.00  0.00    -0.384 C  
HETATM   18  C   UNL     1     -12.636  13.048  64.826  1.00  0.00    -0.397 C  
HETATM   19  O   UNL     1     -13.163  14.040  65.306  1.00  0.00    -0.782 OA 
HETATM   20  O   UNL     1     -12.830  12.678  63.538  1.00  0.00    -0.712 OA 
ENDBRANCH  16  17
ENDBRANCH  15  16
ENDBRANCH  14  15
ENDBRANCH  13  14
ENDBRANCH  11  12
ENDBRANCH  10  11
ENDBRANCH   8   9
ENDBRANCH   7   8
ENDBRANCH   5   6
ENDBRANCH   4   5
ENDBRANCH   3   4
ENDBRANCH   2   3
TORSDOF 12
ENDMDL
MODEL        2
REMARK 921   NORMALIZED FREE ENERGY PREDICTED BY IDOCK:   -5.23 KCAL/MOL
REMARK 922        TOTAL FREE ENERGY PREDICTED BY IDOCK:  -10.85 KCAL/MOL
REMARK 923 INTER-LIGAND FREE ENERGY PREDICTED BY IDOCK:   -9.10 KCAL/MOL
REMARK 924 INTRA-LIGAND FREE ENERGY PREDICTED BY IDOCK:   -1.74 KCAL/MOL
REMARK 927      BINDING AFFINITY PREDICTED BY RF-SCORE:    0.00 PKD
ROOT
HETATM    1  C   UNL     1     -12.432  15.306  74.007  1.00  0.00    -0.757 C  
HETATM    2  C   UNL     1     -13.388  16.008  73.058  1.00  0.00    -0.589 C  
ENDROOT
BRANCH   2   3
HETATM    3  C   UNL     1     -13.794  15.091  71.910  1.00  0.00    -0.575 C  
BRANCH   3   4
HETATM    4  C   UNL     1     -12.600  14.768  71.013  1.00  0.00    -0.401 C  
BRANCH   4   5
HETATM    5  C   UNL     1     -12.400  13.260  70.954  1.00  0.00    -0.413 C  
BRANCH   5   6
HETATM    6  C   UNL     1     -13.195  12.513  71.983  1.00  0.00    -0.524 C  
HETATM    7  C   UNL     1     -13.378  11.185  71.925  1.00  0.00    -0.409 C  
BRANCH   7   8
HETATM    8  C   UNL     1     -12.841  10.310  70.833  1.00  0.00    -0.463 C  
BRANCH   8   9
HETATM    9  C   UNL     1     -11.612   9.570  71.262  1.00  0.00    -0.445 C  
HETATM   10  C   UNL     1     -10.580   9.271  70.458  1.00  0.00    -0.309 C  
BRANCH  10  11
HETATM   11  C   UNL     1     -10.536   9.544  68.985  1.00  0.00    -0.229 C  
BRANCH  11  12
HETATM   12  C   UNL     1      -9.694  10.749  68.671  1.00  0.00    -0.187 C  
HETATM   13  C   UNL     1     -10.135  11.846  68.036  1.00  0.00    -0.199 C  
BRANCH  13  14
HETATM   14  C   UNL     1     -11.547  11.976  67.551  1.00  0.00    -0.401 C  
BRANCH  14  15
HETATM   15  C   UNL     1     -11.869  13.340  66.955  1.00  0.00    -0.446 C  
BRANCH  15  16
HETATM   16  C   UNL     1     -11.311  13.411  65.533  1.00  0.00    -0.310 C  
BRANCH  16  17
HETATM   17  C   UNL     1     -10.761  14.795  65.219  1.00  0.00    -0.406 C  
HETATM   18  C   UNL     1     -11.696  15.576  64.327  1.00  0.00    -0.190 C  
HETATM   19  O   UNL     1     -12.765  15.174  63.893  1.00  0.00    -0.759 OA 
HETATM   20  O   UNL     1     -11.218  16.810  64.041  1.00  0.00    -1.089 OA 
ENDBRANCH  16  17
ENDBRANCH  15  16
ENDBRANCH  14  15
ENDBRANCH  13  14
ENDBRANCH  11  12
ENDBRANCH  10  11
ENDBRANCH   8   9
ENDBRANCH   7   8
ENDBRANCH   5   6
ENDBRANCH   4   5
ENDBRANCH   3   4
ENDBRANCH   2   3
TORSDOF 12
ENDMDL
MODEL        3
REMARK 921   NORMALIZED FREE ENERGY PREDICTED BY IDOCK:   -5.03 KCAL/MOL
REMARK 922        TOTAL FREE ENERGY PREDICTED BY IDOCK:  -10.51 KCAL/MOL
REMARK 923 INTER-LIGAND FREE ENERGY PREDICTED BY IDOCK:   -8.06 KCAL/MOL
REMARK 924 INTRA-LIGAND FREE ENERGY PREDICTED BY IDOCK:   -2.45 KCAL/MOL
REMARK 927      BINDING AFFINITY PREDICTED BY RF-SCORE:    0.00 PKD
ROOT
HETATM    1  C   UNL     1     -13.448  12.939  72.081  1.00  0.00    -0.619 C  
HETATM    2  C   UNL     1     -14.339  14.168  72.139  1.00  0.00    -0.606 C  
ENDROOT
BRANCH   2   3
HETATM    3  C   UNL     1     -13.542  15.437  71.862  1.00  0.00    -0.590 C  
BRANCH   3   4
HETATM    4  C   UNL     1     -12.057  15.232  72.154  1.00  0.00    -0.477 C  
BRANCH   4   5
HETATM    5  C   UNL     1     -11.238  15.625  70.932  1.00  0.00    -0.407 C  
BRANCH   5   6
HETATM    6  C   UNL     1     -12.017  15.570  69.651  1.00  0.00    -0.380 C  
HETATM    7  C   UNL     1     -11.858  14.583  68.755  1.00  0.00    -0.350 C  
BRANCH   7   8
HETATM    8  C   UNL     1     -10.886  13.453  68.914  1.00  0.00    -0.253 C  
BRANCH   8   9
HETATM    9  C   UNL     1     -11.560  12.118  68.829  1.00  0.00    -0.380 C  
HETATM   10  C   UNL     1     -11.581  11.342  67.735  1.00  0.00    -0.307 C  
BRANCH  10  11
HETATM   11  C   UNL     1     -11.018  11.727  66.401  1.00  0.00    -0.341 C  
BRANCH  11  12
HETATM   12  C   UNL     1     -12.016  12.495  65.580  1.00  0.00    -0.500 C  
HETATM   13  C   UNL     1     -11.782  13.686  65.008  1.00  0.00    -0.354 C  
BRANCH  13  14
HETATM   14  C   UNL     1     -10.470  14.396  65.147  1.00  0.00    -0.437 C  
BRANCH  14  15
HETATM   15  C   UNL     1     -10.601  15.856  65.559  1.00  0.00    -0.419 C  
BRANCH  15  16
HETATM   16  C   UNL     1      -9.257  16.349  66.096  1.00  0.00    -0.365 C  
BRANCH  16  17
HETATM   17  C   UNL     1      -9.365  16.793  67.547  1.00  0.00    -0.231 C  
HETATM   18  C   UNL     1      -9.893  18.203  67.660  1.00  0.00    -0.312 C  
HETATM   19  O   UNL     1     -10.200  18.924  66.722  1.00  0.00    -0.344 OA 
HETATM   20  O   UNL     1      -9.994  18.609  68.947  1.00  0.00    -0.389 OA 
ENDBRANCH  16  17
ENDBRANCH  15  16
ENDBRANCH  14  15
ENDBRANCH  13  14
ENDBRANCH  11  12
ENDBRANCH  10  11
ENDBRANCH   8   9
ENDBRANCH   7   8
ENDBRANCH   5   6
ENDBRANCH   4   5
ENDBRANCH   3   4
ENDBRANCH   2   3
TORSDOF 12
ENDMDL
MODEL        4
REMARK 921   NORMALIZED FREE ENERGY PREDICTED BY IDOCK:   -5.03 KCAL/MOL
REMARK 922        TOTAL FREE ENERGY PREDICTED BY IDOCK:  -10.51 KCAL/MOL
REMARK 923 INTER-LIGAND FREE ENERGY PREDICTED BY IDOCK:   -8.48 KCAL/MOL
REMARK 924 INTRA-LIGAND FREE ENERGY PREDICTED BY IDOCK:   -2.02 KCAL/MOL
REMARK 927      BINDING AFFINITY PREDICTED BY RF-SCORE:    0.00 PKD
ROOT
HETATM    1  C   UNL     1     -11.829  16.358  72.268  1.00  0.00    -0.531 C  
HETATM    2  C   UNL     1     -12.581  15.239  72.965  1.00  0.00    -0.539 C  
ENDROOT
BRANCH   2   3
HETATM    3  C   UNL     1     -13.768  14.771  72.131  1.00  0.00    -0.543 C  
BRANCH   3   4
HETATM    4  C   UNL     1     -14.002  13.271  72.297  1.00  0.00    -0.559 C  
BRANCH   4   5
HETATM    5  C   UNL     1     -12.920  12.501  71.552  1.00  0.00    -0.379 C  
BRANCH   5   6
HETATM    6  C   UNL     1     -13.083  11.012  71.637  1.00  0.00    -0.543 C  
HETATM    7  C   UNL     1     -12.283  10.163  70.973  1.00  0.00    -0.474 C  
BRANCH   7   8
HETATM    8  C   UNL     1     -11.169  10.593  70.066  1.00  0.00    -0.382 C  
BRANCH   8   9
HETATM    9  C   UNL     1     -11.646  10.831  68.667  1.00  0.00    -0.342 C  
HETATM   10  C   UNL     1     -11.449  11.963  67.975  1.00  0.00    -0.389 C  
BRANCH  10  11
HETATM   11  C   UNL     1     -10.805  13.200  68.523  1.00  0.00    -0.285 C  
BRANCH  11  12
HETATM   12  C   UNL     1     -11.811  14.294  68.747  1.00  0.00    -0.377 C  
HETATM   13  C   UNL     1     -11.552  15.607  68.639  1.00  0.00    -0.391 C  
BRANCH  13  14
HETATM   14  C   UNL     1     -10.191  16.126  68.286  1.00  0.00    -0.248 C  
BRANCH  14  15
HETATM   15  C   UNL     1     -10.121  16.783  66.913  1.00  0.00    -0.286 C  
BRANCH  15  16
HETATM   16  C   UNL     1      -9.946  15.701  65.848  1.00  0.00    -0.379 C  
BRANCH  16  17
HETATM   17  C   UNL     1     -11.151  15.631  64.921  1.00  0.00    -0.414 C  
HETATM   18  C   UNL     1     -11.399  14.223  64.435  1.00  0.00    -0.273 C  
HETATM   19  O   UNL     1     -10.732  13.242  64.730  1.00  0.00    -0.333 OA 
HETATM   20  O   UNL     1     -12.470  14.148  63.610  1.00  0.00    -0.819 OA 
ENDBRANCH  16  17
ENDBRANCH  15  16
ENDBRANCH  14  15
ENDBRANCH  13  14
ENDBRANCH  11  12
ENDBRANCH  10  11
ENDBRANCH   8   9
ENDBRANCH   7   8
ENDBRANCH   5   6
ENDBRANCH   4   5
ENDBRANCH   3   4
ENDBRANCH   2   3
TORSDOF 12
ENDMDL
MODEL        5
REMARK 921   NORMALIZED FREE ENERGY PREDICTED BY IDOCK:   -4.99 KCAL/MOL
REMARK 922        TOTAL FREE ENERGY PREDICTED BY IDOCK:  -10.45 KCAL/MOL
REMARK 923 INTER-LIGAND FREE ENERGY PREDICTED BY IDOCK:   -8.97 KCAL/MOL
REMARK 924 INTRA-LIGAND FREE ENERGY PREDICTED BY IDOCK:   -1.48 KCAL/MOL
REMARK 927      BINDING AFFINITY PREDICTED BY RF-SCORE:    0.00 PKD
ROOT
HETATM    1  C   UNL     1     -10.047   5.989  69.196  1.00  0.00    -0.229 C  
HETATM    2  C   UNL     1     -11.410   6.389  69.731  1.00  0.00    -0.494 C  
ENDROOT
BRANCH   2   3
HETATM    3  C   UNL     1     -11.314   7.634  70.604  1.00  0.00    -0.288 C  
BRANCH   3   4
HETATM    4  C   UNL     1     -10.778   8.825  69.811  1.00  0.00    -0.220 C  
BRANCH   4   5
HETATM    5  C   UNL     1     -11.314  10.118  70.409  1.00  0.00    -0.401 C  
BRANCH   5   6
HETATM    6  C   UNL     1     -12.448   9.907  71.367  1.00  0.00    -0.495 C  
HETATM    7  C   UNL     1     -13.211  10.917  71.812  1.00  0.00    -0.513 C  
BRANCH   7   8
HETATM    8  C   UNL     1     -13.010  12.353  71.431  1.00  0.00    -0.348 C  
BRANCH   8   9
HETATM    9  C   UNL     1     -13.470  13.287  72.507  1.00  0.00    -0.620 C  
HETATM   10  C   UNL     1     -13.604  14.614  72.360  1.00  0.00    -0.555 C  
BRANCH  10  11
HETATM   11  C   UNL     1     -13.225  15.382  71.131  1.00  0.00    -0.583 C  
BRANCH  11  12
HETATM   12  C   UNL     1     -11.750  15.668  71.090  1.00  0.00    -0.461 C  
HETATM   13  C   UNL     1     -10.957  15.450  70.029  1.00  0.00    -0.313 C  
BRANCH  13  14
HETATM   14  C   UNL     1     -11.476  14.871  68.749  1.00  0.00    -0.328 C  
BRANCH  14  15
HETATM   15  C   UNL     1     -11.240  13.373  68.612  1.00  0.00    -0.304 C  
BRANCH  15  16
HETATM   16  C   UNL     1     -11.823  12.893  67.283  1.00  0.00    -0.416 C  
BRANCH  16  17
HETATM   17  C   UNL     1     -11.872  14.016  66.257  1.00  0.00    -0.428 C  
HETATM   18  C   UNL     1     -12.536  13.571  64.976  1.00  0.00    -0.391 C  
HETATM   19  O   UNL     1     -12.986  12.456  64.759  1.00  0.00    -0.786 OA 
HETATM   20  O   UNL     1     -12.586  14.562  64.055  1.00  0.00    -0.797 OA 
ENDBRANCH  16  17
ENDBRANCH  15  16
ENDBRANCH  14  15
ENDBRANCH  13  14
ENDBRANCH  11  12
ENDBRANCH  10  11
ENDBRANCH   8   9
ENDBRANCH   7   8
ENDBRANCH   5   6
ENDBRANCH   4   5
ENDBRANCH   3   4
ENDBRANCH   2   3
TORSDOF 12
ENDMDL
MODEL        6
REMARK 921   NORMALIZED FREE ENERGY PREDICTED BY IDOCK:   -4.93 KCAL/MOL
REMARK 922        TOTAL FREE ENERGY PREDICTED BY IDOCK:  -10.34 KCAL/MOL
REMARK 923 INTER-LIGAND FREE ENERGY PREDICTED BY IDOCK:   -8.88 KCAL/MOL
REMARK 924 INTRA-LIGAND FREE ENERGY PREDICTED BY IDOCK:   -1.46 KCAL/MOL
REMARK 927      BINDING AFFINITY PREDICTED BY RF-SCORE:    0.00 PKD
ROOT
HETATM    1  C   UNL     1      -8.357  18.131  67.222  1.00  0.00    -0.244 C  
HETATM    2  C   UNL     1      -9.825  18.366  67.532  1.00  0.00    -0.327 C  
ENDROOT
BRANCH   2   3
HETATM    3  C   UNL     1     -10.219  17.716  68.853  1.00  0.00    -0.354 C  
BRANCH   3   4
HETATM    4  C   UNL     1     -10.462  16.217  68.680  1.00  0.00    -0.282 C  
BRANCH   4   5
HETATM    5  C   UNL     1     -11.653  15.793  69.527  1.00  0.00    -0.368 C  
BRANCH   5   6
HETATM    6  C   UNL     1     -11.471  16.069  70.990  1.00  0.00    -0.460 C  
HETATM    7  C   UNL     1     -12.354  15.657  71.914  1.00  0.00    -0.502 C  
BRANCH   7   8
HETATM    8  C   UNL     1     -13.614  14.909  71.598  1.00  0.00    -0.506 C  
BRANCH   8   9
HETATM    9  C   UNL     1     -13.573  13.503  72.113  1.00  0.00    -0.651 C  
HETATM   10  C   UNL     1     -12.881  12.502  71.548  1.00  0.00    -0.367 C  
BRANCH  10  11
HETATM   11  C   UNL     1     -12.118  12.608  70.263  1.00  0.00    -0.372 C  
BRANCH  11  12
HETATM   12  C   UNL     1     -12.118  11.306  69.511  1.00  0.00    -0.386 C  
HETATM   13  C   UNL     1     -11.483  11.094  68.347  1.00  0.00    -0.377 C  
BRANCH  13  14
HETATM   14  C   UNL     1     -10.700  12.168  67.657  1.00  0.00    -0.252 C  
BRANCH  14  15
HETATM   15  C   UNL     1     -11.531  13.019  66.705  1.00  0.00    -0.392 C  
BRANCH  15  16
HETATM   16  C   UNL     1     -10.729  13.273  65.429  1.00  0.00    -0.308 C  
BRANCH  16  17
HETATM   17  C   UNL     1     -10.428  14.754  65.244  1.00  0.00    -0.427 C  
HETATM   18  C   UNL     1     -11.534  15.457  64.495  1.00  0.00    -0.311 C  
HETATM   19  O   UNL     1     -12.553  14.931  64.073  1.00  0.00    -0.832 OA 
HETATM   20  O   UNL     1     -11.279  16.775  64.325  1.00  0.00    -1.163 OA 
ENDBRANCH  16  17
ENDBRANCH  15  16
ENDBRANCH  14  15
ENDBRANCH  13  14
ENDBRANCH  11  12
ENDBRANCH  10  11
ENDBRANCH   8   9
ENDBRANCH   7   8
ENDBRANCH   5   6
ENDBRANCH   4   5
ENDBRANCH   3   4
ENDBRANCH   2   3
TORSDOF 12
ENDMDL
MODEL        7
REMARK 921   NORMALIZED FREE ENERGY PREDICTED BY IDOCK:   -4.90 KCAL/MOL
REMARK 922        TOTAL FREE ENERGY PREDICTED BY IDOCK:  -10.30 KCAL/MOL
REMARK 923 INTER-LIGAND FREE ENERGY PREDICTED BY IDOCK:   -8.67 KCAL/MOL
REMARK 924 INTRA-LIGAND FREE ENERGY PREDICTED BY IDOCK:   -1.63 KCAL/MOL
REMARK 927      BINDING AFFINITY PREDICTED BY RF-SCORE:    0.00 PKD
ROOT
HETATM    1  C   UNL     1     -12.404  15.596  74.212  1.00  0.00    -0.813 C  
HETATM    2  C   UNL     1     -12.171  16.138  72.814  1.00  0.00    -0.628 C  
ENDROOT
BRANCH   2   3
HETATM    3  C   UNL     1     -13.120  15.494  71.809  1.00  0.00    -0.548 C  
BRANCH   3   4
HETATM    4  C   UNL     1     -13.636  14.150  72.321  1.00  0.00    -0.596 C  
BRANCH   4   5
HETATM    5  C   UNL     1     -12.916  13.019  71.600  1.00  0.00    -0.417 C  
BRANCH   5   6
HETATM    6  C   UNL     1     -12.064  13.489  70.458  1.00  0.00    -0.409 C  
HETATM    7  C   UNL     1     -11.574  12.648  69.533  1.00  0.00    -0.348 C  
BRANCH   7   8
HETATM    8  C   UNL     1     -11.795  11.165  69.545  1.00  0.00    -0.423 C  
BRANCH   8   9
HETATM    9  C   UNL     1     -10.512  10.407  69.400  1.00  0.00    -0.261 C  
HETATM   10  C   UNL     1     -10.088   9.833  68.264  1.00  0.00    -0.189 C  
BRANCH  10  11
HETATM   11  C   UNL     1     -10.873   9.778  66.988  1.00  0.00    -0.165 C  
BRANCH  11  12
HETATM   12  C   UNL     1     -10.209  10.568  65.896  1.00  0.00    -0.311 C  
HETATM   13  C   UNL     1     -10.699  11.699  65.362  1.00  0.00    -0.341 C  
BRANCH  13  14
HETATM   14  C   UNL     1     -12.000  12.294  65.807  1.00  0.00    -0.362 C  
BRANCH  14  15
HETATM   15  C   UNL     1     -12.077  13.804  65.632  1.00  0.00    -0.444 C  
BRANCH  15  16
HETATM   16  C   UNL     1     -10.672  14.353  65.380  1.00  0.00    -0.359 C  
BRANCH  16  17
HETATM   17  C   UNL     1     -10.462  15.689  66.077  1.00  0.00    -0.343 C  
HETATM   18  C   UNL     1     -10.822  16.848  65.178  1.00  0.00    -0.094 C  
HETATM   19  O   UNL     1     -11.230  16.757  64.030  1.00  0.00    -1.089 OA 
HETATM   20  O   UNL     1     -10.640  18.043  65.787  1.00  0.00    -0.528 OA 
ENDBRANCH  16  17
ENDBRANCH  15  16
ENDBRANCH  14  15
ENDBRANCH  13  14
ENDBRANCH  11  12
ENDBRANCH  10  11
ENDBRANCH   8   9
ENDBRANCH   7   8
ENDBRANCH   5   6
ENDBRANCH   4   5
ENDBRANCH   3   4
ENDBRANCH   2   3
TORSDOF 12
ENDMDL
MODEL        8
REMARK 921   NORMALIZED FREE ENERGY PREDICTED BY IDOCK:   -4.90 KCAL/MOL
REMARK 922        TOTAL FREE ENERGY PREDICTED BY IDOCK:  -10.29 KCAL/MOL
REMARK 923 INTER-LIGAND FREE ENERGY PREDICTED BY IDOCK:   -8.72 KCAL/MOL
REMARK 924 INTRA-LIGAND FREE ENERGY PREDICTED BY IDOCK:   -1.57 KCAL/MOL
REMARK 927      BINDING AFFINITY PREDICTED BY RF-SCORE:    0.00 PKD
ROOT
HETATM    1  C   UNL     1     -12.377  12.187  63.471  1.00  0.00    -0.682 C  
HETATM    2  C   UNL     1     -12.331  12.527  64.950  1.00  0.00    -0.539 C  
ENDROOT
BRANCH   2   3
HETATM    3  C   UNL     1     -12.528  14.021  65.176  1.00  0.00    -0.472 C  
BRANCH   3   4
HETATM    4  C   UNL     1     -11.473  14.578  66.130  1.00  0.00    -0.357 C  
BRANCH   4   5
HETATM    5  C   UNL     1     -11.683  13.995  67.520  1.00  0.00    -0.421 C  
BRANCH   5   6
HETATM    6  C   UNL     1     -10.457  14.052  68.382  1.00  0.00    -0.254 C  
HETATM    7  C   UNL     1     -10.319  14.942  69.378  1.00  0.00    -0.217 C  
BRANCH   7   8
HETATM    8  C   UNL     1     -11.344  15.980  69.725  1.00  0.00    -0.331 C  
BRANCH   8   9
HETATM    9  C   UNL     1     -11.424  16.216  71.201  1.00  0.00    -0.433 C  
HETATM   10  C   UNL     1     -12.413  15.774  71.993  1.00  0.00    -0.531 C  
BRANCH  10  11
HETATM   11  C   UNL     1     -13.640  15.060  71.513  1.00  0.00    -0.536 C  
BRANCH  11  12
HETATM   12  C   UNL     1     -13.942  13.853  72.356  1.00  0.00    -0.633 C  
HETATM   13  C   UNL     1     -13.471  12.618  72.122  1.00  0.00    -0.561 C  
BRANCH  13  14
HETATM   14  C   UNL     1     -12.583  12.309  70.956  1.00  0.00    -0.352 C  
BRANCH  14  15
HETATM   15  C   UNL     1     -12.704  10.876  70.453  1.00  0.00    -0.326 C  
BRANCH  15  16
HETATM   16  C   UNL     1     -13.174   9.980  71.599  1.00  0.00    -0.518 C  
BRANCH  16  17
HETATM   17  C   UNL     1     -12.246   8.789  71.793  1.00  0.00    -0.415 C  
HETATM   18  C   UNL     1     -12.992   7.480  71.695  1.00  0.00    -0.358 C  
HETATM   19  O   UNL     1     -14.191   7.360  71.491  1.00  0.00    -0.437 OA 
HETATM   20  O   UNL     1     -12.177   6.413  71.864  1.00  0.00    -0.346 OA 
ENDBRANCH  16  17
ENDBRANCH  15  16
ENDBRANCH  14  15
ENDBRANCH  13  14
ENDBRANCH  11  12
ENDBRANCH  10  11
ENDBRANCH   8   9
ENDBRANCH   7   8
ENDBRANCH   5   6
ENDBRANCH   4   5
ENDBRANCH   3   4
ENDBRANCH   2   3
TORSDOF 12
ENDMDL
MODEL        9
REMARK 921   NORMALIZED FREE ENERGY PREDICTED BY IDOCK:   -4.90 KCAL/MOL
REMARK 922        TOTAL FREE ENERGY PREDICTED BY IDOCK:  -10.29 KCAL/MOL
REMARK 923 INTER-LIGAND FREE ENERGY PREDICTED BY IDOCK:   -8.34 KCAL/MOL
REMARK 924 INTRA-LIGAND FREE ENERGY PREDICTED BY IDOCK:   -1.95 KCAL/MOL
REMARK 927      BINDING AFFINITY PREDICTED BY RF-SCORE:    0.00 PKD
ROOT
HETATM    1  C   UNL     1     -13.309  15.447  71.088  1.00  0.00    -0.580 C  
HETATM    2  C   UNL     1     -14.166  14.532  71.944  1.00  0.00    -0.622 C  
ENDROOT
BRANCH   2   3
HETATM    3  C   UNL     1     -13.519  13.162  72.102  1.00  0.00    -0.653 C  
BRANCH   3   4
HETATM    4  C   UNL     1     -12.499  12.902  70.994  1.00  0.00    -0.374 C  
BRANCH   4   5
HETATM    5  C   UNL     1     -12.387  11.404  70.746  1.00  0.00    -0.483 C  
BRANCH   5   6
HETATM    6  C   UNL     1     -13.126  10.576  71.754  1.00  0.00    -0.570 C  
HETATM    7  C   UNL     1     -12.873   9.271  71.938  1.00  0.00    -0.485 C  
BRANCH   7   8
HETATM    8  C   UNL     1     -11.858   8.494  71.154  1.00  0.00    -0.322 C  
BRANCH   8   9
HETATM    9  C   UNL     1     -10.483   8.628  71.732  1.00  0.00    -0.394 C  
HETATM   10  C   UNL     1      -9.406   9.050  71.052  1.00  0.00    -0.339 C  
BRANCH  10  11
HETATM   11  C   UNL     1      -9.387   9.362  69.587  1.00  0.00    -0.199 C  
BRANCH  11  12
HETATM   12  C   UNL     1      -8.947  10.776  69.328  1.00  0.00    -0.047 C  
HETATM   13  C   UNL     1      -9.364  11.533  68.301  1.00  0.00    -0.190 C  
BRANCH  13  14
HETATM   14  C   UNL     1     -10.327  11.023  67.273  1.00  0.00    -0.249 C  
BRANCH  14  15
HETATM   15  C   UNL     1     -11.654  11.770  67.249  1.00  0.00    -0.344 C  
BRANCH  15  16
HETATM   16  C   UNL     1     -11.383  13.269  67.116  1.00  0.00    -0.351 C  
BRANCH  16  17
HETATM   17  C   UNL     1     -12.359  13.928  66.152  1.00  0.00    -0.504 C  
HETATM   18  C   UNL     1     -11.795  14.004  64.753  1.00  0.00    -0.403 C  
HETATM   19  O   UNL     1     -10.694  13.599  64.408  1.00  0.00    -0.410 OA 
HETATM   20  O   UNL     1     -12.654  14.588  63.886  1.00  0.00    -0.827 OA 
ENDBRANCH  16  17
ENDBRANCH  15  16
ENDBRANCH  14  15
ENDBRANCH  13  14
ENDBRANCH  11  12
ENDBRANCH  10  11
ENDBRANCH   8   9
ENDBRANCH   7   8
ENDBRANCH   5   6
ENDBRANCH   4   5
ENDBRANCH   3   4
ENDBRANCH   2   3
TORSDOF 12
ENDMDL
MODEL       10
REMARK 921   NORMALIZED FREE ENERGY PREDICTED BY IDOCK:   -4.89 KCAL/MOL
REMARK 922        TOTAL FREE ENERGY PREDICTED BY IDOCK:  -10.28 KCAL/MOL
REMARK 923 INTER-LIGAND FREE ENERGY PREDICTED BY IDOCK:   -8.18 KCAL/MOL
REMARK 924 INTRA-LIGAND FREE ENERGY PREDICTED BY IDOCK:   -2.10 KCAL/MOL
REMARK 927      BINDING AFFINITY PREDICTED BY RF-SCORE:    0.00 PKD
ROOT
HETATM    1  C   UNL     1     -13.445  13.785  72.704  1.00  0.00    -0.638 C  
HETATM    2  C   UNL     1     -14.005  14.842  71.768  1.00  0.00    -0.568 C  
ENDROOT
BRANCH   2   3
HETATM    3  C   UNL     1     -13.032  15.143  70.634  1.00  0.00    -0.420 C  
BRANCH   3   4
HETATM    4  C   UNL     1     -11.588  15.153  71.134  1.00  0.00    -0.405 C  
BRANCH   4   5
HETATM    5  C   UNL     1     -10.641  15.308  69.952  1.00  0.00    -0.291 C  
BRANCH   5   6
HETATM    6  C   UNL     1     -10.910  16.533  69.129  1.00  0.00    -0.334 C  
HETATM    7  C   UNL     1     -10.775  16.546  67.794  1.00  0.00    -0.329 C  
BRANCH   7   8
HETATM    8  C   UNL     1     -10.324  15.368  66.984  1.00  0.00    -0.280 C  
BRANCH   8   9
HETATM    9  C   UNL     1     -10.604  15.553  65.524  1.00  0.00    -0.413 C  
HETATM   10  C   UNL     1     -11.597  14.948  64.855  1.00  0.00    -0.395 C  
BRANCH  10  11
HETATM   11  C   UNL     1     -12.521  13.921  65.436  1.00  0.00    -0.528 C  
BRANCH  11  12
HETATM   12  C   UNL     1     -11.886  12.558  65.464  1.00  0.00    -0.491 C  
HETATM   13  C   UNL     1     -11.608  11.866  66.580  1.00  0.00    -0.337 C  
BRANCH  13  14
HETATM   14  C   UNL     1     -11.899  12.404  67.948  1.00  0.00    -0.370 C  
BRANCH  14  15
HETATM   15  C   UNL     1     -11.063  11.767  69.050  1.00  0.00    -0.301 C  
BRANCH  15  16
HETATM   16  C   UNL     1     -11.981  11.353  70.200  1.00  0.00    -0.460 C  
BRANCH  16  17
HETATM   17  C   UNL     1     -11.504  10.067  70.860  1.00  0.00    -0.452 C  
HETATM   18  C   UNL     1     -12.502   9.556  71.871  1.00  0.00    -0.384 C  
HETATM   19  O   UNL     1     -13.567  10.088  72.149  1.00  0.00    -0.395 OA 
HETATM   20  O   UNL     1     -12.089   8.412  72.464  1.00  0.00    -0.393 OA 
ENDBRANCH  16  17
ENDBRANCH  15  16
ENDBRANCH  14  15
ENDBRANCH  13  14
ENDBRANCH  11  12
ENDBRANCH  10  11
ENDBRANCH   8   9
ENDBRANCH   7   8
ENDBRANCH   5   6
ENDBRANCH   4   5
ENDBRANCH   3   4
ENDBRANCH   2   3
TORSDOF 12
ENDMDL
MODEL       11
REMARK 921   NORMALIZED FREE ENERGY PREDICTED BY IDOCK:   -4.86 KCAL/MOL
REMARK 922        TOTAL FREE ENERGY PREDICTED BY IDOCK:  -10.22 KCAL/MOL
REMARK 923 INTER-LIGAND FREE ENERGY PREDICTED BY IDOCK:   -7.59 KCAL/MOL
REMARK 924 INTRA-LIGAND FREE ENERGY PREDICTED BY IDOCK:   -2.63 KCAL/MOL
REMARK 927      BINDING AFFINITY PREDICTED BY RF-SCORE:    0.00 PKD
ROOT
HETATM    1  C   UNL     1      -7.941  15.842  66.727  1.00  0.00    -0.273 C  
HETATM    2  C   UNL     1      -7.315  16.104  68.085  1.00  0.00    -0.137 C  
ENDROOT
BRANCH   2   3
HETATM    3  C   UNL     1      -6.223  17.163  67.992  1.00  0.00    -0.138 C  
BRANCH   3   4
HETATM    4  C   UNL     1      -6.233  18.076  69.217  1.00  0.00    -0.244 C  
BRANCH   4   5
HETATM    5  C   UNL     1      -7.263  19.180  69.022  1.00  0.00    -0.370 C  
BRANCH   5   6
HETATM    6  C   UNL     1      -6.806  20.264  68.091  1.00  0.00    -0.324 C  
HETATM    7  C   UNL     1      -7.356  20.451  66.881  1.00  0.00    -0.349 C  
BRANCH   7   8
HETATM    8  C   UNL     1      -8.454  19.601  66.316  1.00  0.00    -0.383 C  
BRANCH   8   9
HETATM    9  C   UNL     1      -9.809  20.112  66.696  1.00  0.00    -0.588 C  
HETATM   10  C   UNL     1     -10.798  19.356  67.196  1.00  0.00    -0.561 C  
BRANCH  10  11
HETATM   11  C   UNL     1     -10.737  17.868  67.365  1.00  0.00    -0.306 C  
BRANCH  11  12
HETATM   12  C   UNL     1     -10.511  17.483  68.800  1.00  0.00    -0.318 C  
HETATM   13  C   UNL     1     -10.935  16.339  69.361  1.00  0.00    -0.337 C  
BRANCH  13  14
HETATM   14  C   UNL     1     -11.708  15.311  68.594  1.00  0.00    -0.367 C  
BRANCH  14  15
HETATM   15  C   UNL     1     -10.974  13.988  68.427  1.00  0.00    -0.269 C  
BRANCH  15  16
HETATM   16  C   UNL     1     -11.327  13.386  67.066  1.00  0.00    -0.346 C  
BRANCH  16  17
HETATM   17  C   UNL     1     -11.446  14.460  65.995  1.00  0.00    -0.349 C  
HETATM   18  C   UNL     1     -12.522  14.127  64.990  1.00  0.00    -0.419 C  
HETATM   19  O   UNL     1     -13.223  13.126  65.005  1.00  0.00    -0.694 OA 
HETATM   20  O   UNL     1     -12.639  15.076  64.032  1.00  0.00    -0.817 OA 
ENDBRANCH  16  17
ENDBRANCH  15  16
ENDBRANCH  14  15
ENDBRANCH  13  14
ENDBRANCH  11  12
ENDBRANCH  10  11
ENDBRANCH   8   9
ENDBRANCH   7   8
ENDBRANCH   5   6
ENDBRANCH   4   5
ENDBRANCH   3   4
ENDBRANCH   2   3
TORSDOF 12
ENDMDL
MODEL       12
REMARK 921   NORMALIZED FREE ENERGY PREDICTED BY IDOCK:   -4.83 KCAL/MOL
REMARK 922        TOTAL FREE ENERGY PREDICTED BY IDOCK:  -10.17 KCAL/MOL
REMARK 923 INTER-LIGAND FREE ENERGY PREDICTED BY IDOCK:   -8.83 KCAL/MOL
REMARK 924 INTRA-LIGAND FREE ENERGY PREDICTED BY IDOCK:   -1.33 KCAL/MOL
REMARK 927      BINDING AFFINITY PREDICTED BY RF-SCORE:    0.00 PKD
ROOT
HETATM    1  C   UNL     1     -11.363   6.645  70.798  1.00  0.00    -0.389 C  
HETATM    2  C   UNL     1     -10.320   7.694  71.138  1.00  0.00    -0.212 C  
ENDROOT
BRANCH   2   3
HETATM    3  C   UNL     1     -10.973   8.975  71.643  1.00  0.00    -0.435 C  
BRANCH   3   4
HETATM    4  C   UNL     1     -12.381   8.706  72.172  1.00  0.00    -0.452 C  
BRANCH   4   5
HETATM    5  C   UNL     1     -13.212   9.978  72.079  1.00  0.00    -0.545 C  
BRANCH   5   6
HETATM    6  C   UNL     1     -12.643  10.994  71.133  1.00  0.00    -0.522 C  
HETATM    7  C   UNL     1     -12.834  12.312  71.294  1.00  0.00    -0.337 C  
BRANCH   7   8
HETATM    8  C   UNL     1     -13.644  12.915  72.403  1.00  0.00    -0.577 C  
BRANCH   8   9
HETATM    9  C   UNL     1     -14.272  14.211  71.997  1.00  0.00    -0.617 C  
HETATM   10  C   UNL     1     -13.604  15.360  71.813  1.00  0.00    -0.596 C  
BRANCH  10  11
HETATM   11  C   UNL     1     -12.141  15.551  72.078  1.00  0.00    -0.502 C  
BRANCH  11  12
HETATM   12  C   UNL     1     -11.502  16.432  71.042  1.00  0.00    -0.232 C  
HETATM   13  C   UNL     1     -10.937  15.993  69.906  1.00  0.00    -0.353 C  
BRANCH  13  14
HETATM   14  C   UNL     1     -10.873  14.538  69.556  1.00  0.00    -0.209 C  
BRANCH  14  15
HETATM   15  C   UNL     1     -11.824  14.132  68.438  1.00  0.00    -0.388 C  
BRANCH  15  16
HETATM   16  C   UNL     1     -11.377  14.794  67.134  1.00  0.00    -0.363 C  
BRANCH  16  17
HETATM   17  C   UNL     1     -12.168  14.271  65.943  1.00  0.00    -0.422 C  
HETATM   18  C   UNL     1     -11.794  14.988  64.668  1.00  0.00    -0.375 C  
HETATM   19  O   UNL     1     -10.967  15.882  64.573  1.00  0.00    -0.527 OA 
HETATM   20  O   UNL     1     -12.490  14.531  63.602  1.00  0.00    -0.782 OA 
ENDBRANCH  16  17
ENDBRANCH  15  16
ENDBRANCH  14  15
ENDBRANCH  13  14
ENDBRANCH  11  12
ENDBRANCH  10  11
ENDBRANCH   8   9
ENDBRANCH   7   8
ENDBRANCH   5   6
ENDBRANCH   4   5
ENDBRANCH   3   4
ENDBRANCH   2   3
TORSDOF 12
ENDMDL
MODEL       13
REMARK 921   NORMALIZED FREE ENERGY PREDICTED BY IDOCK:   -4.82 KCAL/MOL
REMARK 922        TOTAL FREE ENERGY PREDICTED BY IDOCK:  -10.16 KCAL/MOL
REMARK 923 INTER-LIGAND FREE ENERGY PREDICTED BY IDOCK:   -8.34 KCAL/MOL
REMARK 924 INTRA-LIGAND FREE ENERGY PREDICTED BY IDOCK:   -1.82 KCAL/MOL
REMARK 927      BINDING AFFINITY PREDICTED BY RF-SCORE:    0.00 PKD
ROOT
HETATM    1  C   UNL     1     -11.017  14.824  69.475  1.00  0.00    -0.287 C  
HETATM    2  C   UNL     1     -10.800  15.789  70.627  1.00  0.00    -0.281 C  
ENDROOT
BRANCH   2   3
HETATM    3  C   UNL     1     -12.106  16.070  71.361  1.00  0.00    -0.479 C  
BRANCH   3   4
HETATM    4  C   UNL     1     -11.929  15.937  72.873  1.00  0.00    -0.609 C  
BRANCH   4   5
HETATM    5  C   UNL     1     -12.729  14.744  73.377  1.00  0.00    -0.588 C  
BRANCH   5   6
HETATM    6  C   UNL     1     -13.847  14.346  72.459  1.00  0.00    -0.559 C  
HETATM    7  C   UNL     1     -13.888  13.148  71.854  1.00  0.00    -0.252 C  
BRANCH   7   8
HETATM    8  C   UNL     1     -12.830  12.096  72.000  1.00  0.00    -0.256 C  
BRANCH   8   9
HETATM    9  C   UNL     1     -13.392  10.715  71.867  1.00  0.00    -0.454 C  
HETATM   10  C   UNL     1     -12.658   9.604  71.701  1.00  0.00    -0.493 C  
BRANCH  10  11
HETATM   11  C   UNL     1     -11.170   9.579  71.528  1.00  0.00    -0.437 C  
BRANCH  11  12
HETATM   12  C   UNL     1     -10.776   8.971  70.212  1.00  0.00    -0.262 C  
HETATM   13  C   UNL     1     -10.652   9.650  69.061  1.00  0.00    -0.237 C  
BRANCH  13  14
HETATM   14  C   UNL     1     -10.915  11.122  68.969  1.00  0.00    -0.286 C  
BRANCH  14  15
HETATM   15  C   UNL     1     -11.861  11.509  67.840  1.00  0.00    -0.255 C  
BRANCH  15  16
HETATM   16  C   UNL     1     -11.102  12.356  66.818  1.00  0.00    -0.333 C  
BRANCH  16  17
HETATM   17  C   UNL     1     -11.468  11.969  65.392  1.00  0.00    -0.361 C  
HETATM   18  C   UNL     1     -12.520  12.886  64.819  1.00  0.00    -0.455 C  
HETATM   19  O   UNL     1     -13.036  13.828  65.402  1.00  0.00    -0.727 OA 
HETATM   20  O   UNL     1     -12.853  12.553  63.550  1.00  0.00    -0.731 OA 
ENDBRANCH  16  17
ENDBRANCH  15  16
ENDBRANCH  14  15
ENDBRANCH  13  14
ENDBRANCH  11  12
ENDBRANCH  10  11
ENDBRANCH   8   9
ENDBRANCH   7   8
ENDBRANCH   5   6
ENDBRANCH   4   5
ENDBRANCH   3   4
ENDBRANCH   2   3
TORSDOF 12
ENDMDL
MODEL       14
REMARK 921   NORMALIZED FREE ENERGY PREDICTED BY IDOCK:   -4.80 KCAL/MOL
REMARK 922        TOTAL FREE ENERGY PREDICTED BY IDOCK:  -10.13 KCAL/MOL
REMARK 923 INTER-LIGAND FREE ENERGY PREDICTED BY IDOCK:   -8.16 KCAL/MOL
REMARK 924 INTRA-LIGAND FREE ENERGY PREDICTED BY IDOCK:   -1.96 KCAL/MOL
REMARK 927      BINDING AFFINITY PREDICTED BY RF-SCORE:    0.00 PKD
ROOT
HETATM    1  C   UNL     1     -10.624   9.500  71.357  1.00  0.00    -0.307 C  
HETATM    2  C   UNL     1     -11.769   9.311  70.378  1.00  0.00    -0.157 C  
ENDROOT
BRANCH   2   3
HETATM    3  C   UNL     1     -13.087   9.790  70.975  1.00  0.00    -0.363 C  
BRANCH   3   4
HETATM    4  C   UNL     1     -12.859  10.901  71.998  1.00  0.00    -0.322 C  
BRANCH   4   5
HETATM    5  C   UNL     1     -13.119  12.253  71.349  1.00  0.00    -0.285 C  
BRANCH   5   6
HETATM    6  C   UNL     1     -13.718  13.259  72.287  1.00  0.00    -0.686 C  
HETATM    7  C   UNL     1     -13.165  14.463  72.499  1.00  0.00    -0.558 C  
BRANCH   7   8
HETATM    8  C   UNL     1     -11.893  14.929  71.855  1.00  0.00    -0.416 C  
BRANCH   8   9
HETATM    9  C   UNL     1     -12.155  15.767  70.642  1.00  0.00    -0.424 C  
HETATM   10  C   UNL     1     -11.804  15.430  69.391  1.00  0.00    -0.372 C  
BRANCH  10  11
HETATM   11  C   UNL     1     -11.013  14.212  69.022  1.00  0.00    -0.286 C  
BRANCH  11  12
HETATM   12  C   UNL     1     -11.886  13.148  68.417  1.00  0.00    -0.386 C  
HETATM   13  C   UNL     1     -11.436  12.011  67.864  1.00  0.00    -0.396 C  
BRANCH  13  14
HETATM   14  C   UNL     1      -9.976  11.686  67.782  1.00  0.00    -0.191 C  
BRANCH  14  15
HETATM   15  C   UNL     1      -9.333  12.077  66.458  1.00  0.00    -0.226 C  
BRANCH  15  16
HETATM   16  C   UNL     1     -10.365  11.938  65.338  1.00  0.00    -0.306 C  
BRANCH  16  17
HETATM   17  C   UNL     1     -10.659  13.279  64.681  1.00  0.00    -0.421 C  
HETATM   18  C   UNL     1     -12.143  13.498  64.504  1.00  0.00    -0.416 C  
HETATM   19  O   UNL     1     -13.021  12.714  64.834  1.00  0.00    -0.830 OA 
HETATM   20  O   UNL     1     -12.418  14.688  63.922  1.00  0.00    -0.813 OA 
ENDBRANCH  16  17
ENDBRANCH  15  16
ENDBRANCH  14  15
ENDBRANCH  13  14
ENDBRANCH  11  12
ENDBRANCH  10  11
ENDBRANCH   8   9
ENDBRANCH   7   8
ENDBRANCH   5   6
ENDBRANCH   4   5
ENDBRANCH   3   4
ENDBRANCH   2   3
TORSDOF 12
ENDMDL
MODEL       15
REMARK 921   NORMALIZED FREE ENERGY PREDICTED BY IDOCK:   -4.78 KCAL/MOL
REMARK 922        TOTAL FREE ENERGY PREDICTED BY IDOCK:  -10.09 KCAL/MOL
REMARK 923 INTER-LIGAND FREE ENERGY PREDICTED BY IDOCK:   -7.77 KCAL/MOL
REMARK 924 INTRA-LIGAND FREE ENERGY PREDICTED BY IDOCK:   -2.33 KCAL/MOL
REMARK 927      BINDING AFFINITY PREDICTED BY RF-SCORE:    0.00 PKD
ROOT
HETATM    1  C   UNL     1     -14.096  14.127  72.216  1.00  0.00    -0.630 C  
HETATM    2  C   UNL     1     -13.657  15.238  71.278  1.00  0.00    -0.584 C  
ENDROOT
BRANCH   2   3
HETATM    3  C   UNL     1     -12.321  15.828  71.713  1.00  0.00    -0.523 C  
BRANCH   3   4
HETATM    4  C   UNL     1     -11.202  15.429  70.752  1.00  0.00    -0.378 C  
BRANCH   4   5
HETATM    5  C   UNL     1     -11.805  14.960  69.435  1.00  0.00    -0.356 C  
BRANCH   5   6
HETATM    6  C   UNL     1     -11.108  15.517  68.229  1.00  0.00    -0.322 C  
HETATM    7  C   UNL     1     -11.338  15.057  66.990  1.00  0.00    -0.319 C  
BRANCH   7   8
HETATM    8  C   UNL     1     -12.281  13.936  66.671  1.00  0.00    -0.465 C  
BRANCH   8   9
HETATM    9  C   UNL     1     -12.650  13.910  65.220  1.00  0.00    -0.508 C  
HETATM   10  C   UNL     1     -11.912  13.344  64.254  1.00  0.00    -0.481 C  
BRANCH  10  11
HETATM   11  C   UNL     1     -10.559  12.733  64.459  1.00  0.00    -0.383 C  
BRANCH  11  12
HETATM   12  C   UNL     1     -10.660  11.319  64.960  1.00  0.00    -0.353 C  
HETATM   13  C   UNL     1     -10.126  10.873  66.108  1.00  0.00    -0.291 C  
BRANCH  13  14
HETATM   14  C   UNL     1      -9.342  11.764  67.023  1.00  0.00    -0.187 C  
BRANCH  14  15
HETATM   15  C   UNL     1      -9.908  11.846  68.434  1.00  0.00    -0.201 C  
BRANCH  15  16
HETATM   16  C   UNL     1     -11.095  10.891  68.556  1.00  0.00    -0.311 C  
BRANCH  16  17
HETATM   17  C   UNL     1     -12.060  11.335  69.645  1.00  0.00    -0.391 C  
HETATM   18  C   UNL     1     -12.009  10.417  70.843  1.00  0.00    -0.377 C  
HETATM   19  O   UNL     1     -11.295   9.431  70.952  1.00  0.00    -0.270 OA 
HETATM   20  O   UNL     1     -12.862  10.803  71.820  1.00  0.00    -0.435 OA 
ENDBRANCH  16  17
ENDBRANCH  15  16
ENDBRANCH  14  15
ENDBRANCH  13  14
ENDBRANCH  11  12
ENDBRANCH  10  11
ENDBRANCH   8   9
ENDBRANCH   7   8
ENDBRANCH   5   6
ENDBRANCH   4   5
ENDBRANCH   3   4
ENDBRANCH   2   3
TORSDOF 12
ENDMDL
MODEL       16
REMARK 921   NORMALIZED FREE ENERGY PREDICTED BY IDOCK:   -4.78 KCAL/MOL
REMARK 922        TOTAL FREE ENERGY PREDICTED BY IDOCK:  -10.09 KCAL/MOL
REMARK 923 INTER-LIGAND FREE ENERGY PREDICTED BY IDOCK:   -8.35 KCAL/MOL
REMARK 924 INTRA-LIGAND FREE ENERGY PREDICTED BY IDOCK:   -1.74 KCAL/MOL
REMARK 927      BINDING AFFINITY PREDICTED BY RF-SCORE:    0.00 PKD
ROOT
HETATM    1  C   UNL     1     -11.248   6.455  69.985  1.00  0.00    -0.475 C  
HETATM    2  C   UNL     1     -11.572   6.595  71.461  1.00  0.00    -0.357 C  
ENDROOT
BRANCH   2   3
HETATM    3  C   UNL     1     -12.884   7.342  71.668  1.00  0.00    -0.406 C  
BRANCH   3   4
HETATM    4  C   UNL     1     -12.665   8.638  72.446  1.00  0.00    -0.423 C  
BRANCH   4   5
HETATM    5  C   UNL     1     -13.647   9.696  71.962  1.00  0.00    -0.467 C  
BRANCH   5   6
HETATM    6  C   UNL     1     -13.058  11.075  71.908  1.00  0.00    -0.525 C  
HETATM    7  C   UNL     1     -12.286  11.487  70.890  1.00  0.00    -0.460 C  
BRANCH   7   8
HETATM    8  C   UNL     1     -11.906  10.628  69.722  1.00  0.00    -0.377 C  
BRANCH   8   9
HETATM    9  C   UNL     1     -10.470  10.209  69.779  1.00  0.00    -0.301 C  
HETATM   10  C   UNL     1      -9.811   9.604  68.780  1.00  0.00    -0.173 C  
BRANCH  10  11
HETATM   11  C   UNL     1     -10.430   9.166  67.487  1.00  0.00    -0.335 C  
BRANCH  11  12
HETATM   12  C   UNL     1      -9.893   9.951  66.323  1.00  0.00    -0.308 C  
HETATM   13  C   UNL     1     -10.337  11.160  65.946  1.00  0.00    -0.314 C  
BRANCH  13  14
HETATM   14  C   UNL     1     -11.452  11.861  66.660  1.00  0.00    -0.382 C  
BRANCH  14  15
HETATM   15  C   UNL     1     -11.124  13.295  67.056  1.00  0.00    -0.304 C  
BRANCH  15  16
HETATM   16  C   UNL     1     -10.220  13.915  65.990  1.00  0.00    -0.317 C  
BRANCH  16  17
HETATM   17  C   UNL     1     -11.030  14.641  64.925  1.00  0.00    -0.419 C  
HETATM   18  C   UNL     1     -10.814  16.134  64.982  1.00  0.00    -0.363 C  
HETATM   19  O   UNL     1     -10.088  16.717  65.774  1.00  0.00    -0.448 OA 
HETATM   20  O   UNL     1     -11.529  16.790  64.039  1.00  0.00    -1.198 OA 
ENDBRANCH  16  17
ENDBRANCH  15  16
ENDBRANCH  14  15
ENDBRANCH  13  14
ENDBRANCH  11  12
ENDBRANCH  10  11
ENDBRANCH   8   9
ENDBRANCH   7   8
ENDBRANCH   5   6
ENDBRANCH   4   5
ENDBRANCH   3   4
ENDBRANCH   2   3
TORSDOF 12
ENDMDL
MODEL       17
REMARK 921   NORMALIZED FREE ENERGY PREDICTED BY IDOCK:   -4.74 KCAL/MOL
REMARK 922        TOTAL FREE ENERGY PREDICTED BY IDOCK:  -10.03 KCAL/MOL
REMARK 923 INTER-LIGAND FREE ENERGY PREDICTED BY IDOCK:   -7.84 KCAL/MOL
REMARK 924 INTRA-LIGAND FREE ENERGY PREDICTED BY IDOCK:   -2.19 KCAL/MOL
REMARK 927      BINDING AFFINITY PREDICTED BY RF-SCORE:    0.00 PKD
ROOT
HETATM    1  C   UNL     1     -14.319   7.604  71.848  1.00  0.00    -0.536 C  
HETATM    2  C   UNL     1     -12.889   7.457  71.360  1.00  0.00    -0.408 C  
ENDROOT
BRANCH   2   3
HETATM    3  C   UNL     1     -11.895   7.836  72.451  1.00  0.00    -0.371 C  
BRANCH   3   4
HETATM    4  C   UNL     1     -10.601   8.386  71.853  1.00  0.00    -0.370 C  
BRANCH   4   5
HETATM    5  C   UNL     1     -10.806   8.669  70.371  1.00  0.00    -0.250 C  
BRANCH   5   6
HETATM    6  C   UNL     1     -10.367  10.044  69.961  1.00  0.00    -0.323 C  
HETATM    7  C   UNL     1     -11.215  11.082  69.904  1.00  0.00    -0.327 C  
BRANCH   7   8
HETATM    8  C   UNL     1     -12.679  10.989  70.213  1.00  0.00    -0.256 C  
BRANCH   8   9
HETATM    9  C   UNL     1     -12.962  11.231  71.663  1.00  0.00    -0.537 C  
HETATM   10  C   UNL     1     -13.352  12.406  72.180  1.00  0.00    -0.508 C  
BRANCH  10  11
HETATM   11  C   UNL     1     -13.475  13.683  71.405  1.00  0.00    -0.266 C  
BRANCH  11  12
HETATM   12  C   UNL     1     -12.187  14.457  71.407  1.00  0.00    -0.424 C  
HETATM   13  C   UNL     1     -11.542  14.873  70.306  1.00  0.00    -0.332 C  
BRANCH  13  14
HETATM   14  C   UNL     1     -12.049  14.586  68.926  1.00  0.00    -0.272 C  
BRANCH  14  15
HETATM   15  C   UNL     1     -11.252  15.270  67.824  1.00  0.00    -0.327 C  
BRANCH  15  16
HETATM   16  C   UNL     1     -10.752  14.215  66.837  1.00  0.00    -0.286 C  
BRANCH  16  17
HETATM   17  C   UNL     1     -11.607  14.176  65.579  1.00  0.00    -0.337 C  
HETATM   18  C   UNL     1     -12.251  12.825  65.385  1.00  0.00    -0.478 C  
HETATM   19  O   UNL     1     -12.119  11.861  66.126  1.00  0.00    -0.519 OA 
HETATM   20  O   UNL     1     -13.016  12.778  64.270  1.00  0.00    -0.708 OA 
ENDBRANCH  16  17
ENDBRANCH  15  16
ENDBRANCH  14  15
ENDBRANCH  13  14
ENDBRANCH  11  12
ENDBRANCH  10  11
ENDBRANCH   8   9
ENDBRANCH   7   8
ENDBRANCH   5   6
ENDBRANCH   4   5
ENDBRANCH   3   4
ENDBRANCH   2   3
TORSDOF 12
ENDMDL
MODEL       18
REMARK 921   NORMALIZED FREE ENERGY PREDICTED BY IDOCK:   -4.74 KCAL/MOL
REMARK 922        TOTAL FREE ENERGY PREDICTED BY IDOCK:  -10.03 KCAL/MOL
REMARK 923 INTER-LIGAND FREE ENERGY PREDICTED BY IDOCK:   -8.21 KCAL/MOL
REMARK 924 INTRA-LIGAND FREE ENERGY PREDICTED BY IDOCK:   -1.81 KCAL/MOL
REMARK 927      BINDING AFFINITY PREDICTED BY RF-SCORE:    0.00 PKD
ROOT
HETATM    1  C   UNL     1      -9.800  10.318  65.425  1.00  0.00    -0.362 C  
HETATM    2  C   UNL     1     -10.600  10.378  66.713  1.00  0.00    -0.270 C  
ENDROOT
BRANCH   2   3
HETATM    3  C   UNL     1     -10.568   9.040  67.443  1.00  0.00    -0.309 C  
BRANCH   3   4
HETATM    4  C   UNL     1      -9.852   9.161  68.787  1.00  0.00    -0.175 C  
BRANCH   4   5
HETATM    5  C   UNL     1     -10.529  10.234  69.630  1.00  0.00    -0.286 C  
BRANCH   5   6
HETATM    6  C   UNL     1     -11.347   9.677  70.757  1.00  0.00    -0.409 C  
HETATM    7  C   UNL     1     -12.303  10.392  71.372  1.00  0.00    -0.500 C  
BRANCH   7   8
HETATM    8  C   UNL     1     -12.643  11.811  71.029  1.00  0.00    -0.409 C  
BRANCH   8   9
HETATM    9  C   UNL     1     -13.449  12.469  72.106  1.00  0.00    -0.523 C  
HETATM   10  C   UNL     1     -13.322  13.752  72.478  1.00  0.00    -0.656 C  
BRANCH  10  11
HETATM   11  C   UNL     1     -12.293  14.701  71.945  1.00  0.00    -0.410 C  
BRANCH  11  12
HETATM   12  C   UNL     1     -12.790  15.431  70.728  1.00  0.00    -0.524 C  
HETATM   13  C   UNL     1     -12.193  15.412  69.526  1.00  0.00    -0.277 C  
BRANCH  13  14
HETATM   14  C   UNL     1     -10.927  14.652  69.275  1.00  0.00    -0.278 C  
BRANCH  14  15
HETATM   15  C   UNL     1     -10.986  13.746  68.052  1.00  0.00    -0.268 C  
BRANCH  15  16
HETATM   16  C   UNL     1     -11.994  14.317  67.053  1.00  0.00    -0.463 C  
BRANCH  16  17
HETATM   17  C   UNL     1     -12.220  13.368  65.885  1.00  0.00    -0.502 C  
HETATM   18  C   UNL     1     -12.214  14.099  64.565  1.00  0.00    -0.445 C  
HETATM   19  O   UNL     1     -12.054  15.303  64.420  1.00  0.00    -0.419 OA 
HETATM   20  O   UNL     1     -12.413  13.266  63.517  1.00  0.00    -0.728 OA 
ENDBRANCH  16  17
ENDBRANCH  15  16
ENDBRANCH  14  15
ENDBRANCH  13  14
ENDBRANCH  11  12
ENDBRANCH  10  11
ENDBRANCH   8   9
ENDBRANCH   7   8
ENDBRANCH   5   6
ENDBRANCH   4   5
ENDBRANCH   3   4
ENDBRANCH   2   3
TORSDOF 12
ENDMDL
MODEL       19
REMARK 921   NORMALIZED FREE ENERGY PREDICTED BY IDOCK:   -4.74 KCAL/MOL
REMARK 922        TOTAL FREE ENERGY PREDICTED BY IDOCK:  -10.01 KCAL/MOL
REMARK 923 INTER-LIGAND FREE ENERGY PREDICTED BY IDOCK:   -8.32 KCAL/MOL
REMARK 924 INTRA-LIGAND FREE ENERGY PREDICTED BY IDOCK:   -1.69 KCAL/MOL
REMARK 927      BINDING AFFINITY PREDICTED BY RF-SCORE:    0.00 PKD
ROOT
HETATM    1  C   UNL     1     -10.289  11.633  63.508  1.00  0.00    -0.488 C  
HETATM    2  C   UNL     1     -11.578  12.423  63.368  1.00  0.00    -0.541 C  
ENDROOT
BRANCH   2   3
HETATM    3  C   UNL     1     -12.315  12.512  64.699  1.00  0.00    -0.547 C  
BRANCH   3   4
HETATM    4  C   UNL     1     -12.161  13.898  65.324  1.00  0.00    -0.449 C  
BRANCH   4   5
HETATM    5  C   UNL     1     -11.954  13.760  66.826  1.00  0.00    -0.465 C  
BRANCH   5   6
HETATM    6  C   UNL     1     -11.467  12.402  67.237  1.00  0.00    -0.421 C  
HETATM    7  C   UNL     1     -11.677  11.905  68.466  1.00  0.00    -0.388 C  
BRANCH   7   8
HETATM    8  C   UNL     1     -12.387  12.644  69.561  1.00  0.00    -0.002 C  
BRANCH   8   9
HETATM    9  C   UNL     1     -12.434  11.852  70.831  1.00  0.00    -0.397 C  
HETATM   10  C   UNL     1     -13.071  12.236  71.948  1.00  0.00    -0.469 C  
BRANCH  10  11
HETATM   11  C   UNL     1     -13.753  13.557  72.132  1.00  0.00    -0.654 C  
BRANCH  11  12
HETATM   12  C   UNL     1     -12.923  14.498  72.960  1.00  0.00    -0.596 C  
HETATM   13  C   UNL     1     -12.239  15.546  72.474  1.00  0.00    -0.512 C  
BRANCH  13  14
HETATM   14  C   UNL     1     -12.225  15.883  71.014  1.00  0.00    -0.421 C  
BRANCH  14  15
HETATM   15  C   UNL     1     -10.839  15.835  70.386  1.00  0.00    -0.345 C  
BRANCH  15  16
HETATM   16  C   UNL     1     -10.874  16.555  69.037  1.00  0.00    -0.329 C  
BRANCH  16  17
HETATM   17  C   UNL     1      -9.699  17.510  68.884  1.00  0.00    -0.259 C  
HETATM   18  C   UNL     1     -10.063  18.710  68.043  1.00  0.00    -0.375 C  
HETATM   19  O   UNL     1     -11.154  18.915  67.533  1.00  0.00    -0.356 OA 
HETATM   20  O   UNL     1      -9.026  19.568  67.900  1.00  0.00    -0.308 OA 
ENDBRANCH  16  17
ENDBRANCH  15  16
ENDBRANCH  14  15
ENDBRANCH  13  14
ENDBRANCH  11  12
ENDBRANCH  10  11
ENDBRANCH   8   9
ENDBRANCH   7   8
ENDBRANCH   5   6
ENDBRANCH   4   5
ENDBRANCH   3   4
ENDBRANCH   2   3
TORSDOF 12
ENDMDL
MODEL       20
REMARK 921   NORMALIZED FREE ENERGY PREDICTED BY IDOCK:   -4.73 KCAL/MOL
REMARK 922        TOTAL FREE ENERGY PREDICTED BY IDOCK:  -10.00 KCAL/MOL
REMARK 923 INTER-LIGAND FREE ENERGY PREDICTED BY IDOCK:   -7.24 KCAL/MOL
REMARK 924 INTRA-LIGAND FREE ENERGY PREDICTED BY IDOCK:   -2.77 KCAL/MOL
REMARK 927      BINDING AFFINITY PREDICTED BY RF-SCORE:    0.00 PKD
ROOT
HETATM    1  C   UNL     1     -12.629  11.959  63.458  1.00  0.00    -0.579 C  
HETATM    2  C   UNL     1     -11.274  12.607  63.681  1.00  0.00    -0.525 C  
ENDROOT
BRANCH   2   3
HETATM    3  C   UNL     1     -11.381  13.787  64.639  1.00  0.00    -0.382 C  
BRANCH   3   4
HETATM    4  C   UNL     1     -12.576  13.630  65.577  1.00  0.00    -0.541 C  
BRANCH   4   5
HETATM    5  C   UNL     1     -12.156  13.973  67.000  1.00  0.00    -0.455 C  
BRANCH   5   6
HETATM    6  C   UNL     1     -10.986  14.910  67.066  1.00  0.00    -0.327 C  
HETATM    7  C   UNL     1      -9.789  14.532  67.539  1.00  0.00    -0.222 C  
BRANCH   7   8
HETATM    8  C   UNL     1      -9.489  13.162  68.071  1.00  0.00    -0.220 C  
BRANCH   8   9
HETATM    9  C   UNL     1      -8.915  12.267  67.017  1.00  0.00    -0.204 C  
HETATM   10  C   UNL     1      -9.485  11.131  66.586  1.00  0.00    -0.204 C  
BRANCH  10  11
HETATM   11  C   UNL     1     -10.734  10.530  67.156  1.00  0.00    -0.323 C  
BRANCH  11  12
HETATM   12  C   UNL     1     -10.482   9.158  67.715  1.00  0.00    -0.306 C  
HETATM   13  C   UNL     1     -10.310   8.881  69.017  1.00  0.00    -0.226 C  
BRANCH  13  14
HETATM   14  C   UNL     1     -10.339   9.946  70.071  1.00  0.00    -0.320 C  
BRANCH  14  15
HETATM   15  C   UNL     1     -11.476   9.789  71.072  1.00  0.00    -0.458 C  
BRANCH  15  16
HETATM   16  C   UNL     1     -12.568  10.811  70.755  1.00  0.00    -0.476 C  
BRANCH  16  17
HETATM   17  C   UNL     1     -11.976  12.146  70.327  1.00  0.00    -0.389 C  
HETATM   18  C   UNL     1     -12.503  13.284  71.168  1.00  0.00    -0.308 C  
HETATM   19  O   UNL     1     -13.307  13.178  72.082  1.00  0.00    -0.482 OA 
HETATM   20  O   UNL     1     -11.983  14.477  70.797  1.00  0.00    -0.292 OA 
ENDBRANCH  16  17
ENDBRANCH  15  16
ENDBRANCH  14  15
ENDBRANCH  13  14
ENDBRANCH  11  12
ENDBRANCH  10  11
ENDBRANCH   8   9
ENDBRANCH   7   8
ENDBRANCH   5   6
ENDBRANCH   4   5
ENDBRANCH   3   4
ENDBRANCH   2   3
TORSDOF 12
ENDMDL
MODEL       21
REMARK 921   NORMALIZED FREE ENERGY PREDICTED BY IDOCK:   -4.73 KCAL/MOL
REMARK 922        TOTAL FREE ENERGY PREDICTED BY IDOCK:  -10.00 KCAL/MOL
REMARK 923 INTER-LIGAND FREE ENERGY PREDICTED BY IDOCK:   -8.34 KCAL/MOL
REMARK 924 INTRA-LIGAND FREE ENERGY PREDICTED BY IDOCK:   -1.66 KCAL/MOL
REMARK 927      BINDING AFFINITY PREDICTED BY RF-SCORE:    0.00 PKD
ROOT
HETATM    1  C   UNL     1     -12.251  12.427  63.548  1.00  0.00    -0.661 C  
HETATM    2  C   UNL     1     -10.852  11.911  63.832  1.00  0.00    -0.456 C  
ENDROOT
BRANCH   2   3
HETATM    3  C   UNL     1     -10.703  11.499  65.292  1.00  0.00    -0.337 C  
BRANCH   3   4
HETATM    4  C   UNL     1     -11.469  12.447  66.213  1.00  0.00    -0.423 C  
BRANCH   4   5
HETATM    5  C   UNL     1     -11.657  11.793  67.575  1.00  0.00    -0.361 C  
BRANCH   5   6
HETATM    6  C   UNL     1     -11.171  10.375  67.626  1.00  0.00    -0.287 C  
HETATM    7  C   UNL     1     -10.803   9.782  68.773  1.00  0.00    -0.219 C  
BRANCH   7   8
HETATM    8  C   UNL     1     -10.809  10.462  70.109  1.00  0.00    -0.333 C  
BRANCH   8   9
HETATM    9  C   UNL     1     -11.997  10.068  70.931  1.00  0.00    -0.453 C  
HETATM   10  C   UNL     1     -12.891  10.929  71.443  1.00  0.00    -0.554 C  
BRANCH  10  11
HETATM   11  C   UNL     1     -12.789  12.421  71.356  1.00  0.00    -0.360 C  
BRANCH  11  12
HETATM   12  C   UNL     1     -13.744  13.097  72.300  1.00  0.00    -0.647 C  
HETATM   13  C   UNL     1     -14.065  14.399  72.263  1.00  0.00    -0.609 C  
BRANCH  13  14
HETATM   14  C   UNL     1     -13.477  15.339  71.255  1.00  0.00    -0.591 C  
BRANCH  14  15
HETATM   15  C   UNL     1     -12.163  15.970  71.697  1.00  0.00    -0.514 C  
BRANCH  15  16
HETATM   16  C   UNL     1     -11.053  15.543  70.737  1.00  0.00    -0.383 C  
BRANCH  16  17
HETATM   17  C   UNL     1     -11.573  15.395  69.314  1.00  0.00    -0.354 C  
HETATM   18  C   UNL     1     -10.537  15.810  68.297  1.00  0.00    -0.271 C  
HETATM   19  O   UNL     1      -9.415  16.222  68.553  1.00  0.00    -0.206 OA 
HETATM   20  O   UNL     1     -10.988  15.682  67.027  1.00  0.00    -0.322 OA 
ENDBRANCH  16  17
ENDBRANCH  15  16
ENDBRANCH  14  15
ENDBRANCH  13  14
ENDBRANCH  11  12
ENDBRANCH  10  11
ENDBRANCH   8   9
ENDBRANCH   7   8
ENDBRANCH   5   6
ENDBRANCH   4   5
ENDBRANCH   3   4
ENDBRANCH   2   3
TORSDOF 12
ENDMDL
MODEL       22
REMARK 921   NORMALIZED FREE ENERGY PREDICTED BY IDOCK:   -4.73 KCAL/MOL
REMARK 922        TOTAL FREE ENERGY PREDICTED BY IDOCK:  -10.00 KCAL/MOL
REMARK 923 INTER-LIGAND FREE ENERGY PREDICTED BY IDOCK:   -8.11 KCAL/MOL
REMARK 924 INTRA-LIGAND FREE ENERGY PREDICTED BY IDOCK:   -1.89 KCAL/MOL
REMARK 927      BINDING AFFINITY PREDICTED BY RF-SCORE:    0.00 PKD
ROOT
HETATM    1  C   UNL     1     -12.893  10.459  71.725  1.00  0.00    -0.561 C  
HETATM    2  C   UNL     1     -12.689  11.951  71.532  1.00  0.00    -0.379 C  
ENDROOT
BRANCH   2   3
HETATM    3  C   UNL     1     -13.791  12.750  72.217  1.00  0.00    -0.395 C  
BRANCH   3   4
HETATM    4  C   UNL     1     -13.238  14.028  72.846  1.00  0.00    -0.502 C  
BRANCH   4   5
HETATM    5  C   UNL     1     -13.493  15.205  71.915  1.00  0.00    -0.522 C  
BRANCH   5   6
HETATM    6  C   UNL     1     -12.275  16.044  71.668  1.00  0.00    -0.514 C  
HETATM    7  C   UNL     1     -11.527  15.919  70.560  1.00  0.00    -0.412 C  
BRANCH   7   8
HETATM    8  C   UNL     1     -11.802  14.926  69.470  1.00  0.00    -0.360 C  
BRANCH   8   9
HETATM    9  C   UNL     1     -10.542  14.320  68.935  1.00  0.00    -0.252 C  
HETATM   10  C   UNL     1     -10.487  13.212  68.181  1.00  0.00    -0.255 C  
BRANCH  10  11
HETATM   11  C   UNL     1     -11.665  12.352  67.836  1.00  0.00    -0.421 C  
BRANCH  11  12
HETATM   12  C   UNL     1     -11.278  10.904  67.721  1.00  0.00    -0.384 C  
HETATM   13  C   UNL     1     -10.561  10.381  66.714  1.00  0.00    -0.270 C  
BRANCH  13  14
HETATM   14  C   UNL     1     -10.072  11.211  65.566  1.00  0.00    -0.309 C  
BRANCH  14  15
HETATM   15  C   UNL     1     -10.937  11.101  64.317  1.00  0.00    -0.276 C  
BRANCH  15  16
HETATM   16  C   UNL     1     -10.906  12.434  63.567  1.00  0.00    -0.487 C  
BRANCH  16  17
HETATM   17  C   UNL     1     -10.430  13.567  64.464  1.00  0.00    -0.426 C  
HETATM   18  C   UNL     1     -11.557  14.507  64.820  1.00  0.00    -0.413 C  
HETATM   19  O   UNL     1     -12.716  14.399  64.447  1.00  0.00    -0.665 OA 
HETATM   20  O   UNL     1     -11.146  15.519  65.618  1.00  0.00    -0.308 OA 
ENDBRANCH  16  17
ENDBRANCH  15  16
ENDBRANCH  14  15
ENDBRANCH  13  14
ENDBRANCH  11  12
ENDBRANCH  10  11
ENDBRANCH   8   9
ENDBRANCH   7   8
ENDBRANCH   5   6
ENDBRANCH   4   5
ENDBRANCH   3   4
ENDBRANCH   2   3
TORSDOF 12
ENDMDL
MODEL       23
REMARK 921   NORMALIZED FREE ENERGY PREDICTED BY IDOCK:   -4.72 KCAL/MOL
REMARK 922        TOTAL FREE ENERGY PREDICTED BY IDOCK:   -9.99 KCAL/MOL
REMARK 923 INTER-LIGAND FREE ENERGY PREDICTED BY IDOCK:   -8.02 KCAL/MOL
REMARK 924 INTRA-LIGAND FREE ENERGY PREDICTED BY IDOCK:   -1.97 KCAL/MOL
REMARK 927      BINDING AFFINITY PREDICTED BY RF-SCORE:    0.00 PKD
ROOT
HETATM    1  C   UNL     1     -14.379  15.109  71.948  1.00  0.00    -0.693 C  
HETATM    2  C   UNL     1     -13.702  13.775  72.207  1.00  0.00    -0.673 C  
ENDROOT
BRANCH   2   3
HETATM    3  C   UNL     1     -12.432  13.633  71.377  1.00  0.00    -0.374 C  
BRANCH   3   4
HETATM    4  C   UNL     1     -12.097  14.936  70.653  1.00  0.00    -0.366 C  
BRANCH   4   5
HETATM    5  C   UNL     1     -11.882  14.655  69.172  1.00  0.00    -0.347 C  
BRANCH   5   6
HETATM    6  C   UNL     1     -11.291  13.303  68.901  1.00  0.00    -0.333 C  
HETATM    7  C   UNL     1     -11.428  12.682  67.720  1.00  0.00    -0.375 C  
BRANCH   7   8
HETATM    8  C   UNL     1     -12.196  13.243  66.560  1.00  0.00    -0.389 C  
BRANCH   8   9
HETATM    9  C   UNL     1     -11.407  13.189  65.289  1.00  0.00    -0.321 C  
HETATM   10  C   UNL     1     -10.697  14.211  64.786  1.00  0.00    -0.436 C  
BRANCH  10  11
HETATM   11  C   UNL     1     -10.659  15.593  65.365  1.00  0.00    -0.436 C  
BRANCH  11  12
HETATM   12  C   UNL     1      -9.454  15.792  66.242  1.00  0.00    -0.349 C  
HETATM   13  C   UNL     1      -9.377  16.679  67.247  1.00  0.00    -0.234 C  
BRANCH  13  14
HETATM   14  C   UNL     1     -10.511  17.594  67.595  1.00  0.00    -0.372 C  
BRANCH  14  15
HETATM   15  C   UNL     1     -10.531  18.883  66.785  1.00  0.00    -0.497 C  
BRANCH  15  16
HETATM   16  C   UNL     1      -9.958  20.018  67.633  1.00  0.00    -0.566 C  
BRANCH  16  17
HETATM   17  C   UNL     1      -8.584  20.446  67.137  1.00  0.00    -0.402 C  
HETATM   18  C   UNL     1      -7.484  19.938  68.037  1.00  0.00    -0.297 C  
HETATM   19  O   UNL     1      -7.644  19.267  69.046  1.00  0.00    -0.352 OA 
HETATM   20  O   UNL     1      -6.257  20.311  67.605  1.00  0.00    -0.206 OA 
ENDBRANCH  16  17
ENDBRANCH  15  16
ENDBRANCH  14  15
ENDBRANCH  13  14
ENDBRANCH  11  12
ENDBRANCH  10  11
ENDBRANCH   8   9
ENDBRANCH   7   8
ENDBRANCH   5   6
ENDBRANCH   4   5
ENDBRANCH   3   4
ENDBRANCH   2   3
TORSDOF 12
ENDMDL
MODEL       24
REMARK 921   NORMALIZED FREE ENERGY PREDICTED BY IDOCK:   -4.71 KCAL/MOL
REMARK 922        TOTAL FREE ENERGY PREDICTED BY IDOCK:   -9.97 KCAL/MOL
REMARK 923 INTER-LIGAND FREE ENERGY PREDICTED BY IDOCK:   -7.83 KCAL/MOL
REMARK 924 INTRA-LIGAND FREE ENERGY PREDICTED BY IDOCK:   -2.14 KCAL/MOL
REMARK 927      BINDING AFFINITY PREDICTED BY RF-SCORE:    0.00 PKD
ROOT
HETATM    1  C   UNL     1      -9.309  10.346  64.352  1.00  0.00    -0.321 C  
HETATM    2  C   UNL     1      -9.992  11.686  64.148  1.00  0.00    -0.311 C  
ENDROOT
BRANCH   2   3
HETATM    3  C   UNL     1     -11.312  11.521  63.404  1.00  0.00    -0.303 C  
BRANCH   3   4
HETATM    4  C   UNL     1     -12.117  12.820  63.412  1.00  0.00    -0.619 C  
BRANCH   4   5
HETATM    5  C   UNL     1     -12.891  12.932  64.719  1.00  0.00    -0.359 C  
BRANCH   5   6
HETATM    6  C   UNL     1     -12.467  14.096  65.564  1.00  0.00    -0.495 C  
HETATM    7  C   UNL     1     -11.925  13.941  66.782  1.00  0.00    -0.472 C  
BRANCH   7   8
HETATM    8  C   UNL     1     -11.704  12.613  67.440  1.00  0.00    -0.432 C  
BRANCH   8   9
HETATM    9  C   UNL     1     -10.302  12.464  67.945  1.00  0.00    -0.215 C  
HETATM   10  C   UNL     1      -9.789  11.333  68.451  1.00  0.00    -0.200 C  
BRANCH  10  11
HETATM   11  C   UNL     1     -10.561  10.070  68.681  1.00  0.00    -0.239 C  
BRANCH  11  12
HETATM   12  C   UNL     1     -10.533   9.659  70.127  1.00  0.00    -0.321 C  
HETATM   13  C   UNL     1     -11.437  10.032  71.046  1.00  0.00    -0.463 C  
BRANCH  13  14
HETATM   14  C   UNL     1     -12.589  10.931  70.716  1.00  0.00    -0.470 C  
BRANCH  14  15
HETATM   15  C   UNL     1     -13.382  11.387  71.933  1.00  0.00    -0.409 C  
BRANCH  15  16
HETATM   16  C   UNL     1     -13.384  12.915  71.987  1.00  0.00    -0.579 C  
BRANCH  16  17
HETATM   17  C   UNL     1     -12.558  13.514  70.858  1.00  0.00    -0.414 C  
HETATM   18  C   UNL     1     -12.729  15.012  70.777  1.00  0.00    -0.381 C  
HETATM   19  O   UNL     1     -13.437  15.687  71.510  1.00  0.00    -0.494 OA 
HETATM   20  O   UNL     1     -11.997  15.557  69.777  1.00  0.00    -0.333 OA 
ENDBRANCH  16  17
ENDBRANCH  15  16
ENDBRANCH  14  15
ENDBRANCH  13  14
ENDBRANCH  11  12
ENDBRANCH  10  11
ENDBRANCH   8   9
ENDBRANCH   7   8
ENDBRANCH   5   6
ENDBRANCH   4   5
ENDBRANCH   3   4
ENDBRANCH   2   3
TORSDOF 12
ENDMDL
MODEL       25
REMARK 921   NORMALIZED FREE ENERGY PREDICTED BY IDOCK:   -4.70 KCAL/MOL
REMARK 922        TOTAL FREE ENERGY PREDICTED BY IDOCK:   -9.96 KCAL/MOL
REMARK 923 INTER-LIGAND FREE ENERGY PREDICTED BY IDOCK:   -7.62 KCAL/MOL
REMARK 924 INTRA-LIGAND FREE ENERGY PREDICTED BY IDOCK:   -2.34 KCAL/MOL
REMARK 927      BINDING AFFINITY PREDICTED BY RF-SCORE:    0.00 PKD
ROOT
HETATM    1  C   UNL     1     -11.090   6.535  68.990  1.00  0.00    -0.375 C  
HETATM    2  C   UNL     1     -11.493   6.936  70.398  1.00  0.00    -0.387 C  
ENDROOT
BRANCH   2   3
HETATM    3  C   UNL     1     -10.366   7.686  71.100  1.00  0.00    -0.212 C  
BRANCH   3   4
HETATM    4  C   UNL     1     -10.890   8.939  71.800  1.00  0.00    -0.436 C  
BRANCH   4   5
HETATM    5  C   UNL     1     -12.161   9.414  71.110  1.00  0.00    -0.402 C  
BRANCH   5   6
HETATM    6  C   UNL     1     -12.162  10.884  70.809  1.00  0.00    -0.483 C  
HETATM    7  C   UNL     1     -11.836  11.370  69.602  1.00  0.00    -0.431 C  
BRANCH   7   8
HETATM    8  C   UNL     1     -11.416  10.521  68.439  1.00  0.00    -0.285 C  
BRANCH   8   9
HETATM    9  C   UNL     1      -9.944  10.247  68.449  1.00  0.00    -0.173 C  
HETATM   10  C   UNL     1      -9.285   9.581  67.489  1.00  0.00    -0.142 C  
BRANCH  10  11
HETATM   11  C   UNL     1      -9.929   8.923  66.306  1.00  0.00    -0.337 C  
BRANCH  11  12
HETATM   12  C   UNL     1      -9.248   9.304  65.022  1.00  0.00    -0.242 C  
HETATM   13  C   UNL     1      -9.602  10.341  64.246  1.00  0.00    -0.375 C  
BRANCH  13  14
HETATM   14  C   UNL     1     -10.753  11.237  64.585  1.00  0.00    -0.371 C  
BRANCH  14  15
HETATM   15  C   UNL     1     -10.348  12.504  65.327  1.00  0.00    -0.310 C  
BRANCH  15  16
HETATM   16  C   UNL     1     -11.603  13.308  65.669  1.00  0.00    -0.363 C  
BRANCH  16  17
HETATM   17  C   UNL     1     -11.849  14.416  64.656  1.00  0.00    -0.460 C  
HETATM   18  C   UNL     1     -11.124  15.686  65.033  1.00  0.00    -0.389 C  
HETATM   19  O   UNL     1     -10.422  15.836  66.022  1.00  0.00    -0.308 OA 
HETATM   20  O   UNL     1     -11.334  16.679  64.138  1.00  0.00    -1.141 OA 
ENDBRANCH  16  17
ENDBRANCH  15  16
ENDBRANCH  14  15
ENDBRANCH  13  14
ENDBRANCH  11  12
ENDBRANCH  10  11
ENDBRANCH   8   9
ENDBRANCH   7   8
ENDBRANCH   5   6
ENDBRANCH   4   5
ENDBRANCH   3   4
ENDBRANCH   2   3
TORSDOF 12
ENDMDL
MODEL       26
REMARK 921   NORMALIZED FREE ENERGY PREDICTED BY IDOCK:   -4.70 KCAL/MOL
REMARK 922        TOTAL FREE ENERGY PREDICTED BY IDOCK:   -9.95 KCAL/MOL
REMARK 923 INTER-LIGAND FREE ENERGY PREDICTED BY IDOCK:   -8.28 KCAL/MOL
REMARK 924 INTRA-LIGAND FREE ENERGY PREDICTED BY IDOCK:   -1.67 KCAL/MOL
REMARK 927      BINDING AFFINITY PREDICTED BY RF-SCORE:    0.00 PKD
ROOT
HETATM    1  C   UNL     1      -9.812  10.254  64.869  1.00  0.00    -0.404 C  
HETATM    2  C   UNL     1     -10.707  11.326  64.273  1.00  0.00    -0.416 C  
ENDROOT
BRANCH   2   3
HETATM    3  C   UNL     1     -10.669  12.600  65.109  1.00  0.00    -0.321 C  
BRANCH   3   4
HETATM    4  C   UNL     1     -12.045  12.916  65.694  1.00  0.00    -0.511 C  
BRANCH   4   5
HETATM    5  C   UNL     1     -11.952  12.972  67.213  1.00  0.00    -0.379 C  
BRANCH   5   6
HETATM    6  C   UNL     1     -11.671  11.639  67.841  1.00  0.00    -0.329 C  
HETATM    7  C   UNL     1     -11.791  11.427  69.161  1.00  0.00    -0.413 C  
BRANCH   7   8
HETATM    8  C   UNL     1     -12.189  12.482  70.149  1.00  0.00    -0.307 C  
BRANCH   8   9
HETATM    9  C   UNL     1     -12.787  11.892  71.388  1.00  0.00    -0.411 C  
HETATM   10  C   UNL     1     -13.519  12.573  72.282  1.00  0.00    -0.490 C  
BRANCH  10  11
HETATM   11  C   UNL     1     -13.774  14.049  72.233  1.00  0.00    -0.646 C  
BRANCH  11  12
HETATM   12  C   UNL     1     -12.695  14.820  72.941  1.00  0.00    -0.521 C  
HETATM   13  C   UNL     1     -11.901  15.734  72.361  1.00  0.00    -0.606 C  
BRANCH  13  14
HETATM   14  C   UNL     1     -12.005  16.075  70.906  1.00  0.00    -0.376 C  
BRANCH  14  15
HETATM   15  C   UNL     1     -10.746  15.760  70.109  1.00  0.00    -0.354 C  
BRANCH  15  16
HETATM   16  C   UNL     1     -10.646  16.725  68.927  1.00  0.00    -0.350 C  
BRANCH  16  17
HETATM   17  C   UNL     1     -10.490  15.979  67.610  1.00  0.00    -0.292 C  
HETATM   18  C   UNL     1     -10.491  16.923  66.432  1.00  0.00    -0.252 C  
HETATM   19  O   UNL     1     -10.604  18.139  66.496  1.00  0.00    -0.351 OA 
HETATM   20  O   UNL     1     -10.353  16.272  65.254  1.00  0.00    -0.552 OA 
ENDBRANCH  16  17
ENDBRANCH  15  16
ENDBRANCH  14  15
ENDBRANCH  13  14
ENDBRANCH  11  12
ENDBRANCH  10  11
ENDBRANCH   8   9
ENDBRANCH   7   8
ENDBRANCH   5   6
ENDBRANCH   4   5
ENDBRANCH   3   4
ENDBRANCH   2   3
TORSDOF 12
ENDMDL
MODEL       27
REMARK 921   NORMALIZED FREE ENERGY PREDICTED BY IDOCK:   -4.66 KCAL/MOL
REMARK 922        TOTAL FREE ENERGY PREDICTED BY IDOCK:   -9.88 KCAL/MOL
REMARK 923 INTER-LIGAND FREE ENERGY PREDICTED BY IDOCK:   -7.78 KCAL/MOL
REMARK 924 INTRA-LIGAND FREE ENERGY PREDICTED BY IDOCK:   -2.09 KCAL/MOL
REMARK 927      BINDING AFFINITY PREDICTED BY RF-SCORE:    0.00 PKD
ROOT
HETATM    1  C   UNL     1     -13.123  11.401  71.705  1.00  0.00    -0.523 C  
HETATM    2  C   UNL     1     -13.330  10.006  72.269  1.00  0.00    -0.387 C  
ENDROOT
BRANCH   2   3
HETATM    3  C   UNL     1     -13.885   9.062  71.209  1.00  0.00    -0.224 C  
BRANCH   3   4
HETATM    4  C   UNL     1     -13.803   7.607  71.669  1.00  0.00    -0.480 C  
BRANCH   4   5
HETATM    5  C   UNL     1     -12.535   6.969  71.118  1.00  0.00    -0.407 C  
BRANCH   5   6
HETATM    6  C   UNL     1     -11.850   6.064  72.099  1.00  0.00    -0.304 C  
HETATM    7  C   UNL     1     -10.881   6.497  72.920  1.00  0.00    -0.288 C  
BRANCH   7   8
HETATM    8  C   UNL     1     -10.361   7.904  72.938  1.00  0.00    -0.413 C  
BRANCH   8   9
HETATM    9  C   UNL     1      -9.112   8.049  72.126  1.00  0.00    -0.227 C  
HETATM   10  C   UNL     1      -8.983   8.853  71.060  1.00  0.00    -0.298 C  
BRANCH  10  11
HETATM   11  C   UNL     1     -10.092   9.659  70.457  1.00  0.00    -0.338 C  
BRANCH  11  12
HETATM   12  C   UNL     1     -10.258   9.364  68.992  1.00  0.00    -0.216 C  
HETATM   13  C   UNL     1     -10.960  10.119  68.133  1.00  0.00    -0.313 C  
BRANCH  13  14
HETATM   14  C   UNL     1     -11.680  11.360  68.564  1.00  0.00    -0.386 C  
BRANCH  14  15
HETATM   15  C   UNL     1     -11.431  12.561  67.660  1.00  0.00    -0.392 C  
BRANCH  15  16
HETATM   16  C   UNL     1     -11.479  12.109  66.201  1.00  0.00    -0.429 C  
BRANCH  16  17
HETATM   17  C   UNL     1     -12.258  13.091  65.338  1.00  0.00    -0.520 C  
HETATM   18  C   UNL     1     -12.015  12.855  63.867  1.00  0.00    -0.480 C  
HETATM   19  O   UNL     1     -11.286  11.993  63.397  1.00  0.00    -0.415 OA 
HETATM   20  O   UNL     1     -12.703  13.722  63.089  1.00  0.00    -0.743 OA 
ENDBRANCH  16  17
ENDBRANCH  15  16
ENDBRANCH  14  15
ENDBRANCH  13  14
ENDBRANCH  11  12
ENDBRANCH  10  11
ENDBRANCH   8   9
ENDBRANCH   7   8
ENDBRANCH   5   6
ENDBRANCH   4   5
ENDBRANCH   3   4
ENDBRANCH   2   3
TORSDOF 12
ENDMDL
MODEL       28
REMARK 921   NORMALIZED FREE ENERGY PREDICTED BY IDOCK:   -4.65 KCAL/MOL
REMARK 922        TOTAL FREE ENERGY PREDICTED BY IDOCK:   -9.86 KCAL/MOL
REMARK 923 INTER-LIGAND FREE ENERGY PREDICTED BY IDOCK:   -7.81 KCAL/MOL
REMARK 924 INTRA-LIGAND FREE ENERGY PREDICTED BY IDOCK:   -2.06 KCAL/MOL
REMARK 927      BINDING AFFINITY PREDICTED BY RF-SCORE:    0.00 PKD
ROOT
HETATM    1  C   UNL     1     -10.470   9.387  66.852  1.00  0.00    -0.281 C  
HETATM    2  C   UNL     1     -10.365   9.038  68.327  1.00  0.00    -0.252 C  
ENDROOT
BRANCH   2   3
HETATM    3  C   UNL     1      -9.289   9.871  69.013  1.00  0.00    -0.175 C  
BRANCH   3   4
HETATM    4  C   UNL     1      -9.033   9.378  70.436  1.00  0.00    -0.294 C  
BRANCH   4   5
HETATM    5  C   UNL     1      -9.804   8.087  70.674  1.00  0.00    -0.192 C  
BRANCH   5   6
HETATM    6  C   UNL     1     -10.165   7.865  72.113  1.00  0.00    -0.286 C  
HETATM    7  C   UNL     1     -11.428   7.950  72.560  1.00  0.00    -0.455 C  
BRANCH   7   8
HETATM    8  C   UNL     1     -12.603   8.295  71.695  1.00  0.00    -0.355 C  
BRANCH   8   9
HETATM    9  C   UNL     1     -13.377   9.455  72.239  1.00  0.00    -0.539 C  
HETATM   10  C   UNL     1     -13.285  10.714  71.785  1.00  0.00    -0.526 C  
BRANCH  10  11
HETATM   11  C   UNL     1     -12.328  11.177  70.729  1.00  0.00    -0.504 C  
BRANCH  11  12
HETATM   12  C   UNL     1     -12.131  12.666  70.774  1.00  0.00    -0.239 C  
HETATM   13  C   UNL     1     -11.919  13.444  69.701  1.00  0.00    -0.386 C  
BRANCH  13  14
HETATM   14  C   UNL     1     -11.842  12.885  68.313  1.00  0.00    -0.372 C  
BRANCH  14  15
HETATM   15  C   UNL     1     -11.835  13.948  67.222  1.00  0.00    -0.442 C  
BRANCH  15  16
HETATM   16  C   UNL     1     -10.992  13.455  66.046  1.00  0.00    -0.281 C  
BRANCH  16  17
HETATM   17  C   UNL     1     -11.696  12.343  65.282  1.00  0.00    -0.437 C  
HETATM   18  C   UNL     1     -12.417  12.873  64.066  1.00  0.00    -0.326 C  
HETATM   19  O   UNL     1     -12.451  14.043  63.714  1.00  0.00    -0.753 OA 
HETATM   20  O   UNL     1     -13.046  11.893  63.377  1.00  0.00    -0.710 OA 
ENDBRANCH  16  17
ENDBRANCH  15  16
ENDBRANCH  14  15
ENDBRANCH  13  14
ENDBRANCH  11  12
ENDBRANCH  10  11
ENDBRANCH   8   9
ENDBRANCH   7   8
ENDBRANCH   5   6
ENDBRANCH   4   5
ENDBRANCH   3   4
ENDBRANCH   2   3
TORSDOF 12
ENDMDL
MODEL       29
REMARK 921   NORMALIZED FREE ENERGY PREDICTED BY IDOCK:   -4.64 KCAL/MOL
REMARK 922        TOTAL FREE ENERGY PREDICTED BY IDOCK:   -9.86 KCAL/MOL
REMARK 923 INTER-LIGAND FREE ENERGY PREDICTED BY IDOCK:   -8.31 KCAL/MOL
REMARK 924 INTRA-LIGAND FREE ENERGY PREDICTED BY IDOCK:   -1.54 KCAL/MOL
REMARK 927      BINDING AFFINITY PREDICTED BY RF-SCORE:    0.00 PKD
ROOT
HETATM    1  C   UNL     1     -11.186   7.951  72.681  1.00  0.00    -0.459 C  
HETATM    2  C   UNL     1     -11.889   8.444  71.429  1.00  0.00    -0.339 C  
ENDROOT
BRANCH   2   3
HETATM    3  C   UNL     1     -11.647   9.933  71.213  1.00  0.00    -0.456 C  
BRANCH   3   4
HETATM    4  C   UNL     1     -12.913  10.633  70.723  1.00  0.00    -0.396 C  
BRANCH   4   5
HETATM    5  C   UNL     1     -12.763  12.138  70.896  1.00  0.00    -0.280 C  
BRANCH   5   6
HETATM    6  C   UNL     1     -13.415  12.663  72.141  1.00  0.00    -0.561 C  
HETATM    7  C   UNL     1     -13.719  13.961  72.301  1.00  0.00    -0.660 C  
BRANCH   7   8
HETATM    8  C   UNL     1     -13.425  15.024  71.285  1.00  0.00    -0.520 C  
BRANCH   8   9
HETATM    9  C   UNL     1     -12.057  15.605  71.463  1.00  0.00    -0.488 C  
HETATM   10  C   UNL     1     -11.081  15.557  70.543  1.00  0.00    -0.369 C  
BRANCH  10  11
HETATM   11  C   UNL     1     -11.173  14.834  69.234  1.00  0.00    -0.303 C  
BRANCH  11  12
HETATM   12  C   UNL     1      -9.853  14.232  68.840  1.00  0.00    -0.140 C  
HETATM   13  C   UNL     1      -9.706  13.174  68.026  1.00  0.00    -0.224 C  
BRANCH  13  14
HETATM   14  C   UNL     1     -10.878  12.461  67.423  1.00  0.00    -0.273 C  
BRANCH  14  15
HETATM   15  C   UNL     1     -11.091  12.768  65.947  1.00  0.00    -0.318 C  
BRANCH  15  16
HETATM   16  C   UNL     1     -12.355  13.613  65.788  1.00  0.00    -0.524 C  
BRANCH  16  17
HETATM   17  C   UNL     1     -12.249  14.556  64.598  1.00  0.00    -0.474 C  
HETATM   18  C   UNL     1     -11.491  15.813  64.950  1.00  0.00    -0.193 C  
HETATM   19  O   UNL     1     -11.014  16.072  66.045  1.00  0.00    -0.233 OA 
HETATM   20  O   UNL     1     -11.389  16.660  63.899  1.00  0.00    -1.104 OA 
ENDBRANCH  16  17
ENDBRANCH  15  16
ENDBRANCH  14  15
ENDBRANCH  13  14
ENDBRANCH  11  12
ENDBRANCH  10  11
ENDBRANCH   8   9
ENDBRANCH   7   8
ENDBRANCH   5   6
ENDBRANCH   4   5
ENDBRANCH   3   4
ENDBRANCH   2   3
TORSDOF 12
ENDMDL
MODEL       30
REMARK 921   NORMALIZED FREE ENERGY PREDICTED BY IDOCK:   -4.64 KCAL/MOL
REMARK 922        TOTAL FREE ENERGY PREDICTED BY IDOCK:   -9.86 KCAL/MOL
REMARK 923 INTER-LIGAND FREE ENERGY PREDICTED BY IDOCK:   -7.53 KCAL/MOL
REMARK 924 INTRA-LIGAND FREE ENERGY PREDICTED BY IDOCK:   -2.32 KCAL/MOL
REMARK 927      BINDING AFFINITY PREDICTED BY RF-SCORE:    0.00 PKD
ROOT
HETATM    1  C   UNL     1     -12.038   9.236  70.879  1.00  0.00    -0.297 C  
HETATM    2  C   UNL     1     -11.544  10.627  70.523  1.00  0.00    -0.444 C  
ENDROOT
BRANCH   2   3
HETATM    3  C   UNL     1     -11.742  10.918  69.040  1.00  0.00    -0.391 C  
BRANCH   3   4
HETATM    4  C   UNL     1     -10.575  11.728  68.476  1.00  0.00    -0.242 C  
BRANCH   4   5
HETATM    5  C   UNL     1     -10.878  12.123  67.037  1.00  0.00    -0.289 C  
BRANCH   5   6
HETATM    6  C   UNL     1     -12.138  12.924  66.892  1.00  0.00    -0.313 C  
HETATM    7  C   UNL     1     -12.294  13.851  65.934  1.00  0.00    -0.517 C  
BRANCH   7   8
HETATM    8  C   UNL     1     -11.239  14.208  64.931  1.00  0.00    -0.373 C  
BRANCH   8   9
HETATM    9  C   UNL     1     -10.852  15.652  65.016  1.00  0.00    -0.468 C  
HETATM   10  C   UNL     1      -9.837  16.128  65.754  1.00  0.00    -0.354 C  
BRANCH  10  11
HETATM   11  C   UNL     1      -8.994  15.307  66.682  1.00  0.00    -0.324 C  
BRANCH  11  12
HETATM   12  C   UNL     1      -8.583  16.092  67.896  1.00  0.00    -0.165 C  
HETATM   13  C   UNL     1      -9.124  15.952  69.117  1.00  0.00    -0.255 C  
BRANCH  13  14
HETATM   14  C   UNL     1     -10.232  14.983  69.394  1.00  0.00    -0.229 C  
BRANCH  14  15
HETATM   15  C   UNL     1     -11.597  15.638  69.554  1.00  0.00    -0.366 C  
BRANCH  15  16
HETATM   16  C   UNL     1     -12.528  14.684  70.303  1.00  0.00    -0.401 C  
BRANCH  16  17
HETATM   17  C   UNL     1     -13.436  15.434  71.267  1.00  0.00    -0.598 C  
HETATM   18  C   UNL     1     -12.785  15.617  72.617  1.00  0.00    -0.437 C  
HETATM   19  O   UNL     1     -11.671  15.222  72.928  1.00  0.00    -0.431 OA 
HETATM   20  O   UNL     1     -13.583  16.283  73.483  1.00  0.00    -0.642 OA 
ENDBRANCH  16  17
ENDBRANCH  15  16
ENDBRANCH  14  15
ENDBRANCH  13  14
ENDBRANCH  11  12
ENDBRANCH  10  11
ENDBRANCH   8   9
ENDBRANCH   7   8
ENDBRANCH   5   6
ENDBRANCH   4   5
ENDBRANCH   3   4
ENDBRANCH   2   3
TORSDOF 12
ENDMDL
MODEL       31
REMARK 921   NORMALIZED FREE ENERGY PREDICTED BY IDOCK:   -4.64 KCAL/MOL
REMARK 922        TOTAL FREE ENERGY PREDICTED BY IDOCK:   -9.85 KCAL/MOL
REMARK 923 INTER-LIGAND FREE ENERGY PREDICTED BY IDOCK:   -8.21 KCAL/MOL
REMARK 924 INTRA-LIGAND FREE ENERGY PREDICTED BY IDOCK:   -1.64 KCAL/MOL
REMARK 927      BINDING AFFINITY PREDICTED BY RF-SCORE:    0.00 PKD
ROOT
HETATM    1  C   UNL     1     -14.364   7.240  71.492  1.00  0.00    -0.558 C  
HETATM    2  C   UNL     1     -14.357   8.614  72.137  1.00  0.00    -0.518 C  
ENDROOT
BRANCH   2   3
HETATM    3  C   UNL     1     -12.967   9.237  72.087  1.00  0.00    -0.503 C  
BRANCH   3   4
HETATM    4  C   UNL     1     -13.028  10.687  71.611  1.00  0.00    -0.582 C  
BRANCH   4   5
HETATM    5  C   UNL     1     -12.304  10.817  70.279  1.00  0.00    -0.423 C  
BRANCH   5   6
HETATM    6  C   UNL     1     -11.026  10.034  70.216  1.00  0.00    -0.377 C  
HETATM    7  C   UNL     1     -10.363   9.832  69.067  1.00  0.00    -0.222 C  
BRANCH   7   8
HETATM    8  C   UNL     1     -10.823  10.334  67.731  1.00  0.00    -0.346 C  
BRANCH   8   9
HETATM    9  C   UNL     1     -10.386   9.437  66.615  1.00  0.00    -0.284 C  
HETATM   10  C   UNL     1      -9.873   9.861  65.450  1.00  0.00    -0.384 C  
BRANCH  10  11
HETATM   11  C   UNL     1      -9.746  11.298  65.043  1.00  0.00    -0.293 C  
BRANCH  11  12
HETATM   12  C   UNL     1     -10.296  11.533  63.665  1.00  0.00    -0.467 C  
HETATM   13  C   UNL     1     -11.437  12.187  63.397  1.00  0.00    -0.501 C  
BRANCH  13  14
HETATM   14  C   UNL     1     -12.308  12.751  64.478  1.00  0.00    -0.515 C  
BRANCH  14  15
HETATM   15  C   UNL     1     -12.231  14.266  64.602  1.00  0.00    -0.470 C  
BRANCH  15  16
HETATM   16  C   UNL     1     -11.348  14.629  65.796  1.00  0.00    -0.340 C  
BRANCH  16  17
HETATM   17  C   UNL     1     -11.803  13.919  67.062  1.00  0.00    -0.447 C  
HETATM   18  C   UNL     1     -11.729  14.826  68.266  1.00  0.00    -0.311 C  
HETATM   19  O   UNL     1     -11.352  15.989  68.258  1.00  0.00    -0.353 OA 
HETATM   20  O   UNL     1     -12.133  14.206  69.400  1.00  0.00    -0.316 OA 
ENDBRANCH  16  17
ENDBRANCH  15  16
ENDBRANCH  14  15
ENDBRANCH  13  14
ENDBRANCH  11  12
ENDBRANCH  10  11
ENDBRANCH   8   9
ENDBRANCH   7   8
ENDBRANCH   5   6
ENDBRANCH   4   5
ENDBRANCH   3   4
ENDBRANCH   2   3
TORSDOF 12
ENDMDL
MODEL       32
REMARK 921   NORMALIZED FREE ENERGY PREDICTED BY IDOCK:   -4.64 KCAL/MOL
REMARK 922        TOTAL FREE ENERGY PREDICTED BY IDOCK:   -9.84 KCAL/MOL
REMARK 923 INTER-LIGAND FREE ENERGY PREDICTED BY IDOCK:   -7.30 KCAL/MOL
REMARK 924 INTRA-LIGAND FREE ENERGY PREDICTED BY IDOCK:   -2.55 KCAL/MOL
REMARK 927      BINDING AFFINITY PREDICTED BY RF-SCORE:    0.00 PKD
ROOT
HETATM    1  C   UNL     1     -11.714  15.988  71.284  1.00  0.00    -0.516 C  
HETATM    2  C   UNL     1     -12.307  14.600  71.116  1.00  0.00    -0.403 C  
ENDROOT
BRANCH   2   3
HETATM    3  C   UNL     1     -12.269  14.160  69.657  1.00  0.00    -0.376 C  
BRANCH   3   4
HETATM    4  C   UNL     1     -11.085  14.785  68.922  1.00  0.00    -0.264 C  
BRANCH   4   5
HETATM    5  C   UNL     1     -11.341  14.751  67.422  1.00  0.00    -0.361 C  
BRANCH   5   6
HETATM    6  C   UNL     1     -12.249  13.635  66.997  1.00  0.00    -0.373 C  
HETATM    7  C   UNL     1     -12.085  12.975  65.840  1.00  0.00    -0.503 C  
BRANCH   7   8
HETATM    8  C   UNL     1     -11.010  13.285  64.842  1.00  0.00    -0.345 C  
BRANCH   8   9
HETATM    9  C   UNL     1     -11.098  12.405  63.634  1.00  0.00    -0.535 C  
HETATM   10  C   UNL     1     -10.362  11.300  63.439  1.00  0.00    -0.449 C  
BRANCH  10  11
HETATM   11  C   UNL     1      -9.271  10.826  64.350  1.00  0.00    -0.250 C  
BRANCH  11  12
HETATM   12  C   UNL     1      -9.760   9.763  65.293  1.00  0.00    -0.371 C  
HETATM   13  C   UNL     1      -9.790   9.880  66.630  1.00  0.00    -0.265 C  
BRANCH  13  14
HETATM   14  C   UNL     1      -9.311  11.112  67.335  1.00  0.00    -0.172 C  
BRANCH  14  15
HETATM   15  C   UNL     1      -9.898  11.290  68.729  1.00  0.00    -0.194 C  
BRANCH  15  16
HETATM   16  C   UNL     1     -10.977  10.231  68.958  1.00  0.00    -0.274 C  
BRANCH  16  17
HETATM   17  C   UNL     1     -12.135  10.783  69.776  1.00  0.00    -0.389 C  
HETATM   18  C   UNL     1     -12.117  10.259  71.192  1.00  0.00    -0.395 C  
HETATM   19  O   UNL     1     -11.290   9.485  71.652  1.00  0.00    -0.383 OA 
HETATM   20  O   UNL     1     -13.142  10.744  71.930  1.00  0.00    -0.481 OA 
ENDBRANCH  16  17
ENDBRANCH  15  16
ENDBRANCH  14  15
ENDBRANCH  13  14
ENDBRANCH  11  12
ENDBRANCH  10  11
ENDBRANCH   8   9
ENDBRANCH   7   8
ENDBRANCH   5   6
ENDBRANCH   4   5
ENDBRANCH   3   4
ENDBRANCH   2   3
TORSDOF 12
ENDMDL
MODEL       33
REMARK 921   NORMALIZED FREE ENERGY PREDICTED BY IDOCK:   -4.63 KCAL/MOL
REMARK 922        TOTAL FREE ENERGY PREDICTED BY IDOCK:   -9.83 KCAL/MOL
REMARK 923 INTER-LIGAND FREE ENERGY PREDICTED BY IDOCK:   -8.07 KCAL/MOL
REMARK 924 INTRA-LIGAND FREE ENERGY PREDICTED BY IDOCK:   -1.76 KCAL/MOL
REMARK 927      BINDING AFFINITY PREDICTED BY RF-SCORE:    0.00 PKD
ROOT
HETATM    1  C   UNL     1     -13.206  10.887  71.709  1.00  0.00    -0.513 C  
HETATM    2  C   UNL     1     -12.859  12.339  71.431  1.00  0.00    -0.373 C  
ENDROOT
BRANCH   2   3
HETATM    3  C   UNL     1     -13.776  13.280  72.204  1.00  0.00    -0.619 C  
BRANCH   3   4
HETATM    4  C   UNL     1     -12.998  14.468  72.768  1.00  0.00    -0.563 C  
BRANCH   4   5
HETATM    5  C   UNL     1     -12.971  15.593  71.742  1.00  0.00    -0.541 C  
BRANCH   5   6
HETATM    6  C   UNL     1     -11.584  15.998  71.340  1.00  0.00    -0.520 C  
HETATM    7  C   UNL     1     -11.154  15.928  70.070  1.00  0.00    -0.356 C  
BRANCH   7   8
HETATM    8  C   UNL     1     -11.984  15.422  68.929  1.00  0.00    -0.298 C  
BRANCH   8   9
HETATM    9  C   UNL     1     -11.602  14.030  68.533  1.00  0.00    -0.357 C  
HETATM   10  C   UNL     1     -11.101  13.685  67.337  1.00  0.00    -0.299 C  
BRANCH  10  11
HETATM   11  C   UNL     1     -10.935  14.620  66.178  1.00  0.00    -0.329 C  
BRANCH  11  12
HETATM   12  C   UNL     1      -9.563  15.235  66.155  1.00  0.00    -0.353 C  
HETATM   13  C   UNL     1      -9.314  16.553  66.212  1.00  0.00    -0.334 C  
BRANCH  13  14
HETATM   14  C   UNL     1     -10.410  17.571  66.291  1.00  0.00    -0.335 C  
BRANCH  14  15
HETATM   15  C   UNL     1     -10.421  18.362  67.593  1.00  0.00    -0.445 C  
BRANCH  15  16
HETATM   16  C   UNL     1     -10.218  19.845  67.280  1.00  0.00    -0.572 C  
BRANCH  16  17
HETATM   17  C   UNL     1      -9.254  20.044  66.120  1.00  0.00    -0.389 C  
HETATM   18  C   UNL     1      -7.818  20.055  66.587  1.00  0.00    -0.308 C  
HETATM   19  O   UNL     1      -7.445  19.927  67.744  1.00  0.00    -0.275 OA 
HETATM   20  O   UNL     1      -6.949  20.231  65.563  1.00  0.00    -0.291 OA 
ENDBRANCH  16  17
ENDBRANCH  15  16
ENDBRANCH  14  15
ENDBRANCH  13  14
ENDBRANCH  11  12
ENDBRANCH  10  11
ENDBRANCH   8   9
ENDBRANCH   7   8
ENDBRANCH   5   6
ENDBRANCH   4   5
ENDBRANCH   3   4
ENDBRANCH   2   3
TORSDOF 12
ENDMDL
MODEL       34
REMARK 921   NORMALIZED FREE ENERGY PREDICTED BY IDOCK:   -4.61 KCAL/MOL
REMARK 922        TOTAL FREE ENERGY PREDICTED BY IDOCK:   -9.80 KCAL/MOL
REMARK 923 INTER-LIGAND FREE ENERGY PREDICTED BY IDOCK:   -7.79 KCAL/MOL
REMARK 924 INTRA-LIGAND FREE ENERGY PREDICTED BY IDOCK:   -2.01 KCAL/MOL
REMARK 927      BINDING AFFINITY PREDICTED BY RF-SCORE:    0.00 PKD
ROOT
HETATM    1  C   UNL     1     -11.303   7.624  72.616  1.00  0.00    -0.423 C  
HETATM    2  C   UNL     1     -12.215   8.718  72.090  1.00  0.00    -0.448 C  
ENDROOT
BRANCH   2   3
HETATM    3  C   UNL     1     -11.488   9.604  71.085  1.00  0.00    -0.456 C  
BRANCH   3   4
HETATM    4  C   UNL     1     -12.463  10.529  70.358  1.00  0.00    -0.392 C  
BRANCH   4   5
HETATM    5  C   UNL     1     -12.326  11.944  70.903  1.00  0.00    -0.400 C  
BRANCH   5   6
HETATM    6  C   UNL     1     -13.246  12.231  72.052  1.00  0.00    -0.508 C  
HETATM    7  C   UNL     1     -13.851  13.419  72.209  1.00  0.00    -0.671 C  
BRANCH   7   8
HETATM    8  C   UNL     1     -13.664  14.585  71.287  1.00  0.00    -0.407 C  
BRANCH   8   9
HETATM    9  C   UNL     1     -12.939  15.714  71.952  1.00  0.00    -0.541 C  
HETATM   10  C   UNL     1     -11.706  16.128  71.624  1.00  0.00    -0.558 C  
BRANCH  10  11
HETATM   11  C   UNL     1     -10.823  15.469  70.609  1.00  0.00    -0.333 C  
BRANCH  11  12
HETATM   12  C   UNL     1     -10.912  16.151  69.272  1.00  0.00    -0.315 C  
HETATM   13  C   UNL     1     -11.404  15.589  68.157  1.00  0.00    -0.348 C  
BRANCH  13  14
HETATM   14  C   UNL     1     -11.913  14.180  68.130  1.00  0.00    -0.367 C  
BRANCH  14  15
HETATM   15  C   UNL     1     -11.977  13.576  66.734  1.00  0.00    -0.453 C  
BRANCH  15  16
HETATM   16  C   UNL     1     -10.651  12.879  66.428  1.00  0.00    -0.285 C  
BRANCH  16  17
HETATM   17  C   UNL     1     -10.825  11.371  66.320  1.00  0.00    -0.318 C  
HETATM   18  C   UNL     1     -10.090  10.645  67.420  1.00  0.00    -0.194 C  
HETATM   19  O   UNL     1      -9.426  11.174  68.300  1.00  0.00    -0.168 OA 
HETATM   20  O   UNL     1     -10.238   9.302  67.335  1.00  0.00    -0.209 OA 
ENDBRANCH  16  17
ENDBRANCH  15  16
ENDBRANCH  14  15
ENDBRANCH  13  14
ENDBRANCH  11  12
ENDBRANCH  10  11
ENDBRANCH   8   9
ENDBRANCH   7   8
ENDBRANCH   5   6
ENDBRANCH   4   5
ENDBRANCH   3   4
ENDBRANCH   2   3
TORSDOF 12
ENDMDL
MODEL       35
REMARK 921   NORMALIZED FREE ENERGY PREDICTED BY IDOCK:   -4.60 KCAL/MOL
REMARK 922        TOTAL FREE ENERGY PREDICTED BY IDOCK:   -9.79 KCAL/MOL
REMARK 923 INTER-LIGAND FREE ENERGY PREDICTED BY IDOCK:   -7.52 KCAL/MOL
REMARK 924 INTRA-LIGAND FREE ENERGY PREDICTED BY IDOCK:   -2.27 KCAL/MOL
REMARK 927      BINDING AFFINITY PREDICTED BY RF-SCORE:    0.00 PKD
ROOT
HETATM    1  C   UNL     1     -10.538  19.443  66.305  1.00  0.00    -0.569 C  
HETATM    2  C   UNL     1     -10.111  20.345  67.449  1.00  0.00    -0.500 C  
ENDROOT
BRANCH   2   3
HETATM    3  C   UNL     1      -9.654  19.527  68.651  1.00  0.00    -0.483 C  
BRANCH   3   4
HETATM    4  C   UNL     1     -10.157  18.087  68.563  1.00  0.00    -0.399 C  
BRANCH   4   5
HETATM    5  C   UNL     1      -8.978  17.129  68.665  1.00  0.00    -0.267 C  
BRANCH   5   6
HETATM    6  C   UNL     1      -7.998  17.268  67.539  1.00  0.00    -0.194 C  
HETATM    7  C   UNL     1      -8.056  16.503  66.437  1.00  0.00    -0.362 C  
BRANCH   7   8
HETATM    8  C   UNL     1      -9.072  15.423  66.217  1.00  0.00    -0.355 C  
BRANCH   8   9
HETATM    9  C   UNL     1     -10.265  15.922  65.462  1.00  0.00    -0.394 C  
HETATM   10  C   UNL     1     -11.135  15.141  64.804  1.00  0.00    -0.395 C  
BRANCH  10  11
HETATM   11  C   UNL     1     -10.998  13.658  64.640  1.00  0.00    -0.403 C  
BRANCH  11  12
HETATM   12  C   UNL     1     -12.080  12.918  65.375  1.00  0.00    -0.501 C  
HETATM   13  C   UNL     1     -11.953  12.401  66.608  1.00  0.00    -0.300 C  
BRANCH  13  14
HETATM   14  C   UNL     1     -10.678  12.501  67.389  1.00  0.00    -0.254 C  
BRANCH  14  15
HETATM   15  C   UNL     1     -10.885  12.812  68.865  1.00  0.00    -0.236 C  
BRANCH  15  16
HETATM   16  C   UNL     1     -11.692  14.104  68.998  1.00  0.00    -0.361 C  
BRANCH  16  17
HETATM   17  C   UNL     1     -11.198  14.953  70.161  1.00  0.00    -0.275 C  
HETATM   18  C   UNL     1     -12.326  15.715  70.812  1.00  0.00    -0.419 C  
HETATM   19  O   UNL     1     -13.499  15.678  70.470  1.00  0.00    -0.398 OA 
HETATM   20  O   UNL     1     -11.899  16.473  71.849  1.00  0.00    -0.454 OA 
ENDBRANCH  16  17
ENDBRANCH  15  16
ENDBRANCH  14  15
ENDBRANCH  13  14
ENDBRANCH  11  12
ENDBRANCH  10  11
ENDBRANCH   8   9
ENDBRANCH   7   8
ENDBRANCH   5   6
ENDBRANCH   4   5
ENDBRANCH   3   4
ENDBRANCH   2   3
TORSDOF 12
ENDMDL
MODEL       36
REMARK 921   NORMALIZED FREE ENERGY PREDICTED BY IDOCK:   -4.60 KCAL/MOL
REMARK 922        TOTAL FREE ENERGY PREDICTED BY IDOCK:   -9.78 KCAL/MOL
REMARK 923 INTER-LIGAND FREE ENERGY PREDICTED BY IDOCK:   -7.11 KCAL/MOL
REMARK 924 INTRA-LIGAND FREE ENERGY PREDICTED BY IDOCK:   -2.67 KCAL/MOL
REMARK 927      BINDING AFFINITY PREDICTED BY RF-SCORE:    0.00 PKD
ROOT
HETATM    1  C   UNL     1      -8.311  12.412  68.194  1.00  0.00    -0.178 C  
HETATM    2  C   UNL     1      -8.631  11.867  66.814  1.00  0.00    -0.181 C  
ENDROOT
BRANCH   2   3
HETATM    3  C   UNL     1      -9.368  10.536  66.905  1.00  0.00    -0.181 C  
BRANCH   3   4
HETATM    4  C   UNL     1     -10.147  10.247  65.623  1.00  0.00    -0.341 C  
BRANCH   4   5
HETATM    5  C   UNL     1      -9.968  11.402  64.647  1.00  0.00    -0.315 C  
BRANCH   5   6
HETATM    6  C   UNL     1     -10.970  11.398  63.530  1.00  0.00    -0.406 C  
HETATM    7  C   UNL     1     -12.072  12.164  63.550  1.00  0.00    -0.649 C  
BRANCH   7   8
HETATM    8  C   UNL     1     -12.440  13.077  64.681  1.00  0.00    -0.460 C  
BRANCH   8   9
HETATM    9  C   UNL     1     -12.260  14.518  64.317  1.00  0.00    -0.441 C  
HETATM   10  C   UNL     1     -11.298  15.315  64.806  1.00  0.00    -0.396 C  
BRANCH  10  11
HETATM   11  C   UNL     1     -10.313  14.918  65.863  1.00  0.00    -0.330 C  
BRANCH  11  12
HETATM   12  C   UNL     1     -10.592  15.610  67.168  1.00  0.00    -0.308 C  
HETATM   13  C   UNL     1     -11.272  15.069  68.191  1.00  0.00    -0.316 C  
BRANCH  13  14
HETATM   14  C   UNL     1     -11.848  13.688  68.127  1.00  0.00    -0.407 C  
BRANCH  14  15
HETATM   15  C   UNL     1     -11.822  12.948  69.458  1.00  0.00    -0.383 C  
BRANCH  15  16
HETATM   16  C   UNL     1     -11.978  11.449  69.202  1.00  0.00    -0.395 C  
BRANCH  16  17
HETATM   17  C   UNL     1     -12.392  10.708  70.465  1.00  0.00    -0.448 C  
HETATM   18  C   UNL     1     -11.307   9.773  70.943  1.00  0.00    -0.365 C  
HETATM   19  O   UNL     1     -10.223   9.609  70.403  1.00  0.00    -0.255 OA 
HETATM   20  O   UNL     1     -11.663   9.109  72.067  1.00  0.00    -0.357 OA 
ENDBRANCH  16  17
ENDBRANCH  15  16
ENDBRANCH  14  15
ENDBRANCH  13  14
ENDBRANCH  11  12
ENDBRANCH  10  11
ENDBRANCH   8   9
ENDBRANCH   7   8
ENDBRANCH   5   6
ENDBRANCH   4   5
ENDBRANCH   3   4
ENDBRANCH   2   3
TORSDOF 12
ENDMDL
MODEL       37
REMARK 921   NORMALIZED FREE ENERGY PREDICTED BY IDOCK:   -4.59 KCAL/MOL
REMARK 922        TOTAL FREE ENERGY PREDICTED BY IDOCK:   -9.77 KCAL/MOL
REMARK 923 INTER-LIGAND FREE ENERGY PREDICTED BY IDOCK:   -7.83 KCAL/MOL
REMARK 924 INTRA-LIGAND FREE ENERGY PREDICTED BY IDOCK:   -1.94 KCAL/MOL
REMARK 927      BINDING AFFINITY PREDICTED BY RF-SCORE:    0.00 PKD
ROOT
HETATM    1  C   UNL     1     -11.376   7.920  72.645  1.00  0.00    -0.468 C  
HETATM    2  C   UNL     1     -12.122   8.574  71.495  1.00  0.00    -0.351 C  
ENDROOT
BRANCH   2   3
HETATM    3  C   UNL     1     -11.544   9.947  71.175  1.00  0.00    -0.468 C  
BRANCH   3   4
HETATM    4  C   UNL     1     -12.549  10.804  70.407  1.00  0.00    -0.395 C  
BRANCH   4   5
HETATM    5  C   UNL     1     -11.928  11.264  69.095  1.00  0.00    -0.405 C  
BRANCH   5   6
HETATM    6  C   UNL     1     -10.471  10.930  68.976  1.00  0.00    -0.244 C  
HETATM    7  C   UNL     1      -9.891  10.653  67.797  1.00  0.00    -0.187 C  
BRANCH   7   8
HETATM    8  C   UNL     1     -10.621  10.622  66.488  1.00  0.00    -0.257 C  
BRANCH   8   9
HETATM    9  C   UNL     1      -9.735  11.004  65.344  1.00  0.00    -0.279 C  
HETATM   10  C   UNL     1     -10.167  11.508  64.178  1.00  0.00    -0.374 C  
BRANCH  10  11
HETATM   11  C   UNL     1     -11.607  11.680  63.800  1.00  0.00    -0.430 C  
BRANCH  11  12
HETATM   12  C   UNL     1     -11.920  13.107  63.449  1.00  0.00    -0.552 C  
HETATM   13  C   UNL     1     -12.370  14.028  64.315  1.00  0.00    -0.393 C  
BRANCH  13  14
HETATM   14  C   UNL     1     -12.625  13.712  65.757  1.00  0.00    -0.511 C  
BRANCH  14  15
HETATM   15  C   UNL     1     -11.507  14.155  66.691  1.00  0.00    -0.378 C  
BRANCH  15  16
HETATM   16  C   UNL     1     -10.525  15.035  65.917  1.00  0.00    -0.341 C  
BRANCH  16  17
HETATM   17  C   UNL     1     -10.284  16.359  66.627  1.00  0.00    -0.296 C  
HETATM   18  C   UNL     1     -10.723  17.532  65.784  1.00  0.00    -0.106 C  
HETATM   19  O   UNL     1     -11.213  17.459  64.666  1.00  0.00    -0.992 OA 
HETATM   20  O   UNL     1     -10.514  18.715  66.405  1.00  0.00    -0.403 OA 
ENDBRANCH  16  17
ENDBRANCH  15  16
ENDBRANCH  14  15
ENDBRANCH  13  14
ENDBRANCH  11  12
ENDBRANCH  10  11
ENDBRANCH   8   9
ENDBRANCH   7   8
ENDBRANCH   5   6
ENDBRANCH   4   5
ENDBRANCH   3   4
ENDBRANCH   2   3
TORSDOF 12
ENDMDL
MODEL       38
REMARK 921   NORMALIZED FREE ENERGY PREDICTED BY IDOCK:   -4.59 KCAL/MOL
REMARK 922        TOTAL FREE ENERGY PREDICTED BY IDOCK:   -9.77 KCAL/MOL
REMARK 923 INTER-LIGAND FREE ENERGY PREDICTED BY IDOCK:   -7.04 KCAL/MOL
REMARK 924 INTRA-LIGAND FREE ENERGY PREDICTED BY IDOCK:   -2.73 KCAL/MOL
REMARK 927      BINDING AFFINITY PREDICTED BY RF-SCORE:    0.00 PKD
ROOT
HETATM    1  C   UNL     1     -11.033  15.756  69.889  1.00  0.00    -0.335 C  
HETATM    2  C   UNL     1     -10.471  17.059  69.348  1.00  0.00    -0.250 C  
ENDROOT
BRANCH   2   3
HETATM    3  C   UNL     1     -10.771  17.211  67.862  1.00  0.00    -0.355 C  
BRANCH   3   4
HETATM    4  C   UNL     1     -10.822  18.684  67.457  1.00  0.00    -0.373 C  
BRANCH   4   5
HETATM    5  C   UNL     1      -9.614  19.016  66.593  1.00  0.00    -0.378 C  
BRANCH   5   6
HETATM    6  C   UNL     1      -8.825  20.188  67.097  1.00  0.00    -0.446 C  
HETATM    7  C   UNL     1      -7.783  20.047  67.932  1.00  0.00    -0.315 C  
BRANCH   7   8
HETATM    8  C   UNL     1      -7.309  18.730  68.469  1.00  0.00    -0.324 C  
BRANCH   8   9
HETATM    9  C   UNL     1      -6.189  18.164  67.653  1.00  0.00    -0.174 C  
HETATM   10  C   UNL     1      -6.277  17.059  66.898  1.00  0.00    -0.235 C  
BRANCH  10  11
HETATM   11  C   UNL     1      -7.477  16.164  66.826  1.00  0.00    -0.246 C  
BRANCH  11  12
HETATM   12  C   UNL     1      -7.355  14.998  67.767  1.00  0.00    -0.183 C  
HETATM   13  C   UNL     1      -8.188  13.945  67.794  1.00  0.00    -0.173 C  
BRANCH  13  14
HETATM   14  C   UNL     1      -9.362  13.832  66.871  1.00  0.00    -0.267 C  
BRANCH  14  15
HETATM   15  C   UNL     1     -10.408  12.823  67.328  1.00  0.00    -0.235 C  
BRANCH  15  16
HETATM   16  C   UNL     1     -11.802  13.378  67.036  1.00  0.00    -0.443 C  
BRANCH  16  17
HETATM   17  C   UNL     1     -11.797  14.284  65.812  1.00  0.00    -0.377 C  
HETATM   18  C   UNL     1     -12.519  13.650  64.648  1.00  0.00    -0.314 C  
HETATM   19  O   UNL     1     -13.048  12.548  64.655  1.00  0.00    -0.845 OA 
HETATM   20  O   UNL     1     -12.522  14.446  63.553  1.00  0.00    -0.770 OA 
ENDBRANCH  16  17
ENDBRANCH  15  16
ENDBRANCH  14  15
ENDBRANCH  13  14
ENDBRANCH  11  12
ENDBRANCH  10  11
ENDBRANCH   8   9
ENDBRANCH   7   8
ENDBRANCH   5   6
ENDBRANCH   4   5
ENDBRANCH   3   4
ENDBRANCH   2   3
TORSDOF 12
ENDMDL
MODEL       39
REMARK 921   NORMALIZED FREE ENERGY PREDICTED BY IDOCK:   -4.59 KCAL/MOL
REMARK 922        TOTAL FREE ENERGY PREDICTED BY IDOCK:   -9.76 KCAL/MOL
REMARK 923 INTER-LIGAND FREE ENERGY PREDICTED BY IDOCK:   -7.99 KCAL/MOL
REMARK 924 INTRA-LIGAND FREE ENERGY PREDICTED BY IDOCK:   -1.77 KCAL/MOL
REMARK 927      BINDING AFFINITY PREDICTED BY RF-SCORE:    0.00 PKD
ROOT
HETATM    1  C   UNL     1     -11.168   8.807  71.738  1.00  0.00    -0.410 C  
HETATM    2  C   UNL     1     -12.379   9.719  71.653  1.00  0.00    -0.495 C  
ENDROOT
BRANCH   2   3
HETATM    3  C   UNL     1     -12.191  10.784  70.579  1.00  0.00    -0.457 C  
BRANCH   3   4
HETATM    4  C   UNL     1     -10.924  10.529  69.765  1.00  0.00    -0.350 C  
BRANCH   4   5
HETATM    5  C   UNL     1     -11.272  10.472  68.284  1.00  0.00    -0.354 C  
BRANCH   5   6
HETATM    6  C   UNL     1     -10.636   9.318  67.567  1.00  0.00    -0.329 C  
HETATM    7  C   UNL     1      -9.942   9.474  66.428  1.00  0.00    -0.339 C  
BRANCH   7   8
HETATM    8  C   UNL     1      -9.745  10.790  65.738  1.00  0.00    -0.278 C  
BRANCH   8   9
HETATM    9  C   UNL     1     -10.305  10.782  64.349  1.00  0.00    -0.405 C  
HETATM   10  C   UNL     1     -10.874  11.839  63.750  1.00  0.00    -0.490 C  
BRANCH  10  11
HETATM   11  C   UNL     1     -11.126  13.162  64.406  1.00  0.00    -0.407 C  
BRANCH  11  12
HETATM   12  C   UNL     1     -12.442  13.177  65.133  1.00  0.00    -0.539 C  
HETATM   13  C   UNL     1     -12.652  13.761  66.324  1.00  0.00    -0.372 C  
BRANCH  13  14
HETATM   14  C   UNL     1     -11.561  14.463  67.073  1.00  0.00    -0.402 C  
BRANCH  14  15
HETATM   15  C   UNL     1     -11.517  14.123  68.557  1.00  0.00    -0.333 C  
BRANCH  15  16
HETATM   16  C   UNL     1     -12.016  15.323  69.362  1.00  0.00    -0.342 C  
BRANCH  16  17
HETATM   17  C   UNL     1     -12.922  14.891  70.505  1.00  0.00    -0.339 C  
HETATM   18  C   UNL     1     -12.632  15.665  71.769  1.00  0.00    -0.442 C  
HETATM   19  O   UNL     1     -11.781  16.534  71.890  1.00  0.00    -0.458 OA 
HETATM   20  O   UNL     1     -13.433  15.290  72.793  1.00  0.00    -0.446 OA 
ENDBRANCH  16  17
ENDBRANCH  15  16
ENDBRANCH  14  15
ENDBRANCH  13  14
ENDBRANCH  11  12
ENDBRANCH  10  11
ENDBRANCH   8   9
ENDBRANCH   7   8
ENDBRANCH   5   6
ENDBRANCH   4   5
ENDBRANCH   3   4
ENDBRANCH   2   3
TORSDOF 12
ENDMDL
MODEL       40
REMARK 921   NORMALIZED FREE ENERGY PREDICTED BY IDOCK:   -4.58 KCAL/MOL
REMARK 922        TOTAL FREE ENERGY PREDICTED BY IDOCK:   -9.75 KCAL/MOL
REMARK 923 INTER-LIGAND FREE ENERGY PREDICTED BY IDOCK:   -7.83 KCAL/MOL
REMARK 924 INTRA-LIGAND FREE ENERGY PREDICTED BY IDOCK:   -1.92 KCAL/MOL
REMARK 927      BINDING AFFINITY PREDICTED BY RF-SCORE:    0.00 PKD
ROOT
HETATM    1  C   UNL     1      -8.178  19.205  67.492  1.00  0.00    -0.310 C  
HETATM    2  C   UNL     1      -9.054  19.302  66.255  1.00  0.00    -0.354 C  
ENDROOT
BRANCH   2   3
HETATM    3  C   UNL     1     -10.438  18.719  66.514  1.00  0.00    -0.484 C  
BRANCH   3   4
HETATM    4  C   UNL     1     -10.453  17.879  67.790  1.00  0.00    -0.409 C  
BRANCH   4   5
HETATM    5  C   UNL     1     -10.750  16.427  67.441  1.00  0.00    -0.278 C  
BRANCH   5   6
HETATM    6  C   UNL     1      -9.622  15.744  66.725  1.00  0.00    -0.253 C  
HETATM    7  C   UNL     1      -9.771  15.191  65.512  1.00  0.00    -0.303 C  
BRANCH   7   8
HETATM    8  C   UNL     1     -11.064  15.167  64.752  1.00  0.00    -0.395 C  
BRANCH   8   9
HETATM    9  C   UNL     1     -11.500  13.771  64.433  1.00  0.00    -0.392 C  
HETATM   10  C   UNL     1     -12.071  12.930  65.308  1.00  0.00    -0.496 C  
BRANCH  10  11
HETATM   11  C   UNL     1     -12.276  13.219  66.764  1.00  0.00    -0.340 C  
BRANCH  11  12
HETATM   12  C   UNL     1     -11.673  12.149  67.631  1.00  0.00    -0.386 C  
HETATM   13  C   UNL     1     -11.179  12.349  68.863  1.00  0.00    -0.330 C  
BRANCH  13  14
HETATM   14  C   UNL     1     -11.167  13.701  69.509  1.00  0.00    -0.205 C  
BRANCH  14  15
HETATM   15  C   UNL     1     -12.483  14.075  70.177  1.00  0.00    -0.380 C  
BRANCH  15  16
HETATM   16  C   UNL     1     -12.535  15.590  70.372  1.00  0.00    -0.443 C  
BRANCH  16  17
HETATM   17  C   UNL     1     -11.870  16.008  71.675  1.00  0.00    -0.582 C  
HETATM   18  C   UNL     1     -12.844  15.987  72.829  1.00  0.00    -0.437 C  
HETATM   19  O   UNL     1     -14.025  15.680  72.755  1.00  0.00    -0.558 OA 
HETATM   20  O   UNL     1     -12.265  16.356  73.995  1.00  0.00    -0.498 OA 
ENDBRANCH  16  17
ENDBRANCH  15  16
ENDBRANCH  14  15
ENDBRANCH  13  14
ENDBRANCH  11  12
ENDBRANCH  10  11
ENDBRANCH   8   9
ENDBRANCH   7   8
ENDBRANCH   5   6
ENDBRANCH   4   5
ENDBRANCH   3   4
ENDBRANCH   2   3
TORSDOF 12
ENDMDL
MODEL       41
REMARK 921   NORMALIZED FREE ENERGY PREDICTED BY IDOCK:   -4.58 KCAL/MOL
REMARK 922        TOTAL FREE ENERGY PREDICTED BY IDOCK:   -9.74 KCAL/MOL
REMARK 923 INTER-LIGAND FREE ENERGY PREDICTED BY IDOCK:   -7.53 KCAL/MOL
REMARK 924 INTRA-LIGAND FREE ENERGY PREDICTED BY IDOCK:   -2.22 KCAL/MOL
REMARK 927      BINDING AFFINITY PREDICTED BY RF-SCORE:    0.00 PKD
ROOT
HETATM    1  C   UNL     1      -9.842  10.266  64.851  1.00  0.00    -0.404 C  
HETATM    2  C   UNL     1     -10.164  10.867  63.494  1.00  0.00    -0.379 C  
ENDROOT
BRANCH   2   3
HETATM    3  C   UNL     1     -10.807  12.241  63.640  1.00  0.00    -0.522 C  
BRANCH   3   4
HETATM    4  C   UNL     1     -12.286  12.121  64.007  1.00  0.00    -0.544 C  
BRANCH   4   5
HETATM    5  C   UNL     1     -12.595  13.037  65.183  1.00  0.00    -0.530 C  
BRANCH   5   6
HETATM    6  C   UNL     1     -11.368  13.542  65.883  1.00  0.00    -0.321 C  
HETATM    7  C   UNL     1     -10.937  13.022  67.043  1.00  0.00    -0.289 C  
BRANCH   7   8
HETATM    8  C   UNL     1     -11.630  11.912  67.775  1.00  0.00    -0.393 C  
BRANCH   8   9
HETATM    9  C   UNL     1     -10.847  11.452  68.965  1.00  0.00    -0.265 C  
HETATM   10  C   UNL     1     -11.388  11.015  70.113  1.00  0.00    -0.335 C  
BRANCH  10  11
HETATM   11  C   UNL     1     -12.854  11.007  70.420  1.00  0.00    -0.221 C  
BRANCH  11  12
HETATM   12  C   UNL     1     -13.127  11.452  71.830  1.00  0.00    -0.523 C  
HETATM   13  C   UNL     1     -13.362  12.720  72.201  1.00  0.00    -0.593 C  
BRANCH  13  14
HETATM   14  C   UNL     1     -13.362  13.853  71.220  1.00  0.00    -0.314 C  
BRANCH  14  15
HETATM   15  C   UNL     1     -12.123  14.735  71.298  1.00  0.00    -0.399 C  
BRANCH  15  16
HETATM   16  C   UNL     1     -11.793  15.261  69.901  1.00  0.00    -0.363 C  
BRANCH  16  17
HETATM   17  C   UNL     1     -10.294  15.447  69.715  1.00  0.00    -0.296 C  
HETATM   18  C   UNL     1      -9.988  16.526  68.704  1.00  0.00    -0.248 C  
HETATM   19  O   UNL     1     -10.818  17.181  68.092  1.00  0.00    -0.373 OA 
HETATM   20  O   UNL     1      -8.657  16.702  68.531  1.00  0.00    -0.214 OA 
ENDBRANCH  16  17
ENDBRANCH  15  16
ENDBRANCH  14  15
ENDBRANCH  13  14
ENDBRANCH  11  12
ENDBRANCH  10  11
ENDBRANCH   8   9
ENDBRANCH   7   8
ENDBRANCH   5   6
ENDBRANCH   4   5
ENDBRANCH   3   4
ENDBRANCH   2   3
TORSDOF 12
ENDMDL
MODEL       42
REMARK 921   NORMALIZED FREE ENERGY PREDICTED BY IDOCK:   -4.56 KCAL/MOL
REMARK 922        TOTAL FREE ENERGY PREDICTED BY IDOCK:   -9.72 KCAL/MOL
REMARK 923 INTER-LIGAND FREE ENERGY PREDICTED BY IDOCK:   -7.97 KCAL/MOL
REMARK 924 INTRA-LIGAND FREE ENERGY PREDICTED BY IDOCK:   -1.75 KCAL/MOL
REMARK 927      BINDING AFFINITY PREDICTED BY RF-SCORE:    0.00 PKD
ROOT
HETATM    1  C   UNL     1     -10.095  12.054  68.495  1.00  0.00    -0.201 C  
HETATM    2  C   UNL     1     -11.178  10.994  68.403  1.00  0.00    -0.337 C  
ENDROOT
BRANCH   2   3
HETATM    3  C   UNL     1     -10.853   9.799  69.291  1.00  0.00    -0.240 C  
BRANCH   3   4
HETATM    4  C   UNL     1     -11.389  10.002  70.708  1.00  0.00    -0.439 C  
BRANCH   4   5
HETATM    5  C   UNL     1     -12.737  10.706  70.647  1.00  0.00    -0.445 C  
BRANCH   5   6
HETATM    6  C   UNL     1     -13.153  11.311  71.955  1.00  0.00    -0.510 C  
HETATM    7  C   UNL     1     -13.194  12.638  72.152  1.00  0.00    -0.527 C  
BRANCH   7   8
HETATM    8  C   UNL     1     -12.813  13.654  71.117  1.00  0.00    -0.399 C  
BRANCH   8   9
HETATM    9  C   UNL     1     -12.609  15.012  71.713  1.00  0.00    -0.409 C  
HETATM   10  C   UNL     1     -11.776  15.943  71.224  1.00  0.00    -0.504 C  
BRANCH  10  11
HETATM   11  C   UNL     1     -10.850  15.740  70.064  1.00  0.00    -0.348 C  
BRANCH  11  12
HETATM   12  C   UNL     1     -11.260  16.568  68.878  1.00  0.00    -0.257 C  
HETATM   13  C   UNL     1     -10.685  16.507  67.666  1.00  0.00    -0.311 C  
BRANCH  13  14
HETATM   14  C   UNL     1      -9.537  15.591  67.372  1.00  0.00    -0.213 C  
BRANCH  14  15
HETATM   15  C   UNL     1      -9.468  15.139  65.919  1.00  0.00    -0.334 C  
BRANCH  15  16
HETATM   16  C   UNL     1     -10.867  14.737  65.452  1.00  0.00    -0.372 C  
BRANCH  16  17
HETATM   17  C   UNL     1     -10.895  13.303  64.943  1.00  0.00    -0.358 C  
HETATM   18  C   UNL     1     -11.953  13.109  63.883  1.00  0.00    -0.488 C  
HETATM   19  O   UNL     1     -12.710  13.975  63.468  1.00  0.00    -0.805 OA 
HETATM   20  O   UNL     1     -11.987  11.838  63.422  1.00  0.00    -0.474 OA 
ENDBRANCH  16  17
ENDBRANCH  15  16
ENDBRANCH  14  15
ENDBRANCH  13  14
ENDBRANCH  11  12
ENDBRANCH  10  11
ENDBRANCH   8   9
ENDBRANCH   7   8
ENDBRANCH   5   6
ENDBRANCH   4   5
ENDBRANCH   3   4
ENDBRANCH   2   3
TORSDOF 12
ENDMDL
MODEL       43
REMARK 921   NORMALIZED FREE ENERGY PREDICTED BY IDOCK:   -4.56 KCAL/MOL
REMARK 922        TOTAL FREE ENERGY PREDICTED BY IDOCK:   -9.72 KCAL/MOL
REMARK 923 INTER-LIGAND FREE ENERGY PREDICTED BY IDOCK:   -8.02 KCAL/MOL
REMARK 924 INTRA-LIGAND FREE ENERGY PREDICTED BY IDOCK:   -1.70 KCAL/MOL
REMARK 927      BINDING AFFINITY PREDICTED BY RF-SCORE:    0.00 PKD
ROOT
HETATM    1  C   UNL     1     -12.555  12.217  63.639  1.00  0.00    -0.616 C  
HETATM    2  C   UNL     1     -12.266  12.532  65.096  1.00  0.00    -0.509 C  
ENDROOT
BRANCH   2   3
HETATM    3  C   UNL     1     -12.584  13.988  65.417  1.00  0.00    -0.529 C  
BRANCH   3   4
HETATM    4  C   UNL     1     -11.413  14.901  65.056  1.00  0.00    -0.379 C  
BRANCH   4   5
HETATM    5  C   UNL     1     -10.274  14.682  66.042  1.00  0.00    -0.326 C  
BRANCH   5   6
HETATM    6  C   UNL     1      -9.161  15.677  65.897  1.00  0.00    -0.330 C  
HETATM    7  C   UNL     1      -9.222  16.906  66.433  1.00  0.00    -0.308 C  
BRANCH   7   8
HETATM    8  C   UNL     1     -10.396  17.429  67.204  1.00  0.00    -0.325 C  
BRANCH   8   9
HETATM    9  C   UNL     1     -10.169  17.364  68.683  1.00  0.00    -0.361 C  
HETATM   10  C   UNL     1     -10.847  16.569  69.525  1.00  0.00    -0.315 C  
BRANCH  10  11
HETATM   11  C   UNL     1     -11.999  15.693  69.136  1.00  0.00    -0.329 C  
BRANCH  11  12
HETATM   12  C   UNL     1     -12.391  14.766  70.252  1.00  0.00    -0.400 C  
HETATM   13  C   UNL     1     -12.228  13.433  70.233  1.00  0.00    -0.405 C  
BRANCH  13  14
HETATM   14  C   UNL     1     -11.636  12.717  69.058  1.00  0.00    -0.366 C  
BRANCH  14  15
HETATM   15  C   UNL     1     -11.834  11.208  69.094  1.00  0.00    -0.419 C  
BRANCH  15  16
HETATM   16  C   UNL     1     -12.392  10.807  70.460  1.00  0.00    -0.458 C  
BRANCH  16  17
HETATM   17  C   UNL     1     -11.594   9.667  71.076  1.00  0.00    -0.436 C  
HETATM   18  C   UNL     1     -12.411   8.899  72.086  1.00  0.00    -0.389 C  
HETATM   19  O   UNL     1     -13.569   9.139  72.395  1.00  0.00    -0.453 OA 
HETATM   20  O   UNL     1     -11.713   7.881  72.641  1.00  0.00    -0.370 OA 
ENDBRANCH  16  17
ENDBRANCH  15  16
ENDBRANCH  14  15
ENDBRANCH  13  14
ENDBRANCH  11  12
ENDBRANCH  10  11
ENDBRANCH   8   9
ENDBRANCH   7   8
ENDBRANCH   5   6
ENDBRANCH   4   5
ENDBRANCH   3   4
ENDBRANCH   2   3
TORSDOF 12
ENDMDL
MODEL       44
REMARK 921   NORMALIZED FREE ENERGY PREDICTED BY IDOCK:   -4.56 KCAL/MOL
REMARK 922        TOTAL FREE ENERGY PREDICTED BY IDOCK:   -9.71 KCAL/MOL
REMARK 923 INTER-LIGAND FREE ENERGY PREDICTED BY IDOCK:   -8.02 KCAL/MOL
REMARK 924 INTRA-LIGAND FREE ENERGY PREDICTED BY IDOCK:   -1.69 KCAL/MOL
REMARK 927      BINDING AFFINITY PREDICTED BY RF-SCORE:    0.00 PKD
ROOT
HETATM    1  C   UNL     1     -10.258   5.385  71.232  1.00  0.00    -0.287 C  
HETATM    2  C   UNL     1     -10.795   6.460  70.304  1.00  0.00    -0.350 C  
ENDROOT
BRANCH   2   3
HETATM    3  C   UNL     1     -11.504   7.559  71.088  1.00  0.00    -0.295 C  
BRANCH   3   4
HETATM    4  C   UNL     1     -10.503   8.557  71.667  1.00  0.00    -0.345 C  
BRANCH   4   5
HETATM    5  C   UNL     1     -10.419   9.779  70.761  1.00  0.00    -0.339 C  
BRANCH   5   6
HETATM    6  C   UNL     1     -11.725  10.504  70.619  1.00  0.00    -0.453 C  
HETATM    7  C   UNL     1     -11.902  11.496  69.732  1.00  0.00    -0.429 C  
BRANCH   7   8
HETATM    8  C   UNL     1     -10.831  12.005  68.814  1.00  0.00    -0.267 C  
BRANCH   8   9
HETATM    9  C   UNL     1     -11.077  11.605  67.392  1.00  0.00    -0.337 C  
HETATM   10  C   UNL     1     -11.674  12.380  66.474  1.00  0.00    -0.443 C  
BRANCH  10  11
HETATM   11  C   UNL     1     -12.273  13.726  66.747  1.00  0.00    -0.440 C  
BRANCH  11  12
HETATM   12  C   UNL     1     -11.243  14.817  66.666  1.00  0.00    -0.346 C  
HETATM   13  C   UNL     1     -10.989  15.705  67.640  1.00  0.00    -0.315 C  
BRANCH  13  14
HETATM   14  C   UNL     1     -11.738  15.704  68.937  1.00  0.00    -0.396 C  
BRANCH  14  15
HETATM   15  C   UNL     1     -10.846  15.840  70.164  1.00  0.00    -0.360 C  
BRANCH  15  16
HETATM   16  C   UNL     1     -11.704  15.730  71.424  1.00  0.00    -0.508 C  
BRANCH  16  17
HETATM   17  C   UNL     1     -12.807  14.695  71.259  1.00  0.00    -0.405 C  
HETATM   18  C   UNL     1     -13.278  14.166  72.592  1.00  0.00    -0.518 C  
HETATM   19  O   UNL     1     -12.845  14.504  73.684  1.00  0.00    -0.485 OA 
HETATM   20  O   UNL     1     -14.261  13.245  72.459  1.00  0.00    -0.697 OA 
ENDBRANCH  16  17
ENDBRANCH  15  16
ENDBRANCH  14  15
ENDBRANCH  13  14
ENDBRANCH  11  12
ENDBRANCH  10  11
ENDBRANCH   8   9
ENDBRANCH   7   8
ENDBRANCH   5   6
ENDBRANCH   4   5
ENDBRANCH   3   4
ENDBRANCH   2   3
TORSDOF 12
ENDMDL
MODEL       45
REMARK 921   NORMALIZED FREE ENERGY PREDICTED BY IDOCK:   -4.56 KCAL/MOL
REMARK 922        TOTAL FREE ENERGY PREDICTED BY IDOCK:   -9.71 KCAL/MOL
REMARK 923 INTER-LIGAND FREE ENERGY PREDICTED BY IDOCK:   -8.15 KCAL/MOL
REMARK 924 INTRA-LIGAND FREE ENERGY PREDICTED BY IDOCK:   -1.55 KCAL/MOL
REMARK 927      BINDING AFFINITY PREDICTED BY RF-SCORE:    0.00 PKD
ROOT
HETATM    1  C   UNL     1     -10.516  12.011  63.252  1.00  0.00    -0.403 C  
HETATM    2  C   UNL     1     -11.986  12.336  63.445  1.00  0.00    -0.588 C  
ENDROOT
BRANCH   2   3
HETATM    3  C   UNL     1     -12.167  13.533  64.371  1.00  0.00    -0.440 C  
BRANCH   3   4
HETATM    4  C   UNL     1     -10.819  14.129  64.773  1.00  0.00    -0.426 C  
BRANCH   4   5
HETATM    5  C   UNL     1     -10.720  14.188  66.291  1.00  0.00    -0.293 C  
BRANCH   5   6
HETATM    6  C   UNL     1     -11.813  13.434  66.989  1.00  0.00    -0.443 C  
HETATM    7  C   UNL     1     -12.016  13.525  68.313  1.00  0.00    -0.377 C  
BRANCH   7   8
HETATM    8  C   UNL     1     -11.176  14.354  69.237  1.00  0.00    -0.308 C  
BRANCH   8   9
HETATM    9  C   UNL     1     -11.910  15.564  69.726  1.00  0.00    -0.376 C  
HETATM   10  C   UNL     1     -12.208  15.809  71.011  1.00  0.00    -0.466 C  
BRANCH  10  11
HETATM   11  C   UNL     1     -11.939  14.869  72.147  1.00  0.00    -0.412 C  
BRANCH  11  12
HETATM   12  C   UNL     1     -13.198  14.198  72.619  1.00  0.00    -0.612 C  
HETATM   13  C   UNL     1     -13.559  12.943  72.309  1.00  0.00    -0.611 C  
BRANCH  13  14
HETATM   14  C   UNL     1     -12.726  12.067  71.425  1.00  0.00    -0.380 C  
BRANCH  14  15
HETATM   15  C   UNL     1     -13.094  10.591  71.498  1.00  0.00    -0.532 C  
BRANCH  15  16
HETATM   16  C   UNL     1     -11.815   9.753  71.485  1.00  0.00    -0.476 C  
BRANCH  16  17
HETATM   17  C   UNL     1     -11.064   9.903  70.170  1.00  0.00    -0.353 C  
HETATM   18  C   UNL     1      -9.578   9.705  70.352  1.00  0.00    -0.234 C  
HETATM   19  O   UNL     1      -9.019   9.457  71.410  1.00  0.00    -0.284 OA 
HETATM   20  O   UNL     1      -8.899   9.835  69.189  1.00  0.00    -0.141 OA 
ENDBRANCH  16  17
ENDBRANCH  15  16
ENDBRANCH  14  15
ENDBRANCH  13  14
ENDBRANCH  11  12
ENDBRANCH  10  11
ENDBRANCH   8   9
ENDBRANCH   7   8
ENDBRANCH   5   6
ENDBRANCH   4   5
ENDBRANCH   3   4
ENDBRANCH   2   3
TORSDOF 12
ENDMDL
MODEL       46
REMARK 921   NORMALIZED FREE ENERGY PREDICTED BY IDOCK:   -4.55 KCAL/MOL
REMARK 922        TOTAL FREE ENERGY PREDICTED BY IDOCK:   -9.70 KCAL/MOL
REMARK 923 INTER-LIGAND FREE ENERGY PREDICTED BY IDOCK:   -7.63 KCAL/MOL
REMARK 924 INTRA-LIGAND FREE ENERGY PREDICTED BY IDOCK:   -2.07 KCAL/MOL
REMARK 927      BINDING AFFINITY PREDICTED BY RF-SCORE:    0.00 PKD
ROOT
HETATM    1  C   UNL     1     -10.716   6.744  66.991  1.00  0.00    -0.435 C  
HETATM    2  C   UNL     1     -11.225   6.402  68.380  1.00  0.00    -0.297 C  
ENDROOT
BRANCH   2   3
HETATM    3  C   UNL     1     -10.200   5.582  69.154  1.00  0.00    -0.309 C  
BRANCH   3   4
HETATM    4  C   UNL     1     -10.526   5.559  70.647  1.00  0.00    -0.342 C  
BRANCH   4   5
HETATM    5  C   UNL     1     -11.585   6.608  70.953  1.00  0.00    -0.416 C  
BRANCH   5   6
HETATM    6  C   UNL     1     -11.346   7.337  72.242  1.00  0.00    -0.310 C  
HETATM    7  C   UNL     1     -12.010   8.457  72.569  1.00  0.00    -0.418 C  
BRANCH   7   8
HETATM    8  C   UNL     1     -13.032   9.114  71.690  1.00  0.00    -0.431 C  
BRANCH   8   9
HETATM    9  C   UNL     1     -12.649  10.518  71.340  1.00  0.00    -0.539 C  
HETATM   10  C   UNL     1     -11.906  10.865  70.279  1.00  0.00    -0.450 C  
BRANCH  10  11
HETATM   11  C   UNL     1     -11.262   9.898  69.332  1.00  0.00    -0.196 C  
BRANCH  11  12
HETATM   12  C   UNL     1      -9.774  10.100  69.261  1.00  0.00    -0.238 C  
HETATM   13  C   UNL     1      -9.092  10.386  68.141  1.00  0.00    -0.142 C  
BRANCH  13  14
HETATM   14  C   UNL     1      -9.764  10.522  66.809  1.00  0.00    -0.220 C  
BRANCH  14  15
HETATM   15  C   UNL     1      -9.892  11.962  66.329  1.00  0.00    -0.246 C  
BRANCH  15  16
HETATM   16  C   UNL     1     -11.316  12.454  66.590  1.00  0.00    -0.394 C  
BRANCH  16  17
HETATM   17  C   UNL     1     -11.580  13.788  65.908  1.00  0.00    -0.346 C  
HETATM   18  C   UNL     1     -12.400  13.619  64.652  1.00  0.00    -0.371 C  
HETATM   19  O   UNL     1     -12.813  12.557  64.211  1.00  0.00    -0.708 OA 
HETATM   20  O   UNL     1     -12.642  14.800  64.037  1.00  0.00    -0.822 OA 
ENDBRANCH  16  17
ENDBRANCH  15  16
ENDBRANCH  14  15
ENDBRANCH  13  14
ENDBRANCH  11  12
ENDBRANCH  10  11
ENDBRANCH   8   9
ENDBRANCH   7   8
ENDBRANCH   5   6
ENDBRANCH   4   5
ENDBRANCH   3   4
ENDBRANCH   2   3
TORSDOF 12
ENDMDL
MODEL       47
REMARK 921   NORMALIZED FREE ENERGY PREDICTED BY IDOCK:   -4.55 KCAL/MOL
REMARK 922        TOTAL FREE ENERGY PREDICTED BY IDOCK:   -9.69 KCAL/MOL
REMARK 923 INTER-LIGAND FREE ENERGY PREDICTED BY IDOCK:   -8.24 KCAL/MOL
REMARK 924 INTRA-LIGAND FREE ENERGY PREDICTED BY IDOCK:   -1.45 KCAL/MOL
REMARK 927      BINDING AFFINITY PREDICTED BY RF-SCORE:    0.00 PKD
ROOT
HETATM    1  C   UNL     1     -12.504  15.910  74.132  1.00  0.00    -0.776 C  
HETATM    2  C   UNL     1     -12.675  15.952  72.624  1.00  0.00    -0.554 C  
ENDROOT
BRANCH   2   3
HETATM    3  C   UNL     1     -13.853  15.092  72.181  1.00  0.00    -0.584 C  
BRANCH   3   4
HETATM    4  C   UNL     1     -13.375  13.786  71.548  1.00  0.00    -0.391 C  
BRANCH   4   5
HETATM    5  C   UNL     1     -12.454  14.094  70.376  1.00  0.00    -0.424 C  
BRANCH   5   6
HETATM    6  C   UNL     1     -11.831  12.872  69.769  1.00  0.00    -0.380 C  
HETATM    7  C   UNL     1     -11.662  12.733  68.445  1.00  0.00    -0.380 C  
BRANCH   7   8
HETATM    8  C   UNL     1     -12.089  13.752  67.432  1.00  0.00    -0.378 C  
BRANCH   8   9
HETATM    9  C   UNL     1     -10.919  14.464  66.828  1.00  0.00    -0.314 C  
HETATM   10  C   UNL     1     -10.508  15.692  67.178  1.00  0.00    -0.303 C  
BRANCH  10  11
HETATM   11  C   UNL     1     -11.209  16.582  68.159  1.00  0.00    -0.241 C  
BRANCH  11  12
HETATM   12  C   UNL     1     -10.239  17.452  68.908  1.00  0.00    -0.352 C  
HETATM   13  C   UNL     1      -9.955  18.727  68.597  1.00  0.00    -0.444 C  
BRANCH  13  14
HETATM   14  C   UNL     1     -10.584  19.424  67.430  1.00  0.00    -0.603 C  
BRANCH  14  15
HETATM   15  C   UNL     1      -9.587  20.143  66.532  1.00  0.00    -0.529 C  
BRANCH  15  16
HETATM   16  C   UNL     1      -8.216  19.481  66.674  1.00  0.00    -0.329 C  
BRANCH  16  17
HETATM   17  C   UNL     1      -7.123  20.510  66.926  1.00  0.00    -0.344 C  
HETATM   18  C   UNL     1      -6.413  20.259  68.234  1.00  0.00    -0.305 C  
HETATM   19  O   UNL     1      -6.663  19.353  69.016  1.00  0.00    -0.294 OA 
HETATM   20  O   UNL     1      -5.438  21.167  68.469  1.00  0.00    -0.321 OA 
ENDBRANCH  16  17
ENDBRANCH  15  16
ENDBRANCH  14  15
ENDBRANCH  13  14
ENDBRANCH  11  12
ENDBRANCH  10  11
ENDBRANCH   8   9
ENDBRANCH   7   8
ENDBRANCH   5   6
ENDBRANCH   4   5
ENDBRANCH   3   4
ENDBRANCH   2   3
TORSDOF 12
ENDMDL
MODEL       48
REMARK 921   NORMALIZED FREE ENERGY PREDICTED BY IDOCK:   -4.53 KCAL/MOL
REMARK 922        TOTAL FREE ENERGY PREDICTED BY IDOCK:   -9.67 KCAL/MOL
REMARK 923 INTER-LIGAND FREE ENERGY PREDICTED BY IDOCK:   -8.01 KCAL/MOL
REMARK 924 INTRA-LIGAND FREE ENERGY PREDICTED BY IDOCK:   -1.66 KCAL/MOL
REMARK 927      BINDING AFFINITY PREDICTED BY RF-SCORE:    0.00 PKD
ROOT
HETATM    1  C   UNL     1     -12.213   7.117  71.383  1.00  0.00    -0.399 C  
HETATM    2  C   UNL     1     -12.819   8.443  71.808  1.00  0.00    -0.371 C  
ENDROOT
BRANCH   2   3
HETATM    3  C   UNL     1     -11.919   9.609  71.417  1.00  0.00    -0.480 C  
BRANCH   3   4
HETATM    4  C   UNL     1     -12.675  10.934  71.477  1.00  0.00    -0.533 C  
BRANCH   4   5
HETATM    5  C   UNL     1     -12.154  11.868  70.393  1.00  0.00    -0.421 C  
BRANCH   5   6
HETATM    6  C   UNL     1     -11.360  11.165  69.333  1.00  0.00    -0.352 C  
HETATM    7  C   UNL     1     -11.227  11.655  68.090  1.00  0.00    -0.325 C  
BRANCH   7   8
HETATM    8  C   UNL     1     -11.865  12.926  67.616  1.00  0.00    -0.400 C  
BRANCH   8   9
HETATM    9  C   UNL     1     -12.023  12.951  66.127  1.00  0.00    -0.491 C  
HETATM   10  C   UNL     1     -11.197  13.585  65.281  1.00  0.00    -0.304 C  
BRANCH  10  11
HETATM   11  C   UNL     1     -10.043  14.446  65.696  1.00  0.00    -0.377 C  
BRANCH  11  12
HETATM   12  C   UNL     1     -10.442  15.891  65.804  1.00  0.00    -0.386 C  
HETATM   13  C   UNL     1     -10.570  16.566  66.957  1.00  0.00    -0.255 C  
BRANCH  13  14
HETATM   14  C   UNL     1     -10.335  15.923  68.290  1.00  0.00    -0.242 C  
BRANCH  14  15
HETATM   15  C   UNL     1     -11.244  16.445  69.394  1.00  0.00    -0.267 C  
BRANCH  15  16
HETATM   16  C   UNL     1     -11.411  15.363  70.461  1.00  0.00    -0.351 C  
BRANCH  16  17
HETATM   17  C   UNL     1     -11.823  15.958  71.799  1.00  0.00    -0.579 C  
HETATM   18  C   UNL     1     -13.238  15.579  72.165  1.00  0.00    -0.450 C  
HETATM   19  O   UNL     1     -13.985  14.886  71.490  1.00  0.00    -0.412 OA 
HETATM   20  O   UNL     1     -13.616  16.102  73.354  1.00  0.00    -0.615 OA 
ENDBRANCH  16  17
ENDBRANCH  15  16
ENDBRANCH  14  15
ENDBRANCH  13  14
ENDBRANCH  11  12
ENDBRANCH  10  11
ENDBRANCH   8   9
ENDBRANCH   7   8
ENDBRANCH   5   6
ENDBRANCH   4   5
ENDBRANCH   3   4
ENDBRANCH   2   3
TORSDOF 12
ENDMDL
MODEL       49
REMARK 921   NORMALIZED FREE ENERGY PREDICTED BY IDOCK:   -4.53 KCAL/MOL
REMARK 922        TOTAL FREE ENERGY PREDICTED BY IDOCK:   -9.66 KCAL/MOL
REMARK 923 INTER-LIGAND FREE ENERGY PREDICTED BY IDOCK:   -7.67 KCAL/MOL
REMARK 924 INTRA-LIGAND FREE ENERGY PREDICTED BY IDOCK:   -1.99 KCAL/MOL
REMARK 927      BINDING AFFINITY PREDICTED BY RF-SCORE:    0.00 PKD
ROOT
HETATM    1  C   UNL     1     -12.199   8.293  72.244  1.00  0.00    -0.428 C  
HETATM    2  C   UNL     1     -13.357   9.228  71.943  1.00  0.00    -0.498 C  
ENDROOT
BRANCH   2   3
HETATM    3  C   UNL     1     -12.868  10.656  71.727  1.00  0.00    -0.549 C  
BRANCH   3   4
HETATM    4  C   UNL     1     -12.654  10.948  70.243  1.00  0.00    -0.342 C  
BRANCH   4   5
HETATM    5  C   UNL     1     -11.163  11.041  69.952  1.00  0.00    -0.327 C  
BRANCH   5   6
HETATM    6  C   UNL     1     -10.631   9.865  69.187  1.00  0.00    -0.240 C  
HETATM    7  C   UNL     1     -10.507   9.873  67.850  1.00  0.00    -0.282 C  
BRANCH   7   8
HETATM    8  C   UNL     1     -10.899  11.027  66.977  1.00  0.00    -0.334 C  
BRANCH   8   9
HETATM    9  C   UNL     1      -9.756  11.509  66.139  1.00  0.00    -0.249 C  
HETATM   10  C   UNL     1      -9.049  12.624  66.379  1.00  0.00    -0.114 C  
BRANCH  10  11
HETATM   11  C   UNL     1      -9.351  13.612  67.465  1.00  0.00    -0.223 C  
BRANCH  11  12
HETATM   12  C   UNL     1     -10.156  14.772  66.949  1.00  0.00    -0.246 C  
HETATM   13  C   UNL     1     -11.353  15.147  67.427  1.00  0.00    -0.309 C  
BRANCH  13  14
HETATM   14  C   UNL     1     -12.031  14.417  68.546  1.00  0.00    -0.333 C  
BRANCH  14  15
HETATM   15  C   UNL     1     -11.493  14.770  69.926  1.00  0.00    -0.322 C  
BRANCH  15  16
HETATM   16  C   UNL     1     -12.581  15.494  70.719  1.00  0.00    -0.505 C  
BRANCH  16  17
HETATM   17  C   UNL     1     -12.089  15.899  72.100  1.00  0.00    -0.596 C  
HETATM   18  C   UNL     1     -12.730  15.069  73.186  1.00  0.00    -0.486 C  
HETATM   19  O   UNL     1     -13.548  14.178  73.009  1.00  0.00    -0.651 OA 
HETATM   20  O   UNL     1     -12.299  15.419  74.420  1.00  0.00    -0.641 OA 
ENDBRANCH  16  17
ENDBRANCH  15  16
ENDBRANCH  14  15
ENDBRANCH  13  14
ENDBRANCH  11  12
ENDBRANCH  10  11
ENDBRANCH   8   9
ENDBRANCH   7   8
ENDBRANCH   5   6
ENDBRANCH   4   5
ENDBRANCH   3   4
ENDBRANCH   2   3
TORSDOF 12
ENDMDL
MODEL       50
REMARK 921   NORMALIZED FREE ENERGY PREDICTED BY IDOCK:   -4.53 KCAL/MOL
REMARK 922        TOTAL FREE ENERGY PREDICTED BY IDOCK:   -9.66 KCAL/MOL
REMARK 923 INTER-LIGAND FREE ENERGY PREDICTED BY IDOCK:   -7.35 KCAL/MOL
REMARK 924 INTRA-LIGAND FREE ENERGY PREDICTED BY IDOCK:   -2.30 KCAL/MOL
REMARK 927      BINDING AFFINITY PREDICTED BY RF-SCORE:    0.00 PKD
ROOT
HETATM    1  C   UNL     1     -10.580  19.300  66.032  1.00  0.00    -0.550 C  
HETATM    2  C   UNL     1     -10.057  18.609  67.278  1.00  0.00    -0.388 C  
ENDROOT
BRANCH   2   3
HETATM    3  C   UNL     1     -10.322  17.109  67.227  1.00  0.00    -0.320 C  
BRANCH   3   4
HETATM    4  C   UNL     1      -9.365  16.412  66.262  1.00  0.00    -0.348 C  
BRANCH   4   5
HETATM    5  C   UNL     1     -10.079  15.249  65.587  1.00  0.00    -0.401 C  
BRANCH   5   6
HETATM    6  C   UNL     1     -11.189  15.680  64.675  1.00  0.00    -0.380 C  
HETATM    7  C   UNL     1     -12.283  14.930  64.471  1.00  0.00    -0.396 C  
BRANCH   7   8
HETATM    8  C   UNL     1     -12.511  13.588  65.098  1.00  0.00    -0.495 C  
BRANCH   8   9
HETATM    9  C   UNL     1     -12.740  12.522  64.071  1.00  0.00    -0.416 C  
HETATM   10  C   UNL     1     -11.772  11.784  63.507  1.00  0.00    -0.485 C  
BRANCH  10  11
HETATM   11  C   UNL     1     -10.304  11.973  63.742  1.00  0.00    -0.457 C  
BRANCH  11  12
HETATM   12  C   UNL     1      -9.701  10.791  64.449  1.00  0.00    -0.356 C  
HETATM   13  C   UNL     1      -9.441  10.737  65.764  1.00  0.00    -0.244 C  
BRANCH  13  14
HETATM   14  C   UNL     1      -9.722  11.886  66.683  1.00  0.00    -0.220 C  
BRANCH  14  15
HETATM   15  C   UNL     1     -10.444  11.488  67.963  1.00  0.00    -0.214 C  
BRANCH  15  16
HETATM   16  C   UNL     1     -11.709  12.334  68.110  1.00  0.00    -0.408 C  
BRANCH  16  17
HETATM   17  C   UNL     1     -11.437  13.613  68.889  1.00  0.00    -0.344 C  
HETATM   18  C   UNL     1     -11.997  13.542  70.289  1.00  0.00    -0.316 C  
HETATM   19  O   UNL     1     -12.600  12.592  70.765  1.00  0.00    -0.306 OA 
HETATM   20  O   UNL     1     -11.760  14.674  70.992  1.00  0.00    -0.308 OA 
ENDBRANCH  16  17
ENDBRANCH  15  16
ENDBRANCH  14  15
ENDBRANCH  13  14
ENDBRANCH  11  12
ENDBRANCH  10  11
ENDBRANCH   8   9
ENDBRANCH   7   8
ENDBRANCH   5   6
ENDBRANCH   4   5
ENDBRANCH   3   4
ENDBRANCH   2   3
TORSDOF 12
ENDMDL
MODEL       51
REMARK 921   NORMALIZED FREE ENERGY PREDICTED BY IDOCK:   -4.52 KCAL/MOL
REMARK 922        TOTAL FREE ENERGY PREDICTED BY IDOCK:   -9.64 KCAL/MOL
REMARK 923 INTER-LIGAND FREE ENERGY PREDICTED BY IDOCK:   -8.17 KCAL/MOL
REMARK 924 INTRA-LIGAND FREE ENERGY PREDICTED BY IDOCK:   -1.47 KCAL/MOL
REMARK 927      BINDING AFFINITY PREDICTED BY RF-SCORE:    0.00 PKD
ROOT
HETATM    1  C   UNL     1     -13.111  15.693  73.374  1.00  0.00    -0.670 C  
HETATM    2  C   UNL     1     -13.928  15.241  72.176  1.00  0.00    -0.650 C  
ENDROOT
BRANCH   2   3
HETATM    3  C   UNL     1     -13.158  15.447  70.877  1.00  0.00    -0.528 C  
BRANCH   3   4
HETATM    4  C   UNL     1     -11.655  15.537  71.134  1.00  0.00    -0.446 C  
BRANCH   4   5
HETATM    5  C   UNL     1     -10.900  15.278  69.837  1.00  0.00    -0.295 C  
BRANCH   5   6
HETATM    6  C   UNL     1     -11.772  15.340  68.618  1.00  0.00    -0.367 C  
HETATM    7  C   UNL     1     -11.894  14.308  67.769  1.00  0.00    -0.414 C  
BRANCH   7   8
HETATM    8  C   UNL     1     -11.169  13.004  67.921  1.00  0.00    -0.304 C  
BRANCH   8   9
HETATM    9  C   UNL     1     -11.872  12.081  68.867  1.00  0.00    -0.356 C  
HETATM   10  C   UNL     1     -11.743  10.745  68.868  1.00  0.00    -0.338 C  
BRANCH  10  11
HETATM   11  C   UNL     1     -10.955   9.960  67.864  1.00  0.00    -0.281 C  
BRANCH  11  12
HETATM   12  C   UNL     1      -9.475  10.128  68.069  1.00  0.00    -0.156 C  
HETATM   13  C   UNL     1      -8.549   9.996  67.107  1.00  0.00    -0.128 C  
BRANCH  13  14
HETATM   14  C   UNL     1      -8.907   9.644  65.696  1.00  0.00    -0.189 C  
BRANCH  14  15
HETATM   15  C   UNL     1      -9.040  10.851  64.776  1.00  0.00    -0.197 C  
BRANCH  15  16
HETATM   16  C   UNL     1     -10.510  11.035  64.398  1.00  0.00    -0.422 C  
BRANCH  16  17
HETATM   17  C   UNL     1     -10.857  12.504  64.205  1.00  0.00    -0.420 C  
HETATM   18  C   UNL     1     -12.224  12.677  63.588  1.00  0.00    -0.536 C  
HETATM   19  O   UNL     1     -12.979  11.770  63.270  1.00  0.00    -0.633 OA 
HETATM   20  O   UNL     1     -12.545  13.980  63.412  1.00  0.00    -0.845 OA 
ENDBRANCH  16  17
ENDBRANCH  15  16
ENDBRANCH  14  15
ENDBRANCH  13  14
ENDBRANCH  11  12
ENDBRANCH  10  11
ENDBRANCH   8   9
ENDBRANCH   7   8
ENDBRANCH   5   6
ENDBRANCH   4   5
ENDBRANCH   3   4
ENDBRANCH   2   3
TORSDOF 12
ENDMDL
MODEL       52
REMARK 921   NORMALIZED FREE ENERGY PREDICTED BY IDOCK:   -4.49 KCAL/MOL
REMARK 922        TOTAL FREE ENERGY PREDICTED BY IDOCK:   -9.60 KCAL/MOL
REMARK 923 INTER-LIGAND FREE ENERGY PREDICTED BY IDOCK:   -7.26 KCAL/MOL
REMARK 924 INTRA-LIGAND FREE ENERGY PREDICTED BY IDOCK:   -2.34 KCAL/MOL
REMARK 927      BINDING AFFINITY PREDICTED BY RF-SCORE:    0.00 PKD
ROOT
HETATM    1  C   UNL     1     -10.489   7.342  69.615  1.00  0.00    -0.237 C  
HETATM    2  C   UNL     1     -10.777   7.872  71.008  1.00  0.00    -0.239 C  
ENDROOT
BRANCH   2   3
HETATM    3  C   UNL     1     -12.202   7.542  71.438  1.00  0.00    -0.363 C  
BRANCH   3   4
HETATM    4  C   UNL     1     -12.802   8.671  72.273  1.00  0.00    -0.438 C  
BRANCH   4   5
HETATM    5  C   UNL     1     -13.467   9.687  71.354  1.00  0.00    -0.403 C  
BRANCH   5   6
HETATM    6  C   UNL     1     -12.902  11.070  71.486  1.00  0.00    -0.555 C  
HETATM    7  C   UNL     1     -12.139  11.629  70.534  1.00  0.00    -0.458 C  
BRANCH   7   8
HETATM    8  C   UNL     1     -11.747  10.942  69.260  1.00  0.00    -0.395 C  
BRANCH   8   9
HETATM    9  C   UNL     1     -10.301  11.151  68.933  1.00  0.00    -0.220 C  
HETATM   10  C   UNL     1      -9.767  11.015  67.710  1.00  0.00    -0.183 C  
BRANCH  10  11
HETATM   11  C   UNL     1     -10.511  10.541  66.499  1.00  0.00    -0.276 C  
BRANCH  11  12
HETATM   12  C   UNL     1     -10.112  11.307  65.269  1.00  0.00    -0.318 C  
HETATM   13  C   UNL     1     -10.870  12.237  64.667  1.00  0.00    -0.349 C  
BRANCH  13  14
HETATM   14  C   UNL     1     -12.233  12.605  65.169  1.00  0.00    -0.539 C  
BRANCH  14  15
HETATM   15  C   UNL     1     -12.322  14.018  65.727  1.00  0.00    -0.506 C  
BRANCH  15  16
HETATM   16  C   UNL     1     -11.973  13.993  67.216  1.00  0.00    -0.448 C  
BRANCH  16  17
HETATM   17  C   UNL     1     -11.083  15.166  67.600  1.00  0.00    -0.318 C  
HETATM   18  C   UNL     1     -11.448  15.721  68.955  1.00  0.00    -0.391 C  
HETATM   19  O   UNL     1     -12.344  15.306  69.676  1.00  0.00    -0.286 OA 
HETATM   20  O   UNL     1     -10.662  16.765  69.309  1.00  0.00    -0.334 OA 
ENDBRANCH  16  17
ENDBRANCH  15  16
ENDBRANCH  14  15
ENDBRANCH  13  14
ENDBRANCH  11  12
ENDBRANCH  10  11
ENDBRANCH   8   9
ENDBRANCH   7   8
ENDBRANCH   5   6
ENDBRANCH   4   5
ENDBRANCH   3   4
ENDBRANCH   2   3
TORSDOF 12
ENDMDL
MODEL       53
REMARK 921   NORMALIZED FREE ENERGY PREDICTED BY IDOCK:   -4.49 KCAL/MOL
REMARK 922        TOTAL FREE ENERGY PREDICTED BY IDOCK:   -9.59 KCAL/MOL
REMARK 923 INTER-LIGAND FREE ENERGY PREDICTED BY IDOCK:   -7.98 KCAL/MOL
REMARK 924 INTRA-LIGAND FREE ENERGY PREDICTED BY IDOCK:   -1.60 KCAL/MOL
REMARK 927      BINDING AFFINITY PREDICTED BY RF-SCORE:    0.00 PKD
ROOT
HETATM    1  C   UNL     1     -10.613  19.599  66.619  1.00  0.00    -0.599 C  
HETATM    2  C   UNL     1     -10.046  19.264  67.987  1.00  0.00    -0.496 C  
ENDROOT
BRANCH   2   3
HETATM    3  C   UNL     1      -9.889  17.758  68.163  1.00  0.00    -0.326 C  
BRANCH   3   4
HETATM    4  C   UNL     1     -10.299  17.009  66.897  1.00  0.00    -0.303 C  
BRANCH   4   5
HETATM    5  C   UNL     1     -10.062  15.517  67.087  1.00  0.00    -0.254 C  
BRANCH   5   6
HETATM    6  C   UNL     1     -11.279  14.682  66.820  1.00  0.00    -0.344 C  
HETATM    7  C   UNL     1     -12.019  14.154  67.807  1.00  0.00    -0.389 C  
BRANCH   7   8
HETATM    8  C   UNL     1     -11.711  14.312  69.266  1.00  0.00    -0.363 C  
BRANCH   8   9
HETATM    9  C   UNL     1     -12.242  15.601  69.813  1.00  0.00    -0.293 C  
HETATM   10  C   UNL     1     -12.390  15.873  71.119  1.00  0.00    -0.435 C  
BRANCH  10  11
HETATM   11  C   UNL     1     -12.139  14.899  72.230  1.00  0.00    -0.407 C  
BRANCH  11  12
HETATM   12  C   UNL     1     -13.408  14.225  72.672  1.00  0.00    -0.619 C  
HETATM   13  C   UNL     1     -13.724  12.945  72.417  1.00  0.00    -0.530 C  
BRANCH  13  14
HETATM   14  C   UNL     1     -12.824  12.041  71.632  1.00  0.00    -0.399 C  
BRANCH  14  15
HETATM   15  C   UNL     1     -13.040  10.560  71.917  1.00  0.00    -0.567 C  
BRANCH  15  16
HETATM   16  C   UNL     1     -12.453   9.738  70.770  1.00  0.00    -0.297 C  
BRANCH  16  17
HETATM   17  C   UNL     1     -11.047  10.200  70.414  1.00  0.00    -0.393 C  
HETATM   18  C   UNL     1     -10.966  10.690  68.989  1.00  0.00    -0.248 C  
HETATM   19  O   UNL     1     -11.894  10.721  68.194  1.00  0.00    -0.533 OA 
HETATM   20  O   UNL     1      -9.720  11.106  68.661  1.00  0.00    -0.190 OA 
ENDBRANCH  16  17
ENDBRANCH  15  16
ENDBRANCH  14  15
ENDBRANCH  13  14
ENDBRANCH  11  12
ENDBRANCH  10  11
ENDBRANCH   8   9
ENDBRANCH   7   8
ENDBRANCH   5   6
ENDBRANCH   4   5
ENDBRANCH   3   4
ENDBRANCH   2   3
TORSDOF 12
ENDMDL
MODEL       54
REMARK 921   NORMALIZED FREE ENERGY PREDICTED BY IDOCK:   -4.48 KCAL/MOL
REMARK 922        TOTAL FREE ENERGY PREDICTED BY IDOCK:   -9.57 KCAL/MOL
REMARK 923 INTER-LIGAND FREE ENERGY PREDICTED BY IDOCK:   -7.09 KCAL/MOL
REMARK 924 INTRA-LIGAND FREE ENERGY PREDICTED BY IDOCK:   -2.48 KCAL/MOL
REMARK 927      BINDING AFFINITY PREDICTED BY RF-SCORE:    0.00 PKD
ROOT
HETATM    1  C   UNL     1     -11.954  11.957  63.631  1.00  0.00    -0.578 C  
HETATM    2  C   UNL     1     -12.534  12.644  64.855  1.00  0.00    -0.564 C  
ENDROOT
BRANCH   2   3
HETATM    3  C   UNL     1     -12.402  14.159  64.749  1.00  0.00    -0.436 C  
BRANCH   3   4
HETATM    4  C   UNL     1     -11.525  14.715  65.870  1.00  0.00    -0.338 C  
BRANCH   4   5
HETATM    5  C   UNL     1     -10.057  14.531  65.509  1.00  0.00    -0.394 C  
BRANCH   5   6
HETATM    6  C   UNL     1      -9.183  14.250  66.694  1.00  0.00    -0.276 C  
HETATM    7  C   UNL     1      -8.952  13.004  67.138  1.00  0.00    -0.223 C  
BRANCH   7   8
HETATM    8  C   UNL     1      -9.549  11.771  66.529  1.00  0.00    -0.225 C  
BRANCH   8   9
HETATM    9  C   UNL     1      -9.952  10.773  67.569  1.00  0.00    -0.203 C  
HETATM   10  C   UNL     1     -10.972  10.932  68.426  1.00  0.00    -0.288 C  
BRANCH  10  11
HETATM   11  C   UNL     1     -11.807  12.171  68.542  1.00  0.00    -0.365 C  
BRANCH  11  12
HETATM   12  C   UNL     1     -11.969  12.596  69.975  1.00  0.00    -0.377 C  
HETATM   13  C   UNL     1     -12.042  13.870  70.392  1.00  0.00    -0.421 C  
BRANCH  13  14
HETATM   14  C   UNL     1     -11.952  15.028  69.445  1.00  0.00    -0.336 C  
BRANCH  14  15
HETATM   15  C   UNL     1     -10.749  15.929  69.688  1.00  0.00    -0.304 C  
BRANCH  15  16
HETATM   16  C   UNL     1     -10.664  16.965  68.567  1.00  0.00    -0.359 C  
BRANCH  16  17
HETATM   17  C   UNL     1      -9.264  17.553  68.456  1.00  0.00    -0.278 C  
HETATM   18  C   UNL     1      -9.265  19.043  68.706  1.00  0.00    -0.343 C  
HETATM   19  O   UNL     1     -10.250  19.719  68.963  1.00  0.00    -0.434 OA 
HETATM   20  O   UNL     1      -8.026  19.577  68.611  1.00  0.00    -0.350 OA 
ENDBRANCH  16  17
ENDBRANCH  15  16
ENDBRANCH  14  15
ENDBRANCH  13  14
ENDBRANCH  11  12
ENDBRANCH  10  11
ENDBRANCH   8   9
ENDBRANCH   7   8
ENDBRANCH   5   6
ENDBRANCH   4   5
ENDBRANCH   3   4
ENDBRANCH   2   3
TORSDOF 12
ENDMDL
MODEL       55
REMARK 921   NORMALIZED FREE ENERGY PREDICTED BY IDOCK:   -4.48 KCAL/MOL
REMARK 922        TOTAL FREE ENERGY PREDICTED BY IDOCK:   -9.57 KCAL/MOL
REMARK 923 INTER-LIGAND FREE ENERGY PREDICTED BY IDOCK:   -7.69 KCAL/MOL
REMARK 924 INTRA-LIGAND FREE ENERGY PREDICTED BY IDOCK:   -1.88 KCAL/MOL
REMARK 927      BINDING AFFINITY PREDICTED BY RF-SCORE:    0.00 PKD
ROOT
HETATM    1  C   UNL     1     -11.669  12.673  63.507  1.00  0.00    -0.604 C  
HETATM    2  C   UNL     1     -10.437  11.801  63.337  1.00  0.00    -0.485 C  
ENDROOT
BRANCH   2   3
HETATM    3  C   UNL     1     -10.101  11.067  64.631  1.00  0.00    -0.370 C  
BRANCH   3   4
HETATM    4  C   UNL     1     -11.031  11.495  65.765  1.00  0.00    -0.305 C  
BRANCH   4   5
HETATM    5  C   UNL     1     -10.398  11.141  67.104  1.00  0.00    -0.249 C  
BRANCH   5   6
HETATM    6  C   UNL     1     -10.252   9.664  67.321  1.00  0.00    -0.292 C  
HETATM    7  C   UNL     1      -9.889   9.144  68.505  1.00  0.00    -0.178 C  
BRANCH   7   8
HETATM    8  C   UNL     1      -9.569   9.963  69.719  1.00  0.00    -0.261 C  
BRANCH   8   9
HETATM    9  C   UNL     1     -10.346   9.514  70.917  1.00  0.00    -0.372 C  
HETATM   10  C   UNL     1     -11.607   9.880  71.191  1.00  0.00    -0.468 C  
BRANCH  10  11
HETATM   11  C   UNL     1     -12.403  10.869  70.395  1.00  0.00    -0.436 C  
BRANCH  11  12
HETATM   12  C   UNL     1     -12.492  12.198  71.093  1.00  0.00    -0.337 C  
HETATM   13  C   UNL     1     -12.190  13.379  70.532  1.00  0.00    -0.425 C  
BRANCH  13  14
HETATM   14  C   UNL     1     -11.708  13.492  69.118  1.00  0.00    -0.374 C  
BRANCH  14  15
HETATM   15  C   UNL     1     -11.776  14.906  68.556  1.00  0.00    -0.338 C  
BRANCH  15  16
HETATM   16  C   UNL     1     -10.785  15.034  67.399  1.00  0.00    -0.289 C  
BRANCH  16  17
HETATM   17  C   UNL     1     -11.494  15.356  66.091  1.00  0.00     0.001 C  
HETATM   18  C   UNL     1     -10.670  16.277  65.223  1.00  0.00    -0.332 C  
HETATM   19  O   UNL     1      -9.570  16.726  65.509  1.00  0.00    -0.515 OA 
HETATM   20  O   UNL     1     -11.289  16.569  64.056  1.00  0.00    -1.064 OA 
ENDBRANCH  16  17
ENDBRANCH  15  16
ENDBRANCH  14  15
ENDBRANCH  13  14
ENDBRANCH  11  12
ENDBRANCH  10  11
ENDBRANCH   8   9
ENDBRANCH   7   8
ENDBRANCH   5   6
ENDBRANCH   4   5
ENDBRANCH   3   4
ENDBRANCH   2   3
TORSDOF 12
ENDMDL
MODEL       56
REMARK 921   NORMALIZED FREE ENERGY PREDICTED BY IDOCK:   -4.46 KCAL/MOL
REMARK 922        TOTAL FREE ENERGY PREDICTED BY IDOCK:   -9.55 KCAL/MOL
REMARK 923 INTER-LIGAND FREE ENERGY PREDICTED BY IDOCK:   -7.59 KCAL/MOL
REMARK 924 INTRA-LIGAND FREE ENERGY PREDICTED BY IDOCK:   -1.95 KCAL/MOL
REMARK 927      BINDING AFFINITY PREDICTED BY RF-SCORE:    0.00 PKD
ROOT
HETATM    1  C   UNL     1     -11.931  11.545  70.034  1.00  0.00    -0.435 C  
HETATM    2  C   UNL     1     -12.666  10.969  71.231  1.00  0.00    -0.537 C  
ENDROOT
BRANCH   2   3
HETATM    3  C   UNL     1     -12.261   9.521  71.480  1.00  0.00    -0.468 C  
BRANCH   3   4
HETATM    4  C   UNL     1     -10.762   9.322  71.261  1.00  0.00    -0.422 C  
BRANCH   4   5
HETATM    5  C   UNL     1     -10.397   7.868  71.531  1.00  0.00    -0.243 C  
BRANCH   5   6
HETATM    6  C   UNL     1     -11.483   6.902  71.159  1.00  0.00    -0.347 C  
HETATM    7  C   UNL     1     -11.406   6.118  70.073  1.00  0.00    -0.443 C  
BRANCH   7   8
HETATM    8  C   UNL     1     -10.260   6.130  69.107  1.00  0.00    -0.242 C  
BRANCH   8   9
HETATM    9  C   UNL     1     -10.726   6.239  67.688  1.00  0.00    -0.391 C  
HETATM   10  C   UNL     1     -10.837   7.389  67.006  1.00  0.00    -0.307 C  
BRANCH  10  11
HETATM   11  C   UNL     1     -10.605   8.753  67.584  1.00  0.00    -0.281 C  
BRANCH  11  12
HETATM   12  C   UNL     1      -9.236   9.272  67.243  1.00  0.00    -0.149 C  
HETATM   13  C   UNL     1      -8.994  10.388  66.537  1.00  0.00    -0.161 C  
BRANCH  13  14
HETATM   14  C   UNL     1     -10.097  11.242  65.991  1.00  0.00    -0.283 C  
BRANCH  14  15
HETATM   15  C   UNL     1     -10.392  12.477  66.832  1.00  0.00    -0.242 C  
BRANCH  15  16
HETATM   16  C   UNL     1     -11.863  12.857  66.666  1.00  0.00    -0.461 C  
BRANCH  16  17
HETATM   17  C   UNL     1     -12.017  14.188  65.944  1.00  0.00    -0.420 C  
HETATM   18  C   UNL     1     -12.478  13.997  64.519  1.00  0.00    -0.308 C  
HETATM   19  O   UNL     1     -12.704  12.922  63.983  1.00  0.00    -0.657 OA 
HETATM   20  O   UNL     1     -12.620  15.174  63.865  1.00  0.00    -0.794 OA 
ENDBRANCH  16  17
ENDBRANCH  15  16
ENDBRANCH  14  15
ENDBRANCH  13  14
ENDBRANCH  11  12
ENDBRANCH  10  11
ENDBRANCH   8   9
ENDBRANCH   7   8
ENDBRANCH   5   6
ENDBRANCH   4   5
ENDBRANCH   3   4
ENDBRANCH   2   3
TORSDOF 12
ENDMDL
MODEL       57
REMARK 921   NORMALIZED FREE ENERGY PREDICTED BY IDOCK:   -4.45 KCAL/MOL
REMARK 922        TOTAL FREE ENERGY PREDICTED BY IDOCK:   -9.52 KCAL/MOL
REMARK 923 INTER-LIGAND FREE ENERGY PREDICTED BY IDOCK:   -7.08 KCAL/MOL
REMARK 924 INTRA-LIGAND FREE ENERGY PREDICTED BY IDOCK:   -2.45 KCAL/MOL
REMARK 927      BINDING AFFINITY PREDICTED BY RF-SCORE:    0.00 PKD
ROOT
HETATM    1  C   UNL     1      -8.462  10.278  63.056  1.00  0.00    -0.180 C  
HETATM    2  C   UNL     1      -9.102  10.051  64.414  1.00  0.00    -0.289 C  
ENDROOT
BRANCH   2   3
HETATM    3  C   UNL     1     -10.448  10.760  64.512  1.00  0.00    -0.351 C  
BRANCH   3   4
HETATM    4  C   UNL     1     -10.451  12.054  63.700  1.00  0.00    -0.494 C  
BRANCH   4   5
HETATM    5  C   UNL     1     -11.877  12.570  63.570  1.00  0.00    -0.616 C  
BRANCH   5   6
HETATM    6  C   UNL     1     -12.628  12.581  64.868  1.00  0.00    -0.469 C  
HETATM    7  C   UNL     1     -12.478  13.557  65.777  1.00  0.00    -0.514 C  
BRANCH   7   8
HETATM    8  C   UNL     1     -11.543  14.718  65.617  1.00  0.00    -0.290 C  
BRANCH   8   9
HETATM    9  C   UNL     1     -10.925  15.122  66.920  1.00  0.00    -0.323 C  
HETATM   10  C   UNL     1      -9.836  14.554  67.458  1.00  0.00    -0.222 C  
BRANCH  10  11
HETATM   11  C   UNL     1      -9.122  13.365  66.891  1.00  0.00    -0.237 C  
BRANCH  11  12
HETATM   12  C   UNL     1      -8.681  12.417  67.972  1.00  0.00    -0.186 C  
HETATM   13  C   UNL     1      -9.442  11.442  68.492  1.00  0.00    -0.183 C  
BRANCH  13  14
HETATM   14  C   UNL     1     -10.852  11.203  68.045  1.00  0.00    -0.274 C  
BRANCH  14  15
HETATM   15  C   UNL     1     -11.866  11.203  69.181  1.00  0.00    -0.419 C  
BRANCH  15  16
HETATM   16  C   UNL     1     -11.841  12.564  69.877  1.00  0.00    -0.373 C  
BRANCH  16  17
HETATM   17  C   UNL     1     -12.608  12.533  71.191  1.00  0.00    -0.349 C  
HETATM   18  C   UNL     1     -13.350  13.826  71.432  1.00  0.00    -0.270 C  
HETATM   19  O   UNL     1     -13.352  14.794  70.687  1.00  0.00    -0.320 OA 
HETATM   20  O   UNL     1     -14.038  13.810  72.598  1.00  0.00    -0.715 OA 
ENDBRANCH  16  17
ENDBRANCH  15  16
ENDBRANCH  14  15
ENDBRANCH  13  14
ENDBRANCH  11  12
ENDBRANCH  10  11
ENDBRANCH   8   9
ENDBRANCH   7   8
ENDBRANCH   5   6
ENDBRANCH   4   5
ENDBRANCH   3   4
ENDBRANCH   2   3
TORSDOF 12
ENDMDL
MODEL       58
REMARK 921   NORMALIZED FREE ENERGY PREDICTED BY IDOCK:   -4.45 KCAL/MOL
REMARK 922        TOTAL FREE ENERGY PREDICTED BY IDOCK:   -9.52 KCAL/MOL
REMARK 923 INTER-LIGAND FREE ENERGY PREDICTED BY IDOCK:   -7.79 KCAL/MOL
REMARK 924 INTRA-LIGAND FREE ENERGY PREDICTED BY IDOCK:   -1.73 KCAL/MOL
REMARK 927      BINDING AFFINITY PREDICTED BY RF-SCORE:    0.00 PKD
ROOT
HETATM    1  C   UNL     1     -10.858   6.107  69.188  1.00  0.00    -0.418 C  
HETATM    2  C   UNL     1     -10.441   5.316  70.415  1.00  0.00    -0.322 C  
ENDROOT
BRANCH   2   3
HETATM    3  C   UNL     1     -11.015   5.931  71.686  1.00  0.00    -0.327 C  
BRANCH   3   4
HETATM    4  C   UNL     1     -11.982   7.069  71.361  1.00  0.00    -0.380 C  
BRANCH   4   5
HETATM    5  C   UNL     1     -11.547   8.332  72.090  1.00  0.00    -0.428 C  
BRANCH   5   6
HETATM    6  C   UNL     1     -10.157   8.774  71.738  1.00  0.00    -0.403 C  
HETATM    7  C   UNL     1      -9.911   9.654  70.755  1.00  0.00    -0.224 C  
BRANCH   7   8
HETATM    8  C   UNL     1     -10.971  10.268  69.891  1.00  0.00    -0.358 C  
BRANCH   8   9
HETATM    9  C   UNL     1     -10.838   9.851  68.460  1.00  0.00    -0.257 C  
HETATM   10  C   UNL     1     -10.441  10.656  67.463  1.00  0.00    -0.272 C  
BRANCH  10  11
HETATM   11  C   UNL     1     -10.159  12.121  67.607  1.00  0.00    -0.205 C  
BRANCH  11  12
HETATM   12  C   UNL     1     -11.338  12.955  67.186  1.00  0.00    -0.352 C  
HETATM   13  C   UNL     1     -12.062  13.728  68.011  1.00  0.00    -0.315 C  
BRANCH  13  14
HETATM   14  C   UNL     1     -11.767  13.828  69.476  1.00  0.00    -0.380 C  
BRANCH  14  15
HETATM   15  C   UNL     1     -11.445  15.241  69.943  1.00  0.00    -0.325 C  
BRANCH  15  16
HETATM   16  C   UNL     1     -12.579  15.746  70.836  1.00  0.00    -0.437 C  
BRANCH  16  17
HETATM   17  C   UNL     1     -12.075  16.108  72.226  1.00  0.00    -0.616 C  
HETATM   18  C   UNL     1     -12.728  15.263  73.293  1.00  0.00    -0.511 C  
HETATM   19  O   UNL     1     -13.563  14.392  73.097  1.00  0.00    -0.602 OA 
HETATM   20  O   UNL     1     -12.288  15.576  74.534  1.00  0.00    -0.658 OA 
ENDBRANCH  16  17
ENDBRANCH  15  16
ENDBRANCH  14  15
ENDBRANCH  13  14
ENDBRANCH  11  12
ENDBRANCH  10  11
ENDBRANCH   8   9
ENDBRANCH   7   8
ENDBRANCH   5   6
ENDBRANCH   4   5
ENDBRANCH   3   4
ENDBRANCH   2   3
TORSDOF 12
ENDMDL
MODEL       59
REMARK 921   NORMALIZED FREE ENERGY PREDICTED BY IDOCK:   -4.44 KCAL/MOL
REMARK 922        TOTAL FREE ENERGY PREDICTED BY IDOCK:   -9.51 KCAL/MOL
REMARK 923 INTER-LIGAND FREE ENERGY PREDICTED BY IDOCK:   -7.60 KCAL/MOL
REMARK 924 INTRA-LIGAND FREE ENERGY PREDICTED BY IDOCK:   -1.91 KCAL/MOL
REMARK 927      BINDING AFFINITY PREDICTED BY RF-SCORE:    0.00 PKD
ROOT
HETATM    1  C   UNL     1     -12.131  14.261  66.943  1.00  0.00    -0.440 C  
HETATM    2  C   UNL     1     -11.123  14.514  68.049  1.00  0.00    -0.289 C  
ENDROOT
BRANCH   2   3
HETATM    3  C   UNL     1     -11.595  15.625  68.979  1.00  0.00    -0.396 C  
BRANCH   3   4
HETATM    4  C   UNL     1     -10.786  15.641  70.275  1.00  0.00    -0.354 C  
BRANCH   4   5
HETATM    5  C   UNL     1     -11.730  15.763  71.464  1.00  0.00    -0.523 C  
BRANCH   5   6
HETATM    6  C   UNL     1     -13.154  15.432  71.130  1.00  0.00    -0.565 C  
HETATM    7  C   UNL     1     -13.743  14.298  71.541  1.00  0.00    -0.428 C  
BRANCH   7   8
HETATM    8  C   UNL     1     -13.054  13.237  72.346  1.00  0.00    -0.443 C  
BRANCH   8   9
HETATM    9  C   UNL     1     -13.492  11.861  71.949  1.00  0.00    -0.289 C  
HETATM   10  C   UNL     1     -12.882  11.102  71.027  1.00  0.00    -0.424 C  
BRANCH  10  11
HETATM   11  C   UNL     1     -11.727  11.544  70.181  1.00  0.00    -0.395 C  
BRANCH  11  12
HETATM   12  C   UNL     1     -10.817  10.397  69.842  1.00  0.00    -0.353 C  
HETATM   13  C   UNL     1     -10.486  10.024  68.596  1.00  0.00    -0.228 C  
BRANCH  13  14
HETATM   14  C   UNL     1     -11.017  10.726  67.384  1.00  0.00    -0.361 C  
BRANCH  14  15
HETATM   15  C   UNL     1      -9.933  11.276  66.467  1.00  0.00    -0.247 C  
BRANCH  15  16
HETATM   16  C   UNL     1     -10.283  10.939  65.017  1.00  0.00    -0.367 C  
BRANCH  16  17
HETATM   17  C   UNL     1     -11.585  11.599  64.590  1.00  0.00    -0.199 C  
HETATM   18  C   UNL     1     -11.342  12.933  63.927  1.00  0.00    -0.436 C  
HETATM   19  O   UNL     1     -10.248  13.447  63.745  1.00  0.00    -0.116 OA 
HETATM   20  O   UNL     1     -12.493  13.530  63.541  1.00  0.00    -0.745 OA 
ENDBRANCH  16  17
ENDBRANCH  15  16
ENDBRANCH  14  15
ENDBRANCH  13  14
ENDBRANCH  11  12
ENDBRANCH  10  11
ENDBRANCH   8   9
ENDBRANCH   7   8
ENDBRANCH   5   6
ENDBRANCH   4   5
ENDBRANCH   3   4
ENDBRANCH   2   3
TORSDOF 12
ENDMDL
MODEL       60
REMARK 921   NORMALIZED FREE ENERGY PREDICTED BY IDOCK:   -4.44 KCAL/MOL
REMARK 922        TOTAL FREE ENERGY PREDICTED BY IDOCK:   -9.51 KCAL/MOL
REMARK 923 INTER-LIGAND FREE ENERGY PREDICTED BY IDOCK:   -7.60 KCAL/MOL
REMARK 924 INTRA-LIGAND FREE ENERGY PREDICTED BY IDOCK:   -1.92 KCAL/MOL
REMARK 927      BINDING AFFINITY PREDICTED BY RF-SCORE:    0.00 PKD
ROOT
HETATM    1  C   UNL     1     -13.433  15.404  71.960  1.00  0.00    -0.564 C  
HETATM    2  C   UNL     1     -12.341  14.532  71.365  1.00  0.00    -0.425 C  
ENDROOT
BRANCH   2   3
HETATM    3  C   UNL     1     -12.264  14.704  69.853  1.00  0.00    -0.365 C  
BRANCH   3   4
HETATM    4  C   UNL     1     -11.209  13.780  69.246  1.00  0.00    -0.291 C  
BRANCH   4   5
HETATM    5  C   UNL     1     -11.866  12.853  68.232  1.00  0.00    -0.372 C  
BRANCH   5   6
HETATM    6  C   UNL     1     -11.674  11.398  68.544  1.00  0.00    -0.386 C  
HETATM    7  C   UNL     1     -10.790  10.633  67.884  1.00  0.00    -0.328 C  
BRANCH   7   8
HETATM    8  C   UNL     1      -9.925  11.125  66.763  1.00  0.00    -0.242 C  
BRANCH   8   9
HETATM    9  C   UNL     1      -9.674  10.060  65.741  1.00  0.00    -0.321 C  
HETATM   10  C   UNL     1      -9.664  10.261  64.415  1.00  0.00    -0.381 C  
BRANCH  10  11
HETATM   11  C   UNL     1      -9.995  11.560  63.744  1.00  0.00    -0.384 C  
BRANCH  11  12
HETATM   12  C   UNL     1     -11.447  11.630  63.361  1.00  0.00    -0.360 C  
HETATM   13  C   UNL     1     -12.314  12.551  63.811  1.00  0.00    -0.595 C  
BRANCH  13  14
HETATM   14  C   UNL     1     -11.911  13.623  64.778  1.00  0.00    -0.414 C  
BRANCH  14  15
HETATM   15  C   UNL     1     -12.068  15.035  64.231  1.00  0.00    -0.323 C  
BRANCH  15  16
HETATM   16  C   UNL     1     -11.002  15.937  64.855  1.00  0.00    -0.427 C  
BRANCH  16  17
HETATM   17  C   UNL     1      -9.957  15.126  65.607  1.00  0.00    -0.387 C  
HETATM   18  C   UNL     1      -8.830  15.998  66.106  1.00  0.00    -0.331 C  
HETATM   19  O   UNL     1      -8.739  17.205  65.940  1.00  0.00    -0.526 OA 
HETATM   20  O   UNL     1      -7.894  15.288  66.778  1.00  0.00    -0.176 OA 
ENDBRANCH  16  17
ENDBRANCH  15  16
ENDBRANCH  14  15
ENDBRANCH  13  14
ENDBRANCH  11  12
ENDBRANCH  10  11
ENDBRANCH   8   9
ENDBRANCH   7   8
ENDBRANCH   5   6
ENDBRANCH   4   5
ENDBRANCH   3   4
ENDBRANCH   2   3
TORSDOF 12
ENDMDL
MODEL       61
REMARK 921   NORMALIZED FREE ENERGY PREDICTED BY IDOCK:   -4.44 KCAL/MOL
REMARK 922        TOTAL FREE ENERGY PREDICTED BY IDOCK:   -9.50 KCAL/MOL
REMARK 923 INTER-LIGAND FREE ENERGY PREDICTED BY IDOCK:   -8.24 KCAL/MOL
REMARK 924 INTRA-LIGAND FREE ENERGY PREDICTED BY IDOCK:   -1.27 KCAL/MOL
REMARK 927      BINDING AFFINITY PREDICTED BY RF-SCORE:    0.00 PKD
ROOT
HETATM    1  C   UNL     1     -10.628  19.641  65.969  1.00  0.00    -0.584 C  
HETATM    2  C   UNL     1     -10.390  19.317  67.433  1.00  0.00    -0.540 C  
ENDROOT
BRANCH   2   3
HETATM    3  C   UNL     1     -10.276  17.813  67.651  1.00  0.00    -0.359 C  
BRANCH   3   4
HETATM    4  C   UNL     1     -10.158  17.070  66.321  1.00  0.00    -0.330 C  
BRANCH   4   5
HETATM    5  C   UNL     1      -9.933  15.587  66.584  1.00  0.00    -0.272 C  
BRANCH   5   6
HETATM    6  C   UNL     1     -11.177  14.761  66.436  1.00  0.00    -0.342 C  
HETATM    7  C   UNL     1     -11.839  14.263  67.492  1.00  0.00    -0.429 C  
BRANCH   7   8
HETATM    8  C   UNL     1     -11.410  14.447  68.916  1.00  0.00    -0.300 C  
BRANCH   8   9
HETATM    9  C   UNL     1     -12.156  15.560  69.586  1.00  0.00    -0.352 C  
HETATM   10  C   UNL     1     -12.425  15.617  70.899  1.00  0.00    -0.497 C  
BRANCH  10  11
HETATM   11  C   UNL     1     -12.107  14.535  71.886  1.00  0.00    -0.324 C  
BRANCH  11  12
HETATM   12  C   UNL     1     -13.356  13.905  72.437  1.00  0.00    -0.629 C  
HETATM   13  C   UNL     1     -13.717  12.627  72.246  1.00  0.00    -0.429 C  
BRANCH  13  14
HETATM   14  C   UNL     1     -12.895  11.677  71.429  1.00  0.00    -0.461 C  
BRANCH  14  15
HETATM   15  C   UNL     1     -13.046  10.220  71.843  1.00  0.00    -0.568 C  
BRANCH  15  16
HETATM   16  C   UNL     1     -11.846   9.424  71.327  1.00  0.00    -0.435 C  
BRANCH  16  17
HETATM   17  C   UNL     1     -11.407   8.365  72.328  1.00  0.00    -0.448 C  
HETATM   18  C   UNL     1     -11.582   6.971  71.775  1.00  0.00    -0.280 C  
HETATM   19  O   UNL     1     -12.021   6.695  70.668  1.00  0.00    -0.395 OA 
HETATM   20  O   UNL     1     -11.193   6.020  72.656  1.00  0.00    -0.263 OA 
ENDBRANCH  16  17
ENDBRANCH  15  16
ENDBRANCH  14  15
ENDBRANCH  13  14
ENDBRANCH  11  12
ENDBRANCH  10  11
ENDBRANCH   8   9
ENDBRANCH   7   8
ENDBRANCH   5   6
ENDBRANCH   4   5
ENDBRANCH   3   4
ENDBRANCH   2   3
TORSDOF 12
ENDMDL
MODEL       62
REMARK 921   NORMALIZED FREE ENERGY PREDICTED BY IDOCK:   -4.43 KCAL/MOL
REMARK 922        TOTAL FREE ENERGY PREDICTED BY IDOCK:   -9.50 KCAL/MOL
REMARK 923 INTER-LIGAND FREE ENERGY PREDICTED BY IDOCK:   -8.08 KCAL/MOL
REMARK 924 INTRA-LIGAND FREE ENERGY PREDICTED BY IDOCK:   -1.41 KCAL/MOL
REMARK 927      BINDING AFFINITY PREDICTED BY RF-SCORE:    0.00 PKD
ROOT
HETATM    1  C   UNL     1      -8.292  10.040  63.246  1.00  0.00    -0.168 C  
HETATM    2  C   UNL     1      -9.654  10.502  62.758  1.00  0.00    -0.323 C  
ENDROOT
BRANCH   2   3
HETATM    3  C   UNL     1     -10.162  11.679  63.581  1.00  0.00    -0.451 C  
BRANCH   3   4
HETATM    4  C   UNL     1     -11.689  11.730  63.587  1.00  0.00    -0.517 C  
BRANCH   4   5
HETATM    5  C   UNL     1     -12.163  12.667  64.690  1.00  0.00    -0.519 C  
BRANCH   5   6
HETATM    6  C   UNL     1     -12.314  14.090  64.238  1.00  0.00    -0.393 C  
HETATM    7  C   UNL     1     -11.509  15.071  64.676  1.00  0.00    -0.382 C  
BRANCH   7   8
HETATM    8  C   UNL     1     -10.402  14.871  65.667  1.00  0.00    -0.370 C  
BRANCH   8   9
HETATM    9  C   UNL     1      -9.580  16.110  65.844  1.00  0.00    -0.359 C  
HETATM   10  C   UNL     1      -9.714  16.977  66.859  1.00  0.00    -0.266 C  
BRANCH  10  11
HETATM   11  C   UNL     1     -10.769  16.896  67.920  1.00  0.00    -0.344 C  
BRANCH  11  12
HETATM   12  C   UNL     1     -10.199  16.435  69.233  1.00  0.00    -0.278 C  
HETATM   13  C   UNL     1     -10.595  15.338  69.897  1.00  0.00    -0.291 C  
BRANCH  13  14
HETATM   14  C   UNL     1     -11.685  14.446  69.387  1.00  0.00    -0.362 C  
BRANCH  14  15
HETATM   15  C   UNL     1     -12.694  14.037  70.453  1.00  0.00    -0.316 C  
BRANCH  15  16
HETATM   16  C   UNL     1     -13.415  15.283  70.965  1.00  0.00    -0.516 C  
BRANCH  16  17
HETATM   17  C   UNL     1     -13.645  15.216  72.468  1.00  0.00    -0.592 C  
HETATM   18  C   UNL     1     -12.633  16.044  73.223  1.00  0.00    -0.540 C  
HETATM   19  O   UNL     1     -11.730  16.695  72.720  1.00  0.00    -0.472 OA 
HETATM   20  O   UNL     1     -12.828  15.994  74.562  1.00  0.00    -0.626 OA 
ENDBRANCH  16  17
ENDBRANCH  15  16
ENDBRANCH  14  15
ENDBRANCH  13  14
ENDBRANCH  11  12
ENDBRANCH  10  11
ENDBRANCH   8   9
ENDBRANCH   7   8
ENDBRANCH   5   6
ENDBRANCH   4   5
ENDBRANCH   3   4
ENDBRANCH   2   3
TORSDOF 12
ENDMDL
MODEL       63
REMARK 921   NORMALIZED FREE ENERGY PREDICTED BY IDOCK:   -4.43 KCAL/MOL
REMARK 922        TOTAL FREE ENERGY PREDICTED BY IDOCK:   -9.49 KCAL/MOL
REMARK 923 INTER-LIGAND FREE ENERGY PREDICTED BY IDOCK:   -7.72 KCAL/MOL
REMARK 924 INTRA-LIGAND FREE ENERGY PREDICTED BY IDOCK:   -1.77 KCAL/MOL
REMARK 927      BINDING AFFINITY PREDICTED BY RF-SCORE:    0.00 PKD
ROOT
HETATM    1  C   UNL     1     -12.481  15.173  74.014  1.00  0.00    -0.712 C  
HETATM    2  C   UNL     1     -13.425  15.859  73.043  1.00  0.00    -0.653 C  
ENDROOT
BRANCH   2   3
HETATM    3  C   UNL     1     -14.074  14.851  72.102  1.00  0.00    -0.616 C  
BRANCH   3   4
HETATM    4  C   UNL     1     -13.450  13.465  72.262  1.00  0.00    -0.683 C  
BRANCH   4   5
HETATM    5  C   UNL     1     -12.638  13.125  71.020  1.00  0.00    -0.397 C  
BRANCH   5   6
HETATM    6  C   UNL     1     -12.571  14.246  70.027  1.00  0.00    -0.277 C  
HETATM    7  C   UNL     1     -11.868  14.156  68.887  1.00  0.00    -0.382 C  
BRANCH   7   8
HETATM    8  C   UNL     1     -11.061  12.956  68.491  1.00  0.00    -0.299 C  
BRANCH   8   9
HETATM    9  C   UNL     1     -11.748  12.143  67.438  1.00  0.00    -0.374 C  
HETATM   10  C   UNL     1     -11.394  12.111  66.144  1.00  0.00    -0.414 C  
BRANCH  10  11
HETATM   11  C   UNL     1     -10.318  12.956  65.530  1.00  0.00    -0.304 C  
BRANCH  11  12
HETATM   12  C   UNL     1     -10.893  14.132  64.792  1.00  0.00    -0.426 C  
HETATM   13  C   UNL     1     -10.639  15.418  65.083  1.00  0.00    -0.458 C  
BRANCH  13  14
HETATM   14  C   UNL     1      -9.744  15.819  66.215  1.00  0.00    -0.328 C  
BRANCH  14  15
HETATM   15  C   UNL     1     -10.453  16.598  67.314  1.00  0.00    -0.313 C  
BRANCH  15  16
HETATM   16  C   UNL     1      -9.443  16.966  68.401  1.00  0.00    -0.258 C  
BRANCH  16  17
HETATM   17  C   UNL     1      -8.719  15.736  68.930  1.00  0.00    -0.217 C  
HETATM   18  C   UNL     1      -7.293  16.051  69.314  1.00  0.00    -0.231 C  
HETATM   19  O   UNL     1      -6.758  17.145  69.220  1.00  0.00    -0.230 OA 
HETATM   20  O   UNL     1      -6.639  14.964  69.787  1.00  0.00    -0.148 OA 
ENDBRANCH  16  17
ENDBRANCH  15  16
ENDBRANCH  14  15
ENDBRANCH  13  14
ENDBRANCH  11  12
ENDBRANCH  10  11
ENDBRANCH   8   9
ENDBRANCH   7   8
ENDBRANCH   5   6
ENDBRANCH   4   5
ENDBRANCH   3   4
ENDBRANCH   2   3
TORSDOF 12
ENDMDL
MODEL       64
REMARK 921   NORMALIZED FREE ENERGY PREDICTED BY IDOCK:   -4.43 KCAL/MOL
REMARK 922        TOTAL FREE ENERGY PREDICTED BY IDOCK:   -9.49 KCAL/MOL
REMARK 923 INTER-LIGAND FREE ENERGY PREDICTED BY IDOCK:   -7.79 KCAL/MOL
REMARK 924 INTRA-LIGAND FREE ENERGY PREDICTED BY IDOCK:   -1.70 KCAL/MOL
REMARK 927      BINDING AFFINITY PREDICTED BY RF-SCORE:    0.00 PKD
ROOT
HETATM    1  C   UNL     1     -13.679  13.308  72.204  1.00  0.00    -0.619 C  
HETATM    2  C   UNL     1     -12.776  13.911  71.143  1.00  0.00    -0.441 C  
ENDROOT
BRANCH   2   3
HETATM    3  C   UNL     1     -12.047  12.824  70.361  1.00  0.00    -0.382 C  
BRANCH   3   4
HETATM    4  C   UNL     1     -11.959  13.177  68.877  1.00  0.00    -0.317 C  
BRANCH   4   5
HETATM    5  C   UNL     1     -10.800  12.422  68.241  1.00  0.00    -0.264 C  
BRANCH   5   6
HETATM    6  C   UNL     1     -11.136  11.003  67.889  1.00  0.00    -0.347 C  
HETATM    7  C   UNL     1     -10.772  10.445  66.724  1.00  0.00    -0.235 C  
BRANCH   7   8
HETATM    8  C   UNL     1     -10.023  11.168  65.645  1.00  0.00    -0.297 C  
BRANCH   8   9
HETATM    9  C   UNL     1     -10.758  11.145  64.341  1.00  0.00    -0.388 C  
HETATM   10  C   UNL     1     -11.782  11.953  64.027  1.00  0.00    -0.469 C  
BRANCH  10  11
HETATM   11  C   UNL     1     -12.413  12.939  64.964  1.00  0.00    -0.553 C  
BRANCH  11  12
HETATM   12  C   UNL     1     -12.282  14.347  64.454  1.00  0.00    -0.481 C  
HETATM   13  C   UNL     1     -11.248  15.163  64.714  1.00  0.00    -0.396 C  
BRANCH  13  14
HETATM   14  C   UNL     1     -10.095  14.743  65.573  1.00  0.00    -0.409 C  
BRANCH  14  15
HETATM   15  C   UNL     1      -9.763  15.731  66.683  1.00  0.00    -0.266 C  
BRANCH  15  16
HETATM   16  C   UNL     1      -8.633  16.648  66.217  1.00  0.00    -0.359 C  
BRANCH  16  17
HETATM   17  C   UNL     1      -8.634  17.966  66.978  1.00  0.00    -0.248 C  
HETATM   18  C   UNL     1      -9.731  18.885  66.498  1.00  0.00    -0.358 C  
HETATM   19  O   UNL     1     -10.531  18.633  65.609  1.00  0.00    -0.603 OA 
HETATM   20  O   UNL     1      -9.744  20.061  67.168  1.00  0.00    -0.357 OA 
ENDBRANCH  16  17
ENDBRANCH  15  16
ENDBRANCH  14  15
ENDBRANCH  13  14
ENDBRANCH  11  12
ENDBRANCH  10  11
ENDBRANCH   8   9
ENDBRANCH   7   8
ENDBRANCH   5   6
ENDBRANCH   4   5
ENDBRANCH   3   4
ENDBRANCH   2   3
TORSDOF 12
ENDMDL
MODEL       65
REMARK 921   NORMALIZED FREE ENERGY PREDICTED BY IDOCK:   -4.42 KCAL/MOL
REMARK 922        TOTAL FREE ENERGY PREDICTED BY IDOCK:   -9.48 KCAL/MOL
REMARK 923 INTER-LIGAND FREE ENERGY PREDICTED BY IDOCK:   -7.75 KCAL/MOL
REMARK 924 INTRA-LIGAND FREE ENERGY PREDICTED BY IDOCK:   -1.73 KCAL/MOL
REMARK 927      BINDING AFFINITY PREDICTED BY RF-SCORE:    0.00 PKD
ROOT
HETATM    1  C   UNL     1      -9.521  10.022  64.537  1.00  0.00    -0.359 C  
HETATM    2  C   UNL     1      -9.797  10.705  63.209  1.00  0.00    -0.364 C  
ENDROOT
BRANCH   2   3
HETATM    3  C   UNL     1     -10.416  12.082  63.418  1.00  0.00    -0.474 C  
BRANCH   3   4
HETATM    4  C   UNL     1     -11.893  11.973  63.791  1.00  0.00    -0.581 C  
BRANCH   4   5
HETATM    5  C   UNL     1     -12.245  13.056  64.802  1.00  0.00    -0.487 C  
BRANCH   5   6
HETATM    6  C   UNL     1     -11.881  14.438  64.346  1.00  0.00    -0.433 C  
HETATM    7  C   UNL     1     -10.861  15.127  64.882  1.00  0.00    -0.437 C  
BRANCH   7   8
HETATM    8  C   UNL     1      -9.997  14.618  65.995  1.00  0.00    -0.337 C  
BRANCH   8   9
HETATM    9  C   UNL     1      -9.674  15.691  66.988  1.00  0.00    -0.234 C  
HETATM   10  C   UNL     1     -10.478  16.068  67.994  1.00  0.00    -0.275 C  
BRANCH  10  11
HETATM   11  C   UNL     1     -11.863  15.545  68.225  1.00  0.00    -0.189 C  
BRANCH  11  12
HETATM   12  C   UNL     1     -11.947  14.745  69.495  1.00  0.00    -0.351 C  
HETATM   13  C   UNL     1     -11.910  13.405  69.560  1.00  0.00    -0.391 C  
BRANCH  13  14
HETATM   14  C   UNL     1     -11.793  12.549  68.337  1.00  0.00    -0.353 C  
BRANCH  14  15
HETATM   15  C   UNL     1     -11.522  11.081  68.637  1.00  0.00    -0.375 C  
BRANCH  15  16
HETATM   16  C   UNL     1     -11.208  10.922  70.125  1.00  0.00    -0.317 C  
BRANCH  16  17
HETATM   17  C   UNL     1     -11.975   9.759  70.737  1.00  0.00    -0.382 C  
HETATM   18  C   UNL     1     -12.989  10.232  71.750  1.00  0.00    -0.469 C  
HETATM   19  O   UNL     1     -13.190  11.396  72.065  1.00  0.00    -0.503 OA 
HETATM   20  O   UNL     1     -13.679   9.205  72.301  1.00  0.00    -0.443 OA 
ENDBRANCH  16  17
ENDBRANCH  15  16
ENDBRANCH  14  15
ENDBRANCH  13  14
ENDBRANCH  11  12
ENDBRANCH  10  11
ENDBRANCH   8   9
ENDBRANCH   7   8
ENDBRANCH   5   6
ENDBRANCH   4   5
ENDBRANCH   3   4
ENDBRANCH   2   3
TORSDOF 12
ENDMDL
MODEL       66
REMARK 921   NORMALIZED FREE ENERGY PREDICTED BY IDOCK:   -4.42 KCAL/MOL
REMARK 922        TOTAL FREE ENERGY PREDICTED BY IDOCK:   -9.48 KCAL/MOL
REMARK 923 INTER-LIGAND FREE ENERGY PREDICTED BY IDOCK:   -7.82 KCAL/MOL
REMARK 924 INTRA-LIGAND FREE ENERGY PREDICTED BY IDOCK:   -1.66 KCAL/MOL
REMARK 927      BINDING AFFINITY PREDICTED BY RF-SCORE:    0.00 PKD
ROOT
HETATM    1  C   UNL     1     -14.409   7.807  71.324  1.00  0.00    -0.425 C  
HETATM    2  C   UNL     1     -13.966   8.727  72.448  1.00  0.00    -0.482 C  
ENDROOT
BRANCH   2   3
HETATM    3  C   UNL     1     -13.178   9.915  71.908  1.00  0.00    -0.558 C  
BRANCH   3   4
HETATM    4  C   UNL     1     -11.873   9.460  71.256  1.00  0.00    -0.435 C  
BRANCH   4   5
HETATM    5  C   UNL     1     -11.288  10.601  70.436  1.00  0.00    -0.389 C  
BRANCH   5   6
HETATM    6  C   UNL     1     -12.127  10.974  69.250  1.00  0.00    -0.363 C  
HETATM    7  C   UNL     1     -12.009  12.158  68.629  1.00  0.00    -0.290 C  
BRANCH   7   8
HETATM    8  C   UNL     1     -11.060  13.238  69.054  1.00  0.00    -0.291 C  
BRANCH   8   9
HETATM    9  C   UNL     1     -11.780  14.453  69.551  1.00  0.00    -0.362 C  
HETATM   10  C   UNL     1     -11.307  15.706  69.476  1.00  0.00    -0.329 C  
BRANCH  10  11
HETATM   11  C   UNL     1      -9.945  16.078  68.973  1.00  0.00    -0.242 C  
BRANCH  11  12
HETATM   12  C   UNL     1      -9.970  17.379  68.220  1.00  0.00    -0.320 C  
HETATM   13  C   UNL     1      -9.827  17.497  66.890  1.00  0.00    -0.302 C  
BRANCH  13  14
HETATM   14  C   UNL     1      -9.608  16.311  66.002  1.00  0.00    -0.371 C  
BRANCH  14  15
HETATM   15  C   UNL     1     -10.828  15.929  65.174  1.00  0.00    -0.438 C  
BRANCH  15  16
HETATM   16  C   UNL     1     -11.439  14.648  65.743  1.00  0.00    -0.338 C  
BRANCH  16  17
HETATM   17  C   UNL     1     -12.449  14.038  64.782  1.00  0.00    -0.392 C  
HETATM   18  C   UNL     1     -12.152  12.583  64.511  1.00  0.00    -0.425 C  
HETATM   19  O   UNL     1     -11.221  11.948  64.986  1.00  0.00    -0.313 OA 
HETATM   20  O   UNL     1     -13.044  12.028  63.658  1.00  0.00    -0.756 OA 
ENDBRANCH  16  17
ENDBRANCH  15  16
ENDBRANCH  14  15
ENDBRANCH  13  14
ENDBRANCH  11  12
ENDBRANCH  10  11
ENDBRANCH   8   9
ENDBRANCH   7   8
ENDBRANCH   5   6
ENDBRANCH   4   5
ENDBRANCH   3   4
ENDBRANCH   2   3
TORSDOF 12
ENDMDL
MODEL       67
REMARK 921   NORMALIZED FREE ENERGY PREDICTED BY IDOCK:   -4.42 KCAL/MOL
REMARK 922        TOTAL FREE ENERGY PREDICTED BY IDOCK:   -9.47 KCAL/MOL
REMARK 923 INTER-LIGAND FREE ENERGY PREDICTED BY IDOCK:   -7.44 KCAL/MOL
REMARK 924 INTRA-LIGAND FREE ENERGY PREDICTED BY IDOCK:   -2.03 KCAL/MOL
REMARK 927      BINDING AFFINITY PREDICTED BY RF-SCORE:    0.00 PKD
ROOT
HETATM    1  C   UNL     1      -9.039   9.879  67.387  1.00  0.00    -0.147 C  
HETATM    2  C   UNL     1      -9.810   9.332  68.575  1.00  0.00    -0.173 C  
ENDROOT
BRANCH   2   3
HETATM    3  C   UNL     1      -9.161   9.748  69.890  1.00  0.00    -0.257 C  
BRANCH   3   4
HETATM    4  C   UNL     1      -9.141   8.590  70.887  1.00  0.00    -0.208 C  
BRANCH   4   5
HETATM    5  C   UNL     1      -9.606   7.316  70.197  1.00  0.00    -0.168 C  
BRANCH   5   6
HETATM    6  C   UNL     1     -10.316   6.366  71.116  1.00  0.00    -0.244 C  
HETATM    7  C   UNL     1     -11.610   6.510  71.439  1.00  0.00    -0.371 C  
BRANCH   7   8
HETATM    8  C   UNL     1     -12.479   7.630  70.949  1.00  0.00    -0.121 C  
BRANCH   8   9
HETATM    9  C   UNL     1     -12.707   8.664  72.007  1.00  0.00    -0.427 C  
HETATM   10  C   UNL     1     -12.799   9.983  71.779  1.00  0.00    -0.546 C  
BRANCH  10  11
HETATM   11  C   UNL     1     -12.591  10.638  70.447  1.00  0.00    -0.395 C  
BRANCH  11  12
HETATM   12  C   UNL     1     -12.241  12.092  70.594  1.00  0.00    -0.392 C  
HETATM   13  C   UNL     1     -11.866  12.896  69.586  1.00  0.00    -0.387 C  
BRANCH  13  14
HETATM   14  C   UNL     1     -11.744  12.405  68.176  1.00  0.00    -0.408 C  
BRANCH  14  15
HETATM   15  C   UNL     1     -12.274  13.383  67.136  1.00  0.00    -0.306 C  
BRANCH  15  16
HETATM   16  C   UNL     1     -11.370  13.344  65.904  1.00  0.00    -0.327 C  
BRANCH  16  17
HETATM   17  C   UNL     1     -10.924  14.740  65.494  1.00  0.00    -0.350 C  
HETATM   18  C   UNL     1     -11.815  15.315  64.420  1.00  0.00    -0.281 C  
HETATM   19  O   UNL     1     -12.778  14.754  63.919  1.00  0.00    -0.794 OA 
HETATM   20  O   UNL     1     -11.430  16.558  64.047  1.00  0.00    -1.137 OA 
ENDBRANCH  16  17
ENDBRANCH  15  16
ENDBRANCH  14  15
ENDBRANCH  13  14
ENDBRANCH  11  12
ENDBRANCH  10  11
ENDBRANCH   8   9
ENDBRANCH   7   8
ENDBRANCH   5   6
ENDBRANCH   4   5
ENDBRANCH   3   4
ENDBRANCH   2   3
TORSDOF 12
ENDMDL
MODEL       68
REMARK 921   NORMALIZED FREE ENERGY PREDICTED BY IDOCK:   -4.41 KCAL/MOL
REMARK 922        TOTAL FREE ENERGY PREDICTED BY IDOCK:   -9.46 KCAL/MOL
REMARK 923 INTER-LIGAND FREE ENERGY PREDICTED BY IDOCK:   -6.77 KCAL/MOL
REMARK 924 INTRA-LIGAND FREE ENERGY PREDICTED BY IDOCK:   -2.69 KCAL/MOL
REMARK 927      BINDING AFFINITY PREDICTED BY RF-SCORE:    0.00 PKD
ROOT
HETATM    1  C   UNL     1     -11.894  15.142  70.552  1.00  0.00    -0.361 C  
HETATM    2  C   UNL     1     -11.913  15.251  69.038  1.00  0.00    -0.304 C  
ENDROOT
BRANCH   2   3
HETATM    3  C   UNL     1     -11.958  13.873  68.388  1.00  0.00    -0.391 C  
BRANCH   3   4
HETATM    4  C   UNL     1     -12.387  13.966  66.925  1.00  0.00    -0.331 C  
BRANCH   4   5
HETATM    5  C   UNL     1     -11.880  12.747  66.167  1.00  0.00    -0.484 C  
BRANCH   5   6
HETATM    6  C   UNL     1     -12.465  12.616  64.791  1.00  0.00    -0.555 C  
HETATM    7  C   UNL     1     -11.702  12.467  63.697  1.00  0.00    -0.596 C  
BRANCH   7   8
HETATM    8  C   UNL     1     -10.203  12.440  63.715  1.00  0.00    -0.404 C  
BRANCH   8   9
HETATM    9  C   UNL     1      -9.664  11.074  63.422  1.00  0.00    -0.383 C  
HETATM   10  C   UNL     1      -9.245  10.202  64.351  1.00  0.00    -0.306 C  
BRANCH  10  11
HETATM   11  C   UNL     1      -9.159  10.490  65.819  1.00  0.00    -0.204 C  
BRANCH  11  12
HETATM   12  C   UNL     1      -7.785  10.958  66.211  1.00  0.00    -0.147 C  
HETATM   13  C   UNL     1      -7.531  11.899  67.134  1.00  0.00    -0.146 C  
BRANCH  13  14
HETATM   14  C   UNL     1      -8.624  12.605  67.877  1.00  0.00    -0.181 C  
BRANCH  14  15
HETATM   15  C   UNL     1      -8.436  14.115  67.957  1.00  0.00    -0.171 C  
BRANCH  15  16
HETATM   16  C   UNL     1      -8.729  14.730  66.589  1.00  0.00    -0.229 C  
BRANCH  16  17
HETATM   17  C   UNL     1      -9.130  16.193  66.709  1.00  0.00    -0.257 C  
HETATM   18  C   UNL     1     -10.148  16.579  65.663  1.00  0.00    -0.251 C  
HETATM   19  O   UNL     1     -10.609  15.834  64.812  1.00  0.00    -0.504 OA 
HETATM   20  O   UNL     1     -10.514  17.879  65.761  1.00  0.00    -0.564 OA 
ENDBRANCH  16  17
ENDBRANCH  15  16
ENDBRANCH  14  15
ENDBRANCH  13  14
ENDBRANCH  11  12
ENDBRANCH  10  11
ENDBRANCH   8   9
ENDBRANCH   7   8
ENDBRANCH   5   6
ENDBRANCH   4   5
ENDBRANCH   3   4
ENDBRANCH   2   3
TORSDOF 12
ENDMDL
MODEL       69
REMARK 921   NORMALIZED FREE ENERGY PREDICTED BY IDOCK:   -4.39 KCAL/MOL
REMARK 922        TOTAL FREE ENERGY PREDICTED BY IDOCK:   -9.43 KCAL/MOL
REMARK 923 INTER-LIGAND FREE ENERGY PREDICTED BY IDOCK:   -7.25 KCAL/MOL
REMARK 924 INTRA-LIGAND FREE ENERGY PREDICTED BY IDOCK:   -2.18 KCAL/MOL
REMARK 927      BINDING AFFINITY PREDICTED BY RF-SCORE:    0.00 PKD
ROOT
HETATM    1  C   UNL     1     -11.952  15.116  69.426  1.00  0.00    -0.337 C  
HETATM    2  C   UNL     1     -12.060  13.849  70.255  1.00  0.00    -0.423 C  
ENDROOT
BRANCH   2   3
HETATM    3  C   UNL     1     -12.829  14.101  71.546  1.00  0.00    -0.430 C  
BRANCH   3   4
HETATM    4  C   UNL     1     -13.426  12.806  72.094  1.00  0.00    -0.591 C  
BRANCH   4   5
HETATM    5  C   UNL     1     -12.889  11.621  71.303  1.00  0.00    -0.430 C  
BRANCH   5   6
HETATM    6  C   UNL     1     -13.230  10.294  71.913  1.00  0.00    -0.550 C  
HETATM    7  C   UNL     1     -12.372   9.261  71.911  1.00  0.00    -0.454 C  
BRANCH   7   8
HETATM    8  C   UNL     1     -11.009   9.302  71.289  1.00  0.00    -0.421 C  
BRANCH   8   9
HETATM    9  C   UNL     1     -10.258   8.024  71.502  1.00  0.00    -0.243 C  
HETATM   10  C   UNL     1     -10.325   6.956  70.693  1.00  0.00    -0.220 C  
BRANCH  10  11
HETATM   11  C   UNL     1     -11.231   6.836  69.505  1.00  0.00    -0.319 C  
BRANCH  11  12
HETATM   12  C   UNL     1     -10.453   6.657  68.232  1.00  0.00    -0.249 C  
HETATM   13  C   UNL     1     -10.169   7.640  67.363  1.00  0.00    -0.320 C  
BRANCH  13  14
HETATM   14  C   UNL     1     -10.625   9.051  67.576  1.00  0.00    -0.306 C  
BRANCH  14  15
HETATM   15  C   UNL     1      -9.516   9.994  68.024  1.00  0.00    -0.150 C  
BRANCH  15  16
HETATM   16  C   UNL     1     -10.119  11.364  68.338  1.00  0.00    -0.207 C  
BRANCH  16  17
HETATM   17  C   UNL     1     -11.454  11.560  67.636  1.00  0.00    -0.357 C  
HETATM   18  C   UNL     1     -11.310  12.401  66.391  1.00  0.00    -0.342 C  
HETATM   19  O   UNL     1     -10.266  12.881  65.974  1.00  0.00    -0.273 OA 
HETATM   20  O   UNL     1     -12.492  12.581  65.756  1.00  0.00    -0.626 OA 
ENDBRANCH  16  17
ENDBRANCH  15  16
ENDBRANCH  14  15
ENDBRANCH  13  14
ENDBRANCH  11  12
ENDBRANCH  10  11
ENDBRANCH   8   9
ENDBRANCH   7   8
ENDBRANCH   5   6
ENDBRANCH   4   5
ENDBRANCH   3   4
ENDBRANCH   2   3
TORSDOF 12
ENDMDL
MODEL       70
REMARK 921   NORMALIZED FREE ENERGY PREDICTED BY IDOCK:   -4.38 KCAL/MOL
REMARK 922        TOTAL FREE ENERGY PREDICTED BY IDOCK:   -9.41 KCAL/MOL
REMARK 923 INTER-LIGAND FREE ENERGY PREDICTED BY IDOCK:   -7.10 KCAL/MOL
REMARK 924 INTRA-LIGAND FREE ENERGY PREDICTED BY IDOCK:   -2.31 KCAL/MOL
REMARK 927      BINDING AFFINITY PREDICTED BY RF-SCORE:    0.00 PKD
ROOT
HETATM    1  C   UNL     1     -14.347   7.466  71.339  1.00  0.00    -0.522 C  
HETATM    2  C   UNL     1     -12.981   7.216  71.953  1.00  0.00    -0.285 C  
ENDROOT
BRANCH   2   3
HETATM    3  C   UNL     1     -12.368   8.510  72.475  1.00  0.00    -0.372 C  
BRANCH   3   4
HETATM    4  C   UNL     1     -13.271   9.707  72.180  1.00  0.00    -0.535 C  
BRANCH   4   5
HETATM    5  C   UNL     1     -12.450  10.819  71.540  1.00  0.00    -0.447 C  
BRANCH   5   6
HETATM    6  C   UNL     1     -12.513  10.818  70.041  1.00  0.00    -0.317 C  
HETATM    7  C   UNL     1     -11.480  10.426  69.279  1.00  0.00    -0.281 C  
BRANCH   7   8
HETATM    8  C   UNL     1     -10.158   9.975  69.823  1.00  0.00    -0.284 C  
BRANCH   8   9
HETATM    9  C   UNL     1     -10.004   8.487  69.758  1.00  0.00    -0.191 C  
HETATM   10  C   UNL     1      -9.286   7.834  68.832  1.00  0.00    -0.140 C  
BRANCH  10  11
HETATM   11  C   UNL     1      -8.604   8.479  67.664  1.00  0.00    -0.133 C  
BRANCH  11  12
HETATM   12  C   UNL     1      -9.532   8.616  66.489  1.00  0.00    -0.278 C  
HETATM   13  C   UNL     1      -9.664   9.724  65.743  1.00  0.00    -0.340 C  
BRANCH  13  14
HETATM   14  C   UNL     1      -8.887  10.974  66.024  1.00  0.00    -0.199 C  
BRANCH  14  15
HETATM   15  C   UNL     1      -9.732  12.111  66.584  1.00  0.00    -0.228 C  
BRANCH  15  16
HETATM   16  C   UNL     1     -11.178  11.937  66.119  1.00  0.00    -0.387 C  
BRANCH  16  17
HETATM   17  C   UNL     1     -11.720  13.214  65.493  1.00  0.00    -0.393 C  
HETATM   18  C   UNL     1     -12.101  13.006  64.047  1.00  0.00    -0.450 C  
HETATM   19  O   UNL     1     -11.997  11.957  63.428  1.00  0.00    -0.483 OA 
HETATM   20  O   UNL     1     -12.586  14.135  63.478  1.00  0.00    -0.834 OA 
ENDBRANCH  16  17
ENDBRANCH  15  16
ENDBRANCH  14  15
ENDBRANCH  13  14
ENDBRANCH  11  12
ENDBRANCH  10  11
ENDBRANCH   8   9
ENDBRANCH   7   8
ENDBRANCH   5   6
ENDBRANCH   4   5
ENDBRANCH   3   4
ENDBRANCH   2   3
TORSDOF 12
ENDMDL
MODEL       71
REMARK 921   NORMALIZED FREE ENERGY PREDICTED BY IDOCK:   -4.38 KCAL/MOL
REMARK 922        TOTAL FREE ENERGY PREDICTED BY IDOCK:   -9.40 KCAL/MOL
REMARK 923 INTER-LIGAND FREE ENERGY PREDICTED BY IDOCK:   -7.46 KCAL/MOL
REMARK 924 INTRA-LIGAND FREE ENERGY PREDICTED BY IDOCK:   -1.95 KCAL/MOL
REMARK 927      BINDING AFFINITY PREDICTED BY RF-SCORE:    0.00 PKD
ROOT
HETATM    1  C   UNL     1      -6.971  18.463  68.823  1.00  0.00    -0.291 C  
HETATM    2  C   UNL     1      -6.572  19.327  67.640  1.00  0.00    -0.228 C  
ENDROOT
BRANCH   2   3
HETATM    3  C   UNL     1      -7.683  20.302  67.272  1.00  0.00    -0.357 C  
BRANCH   3   4
HETATM    4  C   UNL     1      -8.355  19.904  65.959  1.00  0.00    -0.298 C  
BRANCH   4   5
HETATM    5  C   UNL     1      -9.867  19.916  66.136  1.00  0.00    -0.562 C  
BRANCH   5   6
HETATM    6  C   UNL     1     -10.325  19.233  67.390  1.00  0.00    -0.540 C  
HETATM    7  C   UNL     1     -10.531  17.908  67.453  1.00  0.00    -0.390 C  
BRANCH   7   8
HETATM    8  C   UNL     1     -10.356  16.975  66.293  1.00  0.00    -0.309 C  
BRANCH   8   9
HETATM    9  C   UNL     1      -9.016  16.307  66.309  1.00  0.00    -0.366 C  
HETATM   10  C   UNL     1      -8.658  15.334  67.160  1.00  0.00    -0.236 C  
BRANCH  10  11
HETATM   11  C   UNL     1      -9.505  14.827  68.287  1.00  0.00    -0.207 C  
BRANCH  11  12
HETATM   12  C   UNL     1      -9.947  13.409  68.054  1.00  0.00    -0.239 C  
HETATM   13  C   UNL     1     -11.111  13.053  67.489  1.00  0.00    -0.297 C  
BRANCH  13  14
HETATM   14  C   UNL     1     -12.121  14.062  67.037  1.00  0.00    -0.455 C  
BRANCH  14  15
HETATM   15  C   UNL     1     -12.730  13.755  65.675  1.00  0.00    -0.523 C  
BRANCH  15  16
HETATM   16  C   UNL     1     -11.809  14.294  64.580  1.00  0.00    -0.459 C  
BRANCH  16  17
HETATM   17  C   UNL     1     -10.766  13.264  64.171  1.00  0.00    -0.350 C  
HETATM   18  C   UNL     1     -11.394  12.086  63.466  1.00  0.00    -0.442 C  
HETATM   19  O   UNL     1     -12.587  11.947  63.240  1.00  0.00    -0.586 OA 
HETATM   20  O   UNL     1     -10.477  11.162  63.096  1.00  0.00    -0.320 OA 
ENDBRANCH  16  17
ENDBRANCH  15  16
ENDBRANCH  14  15
ENDBRANCH  13  14
ENDBRANCH  11  12
ENDBRANCH  10  11
ENDBRANCH   8   9
ENDBRANCH   7   8
ENDBRANCH   5   6
ENDBRANCH   4   5
ENDBRANCH   3   4
ENDBRANCH   2   3
TORSDOF 12
ENDMDL
MODEL       72
REMARK 921   NORMALIZED FREE ENERGY PREDICTED BY IDOCK:   -4.38 KCAL/MOL
REMARK 922        TOTAL FREE ENERGY PREDICTED BY IDOCK:   -9.40 KCAL/MOL
REMARK 923 INTER-LIGAND FREE ENERGY PREDICTED BY IDOCK:   -7.71 KCAL/MOL
REMARK 924 INTRA-LIGAND FREE ENERGY PREDICTED BY IDOCK:   -1.70 KCAL/MOL
REMARK 927      BINDING AFFINITY PREDICTED BY RF-SCORE:    0.00 PKD
ROOT
HETATM    1  C   UNL     1      -9.247   7.616  68.644  1.00  0.00    -0.141 C  
HETATM    2  C   UNL     1     -10.314   7.820  69.704  1.00  0.00    -0.212 C  
ENDROOT
BRANCH   2   3
HETATM    3  C   UNL     1     -11.243   6.615  69.788  1.00  0.00    -0.413 C  
BRANCH   3   4
HETATM    4  C   UNL     1     -11.308   6.067  71.213  1.00  0.00    -0.296 C  
BRANCH   4   5
HETATM    5  C   UNL     1     -12.161   6.988  72.074  1.00  0.00    -0.317 C  
BRANCH   5   6
HETATM    6  C   UNL     1     -13.506   7.284  71.479  1.00  0.00    -0.439 C  
HETATM    7  C   UNL     1     -14.088   8.489  71.583  1.00  0.00    -0.482 C  
BRANCH   7   8
HETATM    8  C   UNL     1     -13.488   9.652  72.314  1.00  0.00    -0.488 C  
BRANCH   8   9
HETATM    9  C   UNL     1     -12.630  10.493  71.420  1.00  0.00    -0.539 C  
HETATM   10  C   UNL     1     -12.675  11.832  71.357  1.00  0.00    -0.413 C  
BRANCH  10  11
HETATM   11  C   UNL     1     -13.653  12.692  72.097  1.00  0.00    -0.510 C  
BRANCH  11  12
HETATM   12  C   UNL     1     -12.976  13.861  72.755  1.00  0.00    -0.414 C  
HETATM   13  C   UNL     1     -12.745  15.044  72.164  1.00  0.00    -0.406 C  
BRANCH  13  14
HETATM   14  C   UNL     1     -13.139  15.319  70.745  1.00  0.00    -0.468 C  
BRANCH  14  15
HETATM   15  C   UNL     1     -11.979  15.745  69.855  1.00  0.00    -0.346 C  
BRANCH  15  16
HETATM   16  C   UNL     1     -11.229  14.501  69.379  1.00  0.00    -0.312 C  
BRANCH  16  17
HETATM   17  C   UNL     1     -11.941  13.833  68.211  1.00  0.00    -0.392 C  
HETATM   18  C   UNL     1     -11.361  12.472  67.911  1.00  0.00    -0.291 C  
HETATM   19  O   UNL     1     -10.434  11.946  68.510  1.00  0.00    -0.213 OA 
HETATM   20  O   UNL     1     -11.987  11.867  66.875  1.00  0.00    -0.614 OA 
ENDBRANCH  16  17
ENDBRANCH  15  16
ENDBRANCH  14  15
ENDBRANCH  13  14
ENDBRANCH  11  12
ENDBRANCH  10  11
ENDBRANCH   8   9
ENDBRANCH   7   8
ENDBRANCH   5   6
ENDBRANCH   4   5
ENDBRANCH   3   4
ENDBRANCH   2   3
TORSDOF 12
ENDMDL
MODEL       73
REMARK 921   NORMALIZED FREE ENERGY PREDICTED BY IDOCK:   -4.37 KCAL/MOL
REMARK 922        TOTAL FREE ENERGY PREDICTED BY IDOCK:   -9.39 KCAL/MOL
REMARK 923 INTER-LIGAND FREE ENERGY PREDICTED BY IDOCK:   -7.04 KCAL/MOL
REMARK 924 INTRA-LIGAND FREE ENERGY PREDICTED BY IDOCK:   -2.35 KCAL/MOL
REMARK 927      BINDING AFFINITY PREDICTED BY RF-SCORE:    0.00 PKD
ROOT
HETATM    1  C   UNL     1     -11.137  14.877  64.866  1.00  0.00    -0.424 C  
HETATM    2  C   UNL     1     -11.503  13.487  64.377  1.00  0.00    -0.422 C  
ENDROOT
BRANCH   2   3
HETATM    3  C   UNL     1     -12.251  12.706  65.451  1.00  0.00    -0.517 C  
BRANCH   3   4
HETATM    4  C   UNL     1     -12.090  13.361  66.822  1.00  0.00    -0.419 C  
BRANCH   4   5
HETATM    5  C   UNL     1     -11.713  12.304  67.851  1.00  0.00    -0.410 C  
BRANCH   5   6
HETATM    6  C   UNL     1     -11.161  11.050  67.241  1.00  0.00    -0.359 C  
HETATM    7  C   UNL     1      -9.941  10.579  67.546  1.00  0.00    -0.204 C  
BRANCH   7   8
HETATM    8  C   UNL     1      -8.994  11.250  68.495  1.00  0.00    -0.166 C  
BRANCH   8   9
HETATM    9  C   UNL     1      -7.781  11.779  67.794  1.00  0.00    -0.133 C  
HETATM   10  C   UNL     1      -7.598  13.061  67.445  1.00  0.00    -0.141 C  
BRANCH  10  11
HETATM   11  C   UNL     1      -8.616  14.148  67.614  1.00  0.00    -0.191 C  
BRANCH  11  12
HETATM   12  C   UNL     1      -8.532  14.778  68.976  1.00  0.00    -0.140 C  
HETATM   13  C   UNL     1      -9.383  15.704  69.445  1.00  0.00    -0.279 C  
BRANCH  13  14
HETATM   14  C   UNL     1     -10.526  16.226  68.628  1.00  0.00    -0.282 C  
BRANCH  14  15
HETATM   15  C   UNL     1     -11.891  15.749  69.105  1.00  0.00    -0.367 C  
BRANCH  15  16
HETATM   16  C   UNL     1     -11.880  15.640  70.630  1.00  0.00    -0.409 C  
BRANCH  16  17
HETATM   17  C   UNL     1     -12.513  14.339  71.101  1.00  0.00    -0.433 C  
HETATM   18  C   UNL     1     -13.564  14.580  72.157  1.00  0.00    -0.419 C  
HETATM   19  O   UNL     1     -13.886  15.672  72.601  1.00  0.00    -0.552 OA 
HETATM   20  O   UNL     1     -14.135  13.430  72.583  1.00  0.00    -0.767 OA 
ENDBRANCH  16  17
ENDBRANCH  15  16
ENDBRANCH  14  15
ENDBRANCH  13  14
ENDBRANCH  11  12
ENDBRANCH  10  11
ENDBRANCH   8   9
ENDBRANCH   7   8
ENDBRANCH   5   6
ENDBRANCH   4   5
ENDBRANCH   3   4
ENDBRANCH   2   3
TORSDOF 12
ENDMDL
MODEL       74
REMARK 921   NORMALIZED FREE ENERGY PREDICTED BY IDOCK:   -4.36 KCAL/MOL
REMARK 922        TOTAL FREE ENERGY PREDICTED BY IDOCK:   -9.37 KCAL/MOL
REMARK 923 INTER-LIGAND FREE ENERGY PREDICTED BY IDOCK:   -7.23 KCAL/MOL
REMARK 924 INTRA-LIGAND FREE ENERGY PREDICTED BY IDOCK:   -2.14 KCAL/MOL
REMARK 927      BINDING AFFINITY PREDICTED BY RF-SCORE:    0.00 PKD
ROOT
HETATM    1  C   UNL     1      -6.430  18.635  67.495  1.00  0.00    -0.197 C  
HETATM    2  C   UNL     1      -7.318  19.660  68.178  1.00  0.00    -0.337 C  
ENDROOT
BRANCH   2   3
HETATM    3  C   UNL     1      -8.541  19.981  67.327  1.00  0.00    -0.399 C  
BRANCH   3   4
HETATM    4  C   UNL     1      -9.822  19.921  68.157  1.00  0.00    -0.524 C  
BRANCH   4   5
HETATM    5  C   UNL     1     -10.892  19.158  67.389  1.00  0.00    -0.533 C  
BRANCH   5   6
HETATM    6  C   UNL     1     -10.383  18.526  66.127  1.00  0.00    -0.457 C  
HETATM    7  C   UNL     1     -10.252  17.197  65.991  1.00  0.00    -0.332 C  
BRANCH   7   8
HETATM    8  C   UNL     1     -10.569  16.207  67.071  1.00  0.00    -0.292 C  
BRANCH   8   9
HETATM    9  C   UNL     1      -9.587  16.274  68.198  1.00  0.00    -0.219 C  
HETATM   10  C   UNL     1      -8.457  15.555  68.271  1.00  0.00    -0.156 C  
BRANCH  10  11
HETATM   11  C   UNL     1      -8.047  14.502  67.287  1.00  0.00    -0.219 C  
BRANCH  11  12
HETATM   12  C   UNL     1      -7.928  13.152  67.937  1.00  0.00    -0.158 C  
HETATM   13  C   UNL     1      -8.926  12.260  68.037  1.00  0.00    -0.190 C  
BRANCH  13  14
HETATM   14  C   UNL     1     -10.300  12.534  67.507  1.00  0.00    -0.225 C  
BRANCH  14  15
HETATM   15  C   UNL     1     -10.898  11.377  66.719  1.00  0.00    -0.336 C  
BRANCH  15  16
HETATM   16  C   UNL     1     -10.744  11.655  65.223  1.00  0.00    -0.346 C  
BRANCH  16  17
HETATM   17  C   UNL     1     -10.983  13.123  64.901  1.00  0.00    -0.337 C  
HETATM   18  C   UNL     1     -12.277  13.325  64.150  1.00  0.00    -0.401 C  
HETATM   19  O   UNL     1     -13.054  12.440  63.824  1.00  0.00    -0.756 OA 
HETATM   20  O   UNL     1     -12.501  14.627  63.859  1.00  0.00    -0.813 OA 
ENDBRANCH  16  17
ENDBRANCH  15  16
ENDBRANCH  14  15
ENDBRANCH  13  14
ENDBRANCH  11  12
ENDBRANCH  10  11
ENDBRANCH   8   9
ENDBRANCH   7   8
ENDBRANCH   5   6
ENDBRANCH   4   5
ENDBRANCH   3   4
ENDBRANCH   2   3
TORSDOF 12
ENDMDL
MODEL       75
REMARK 921   NORMALIZED FREE ENERGY PREDICTED BY IDOCK:   -4.34 KCAL/MOL
REMARK 922        TOTAL FREE ENERGY PREDICTED BY IDOCK:   -9.35 KCAL/MOL
REMARK 923 INTER-LIGAND FREE ENERGY PREDICTED BY IDOCK:   -7.21 KCAL/MOL
REMARK 924 INTRA-LIGAND FREE ENERGY PREDICTED BY IDOCK:   -2.14 KCAL/MOL
REMARK 927      BINDING AFFINITY PREDICTED BY RF-SCORE:    0.00 PKD
ROOT
HETATM    1  C   UNL     1     -12.398  10.152  71.578  1.00  0.00    -0.505 C  
HETATM    2  C   UNL     1     -11.658  10.579  70.322  1.00  0.00    -0.417 C  
ENDROOT
BRANCH   2   3
HETATM    3  C   UNL     1     -11.789  12.080  70.092  1.00  0.00    -0.383 C  
BRANCH   3   4
HETATM    4  C   UNL     1     -11.886  12.403  68.602  1.00  0.00    -0.348 C  
BRANCH   4   5
HETATM    5  C   UNL     1     -10.823  11.623  67.841  1.00  0.00    -0.255 C  
BRANCH   5   6
HETATM    6  C   UNL     1      -9.517  12.351  67.727  1.00  0.00    -0.199 C  
HETATM    7  C   UNL     1      -8.334  11.719  67.778  1.00  0.00    -0.146 C  
BRANCH   7   8
HETATM    8  C   UNL     1      -8.180  10.240  67.975  1.00  0.00    -0.113 C  
BRANCH   8   9
HETATM    9  C   UNL     1      -7.329   9.620  66.910  1.00  0.00    -0.091 C  
HETATM   10  C   UNL     1      -7.755   9.307  65.677  1.00  0.00    -0.095 C  
BRANCH  10  11
HETATM   11  C   UNL     1      -9.170   9.439  65.202  1.00  0.00    -0.287 C  
BRANCH  11  12
HETATM   12  C   UNL     1      -9.237  10.037  63.824  1.00  0.00    -0.314 C  
HETATM   13  C   UNL     1     -10.111  10.981  63.441  1.00  0.00    -0.424 C  
BRANCH  13  14
HETATM   14  C   UNL     1     -11.145  11.538  64.371  1.00  0.00    -0.359 C  
BRANCH  14  15
HETATM   15  C   UNL     1     -12.042  12.591  63.735  1.00  0.00    -0.615 C  
BRANCH  15  16
HETATM   16  C   UNL     1     -12.497  13.578  64.809  1.00  0.00    -0.402 C  
BRANCH  16  17
HETATM   17  C   UNL     1     -11.334  14.406  65.336  1.00  0.00    -0.339 C  
HETATM   18  C   UNL     1     -11.323  15.794  64.741  1.00  0.00    -0.314 C  
HETATM   19  O   UNL     1     -12.132  16.227  63.934  1.00  0.00    -0.986 OA 
HETATM   20  O   UNL     1     -10.293  16.540  65.203  1.00  0.00    -0.618 OA 
ENDBRANCH  16  17
ENDBRANCH  15  16
ENDBRANCH  14  15
ENDBRANCH  13  14
ENDBRANCH  11  12
ENDBRANCH  10  11
ENDBRANCH   8   9
ENDBRANCH   7   8
ENDBRANCH   5   6
ENDBRANCH   4   5
ENDBRANCH   3   4
ENDBRANCH   2   3
TORSDOF 12
ENDMDL
MODEL       76
REMARK 921   NORMALIZED FREE ENERGY PREDICTED BY IDOCK:   -4.34 KCAL/MOL
REMARK 922        TOTAL FREE ENERGY PREDICTED BY IDOCK:   -9.34 KCAL/MOL
REMARK 923 INTER-LIGAND FREE ENERGY PREDICTED BY IDOCK:   -6.96 KCAL/MOL
REMARK 924 INTRA-LIGAND FREE ENERGY PREDICTED BY IDOCK:   -2.37 KCAL/MOL
REMARK 927      BINDING AFFINITY PREDICTED BY RF-SCORE:    0.00 PKD
ROOT
HETATM    1  C   UNL     1     -13.443   9.406  71.630  1.00  0.00    -0.467 C  
HETATM    2  C   UNL     1     -13.083  10.877  71.730  1.00  0.00    -0.564 C  
ENDROOT
BRANCH   2   3
HETATM    3  C   UNL     1     -12.408  11.366  70.454  1.00  0.00    -0.404 C  
BRANCH   3   4
HETATM    4  C   UNL     1     -11.237  10.463  70.068  1.00  0.00    -0.385 C  
BRANCH   4   5
HETATM    5  C   UNL     1     -11.104  10.422  68.552  1.00  0.00    -0.318 C  
BRANCH   5   6
HETATM    6  C   UNL     1      -9.680  10.406  68.080  1.00  0.00    -0.166 C  
HETATM    7  C   UNL     1      -9.355  10.376  66.778  1.00  0.00    -0.181 C  
BRANCH   7   8
HETATM    8  C   UNL     1     -10.356  10.331  65.663  1.00  0.00    -0.232 C  
BRANCH   8   9
HETATM    9  C   UNL     1      -9.756  10.750  64.356  1.00  0.00    -0.356 C  
HETATM   10  C   UNL     1     -10.389  11.480  63.425  1.00  0.00    -0.469 C  
BRANCH  10  11
HETATM   11  C   UNL     1     -11.822  11.910  63.502  1.00  0.00    -0.560 C  
BRANCH  11  12
HETATM   12  C   UNL     1     -11.944  13.398  63.679  1.00  0.00    -0.504 C  
HETATM   13  C   UNL     1     -12.182  14.013  64.848  1.00  0.00    -0.455 C  
BRANCH  13  14
HETATM   14  C   UNL     1     -12.368  13.255  66.126  1.00  0.00    -0.423 C  
BRANCH  14  15
HETATM   15  C   UNL     1     -11.546  13.797  67.288  1.00  0.00    -0.391 C  
BRANCH  15  16
HETATM   16  C   UNL     1     -10.127  14.096  66.802  1.00  0.00    -0.262 C  
BRANCH  16  17
HETATM   17  C   UNL     1      -9.149  14.194  67.964  1.00  0.00    -0.191 C  
HETATM   18  C   UNL     1      -9.119  15.586  68.550  1.00  0.00    -0.196 C  
HETATM   19  O   UNL     1      -9.782  16.535  68.159  1.00  0.00    -0.227 OA 
HETATM   20  O   UNL     1      -8.253  15.686  69.585  1.00  0.00    -0.213 OA 
ENDBRANCH  16  17
ENDBRANCH  15  16
ENDBRANCH  14  15
ENDBRANCH  13  14
ENDBRANCH  11  12
ENDBRANCH  10  11
ENDBRANCH   8   9
ENDBRANCH   7   8
ENDBRANCH   5   6
ENDBRANCH   4   5
ENDBRANCH   3   4
ENDBRANCH   2   3
TORSDOF 12
ENDMDL
MODEL       77
REMARK 921   NORMALIZED FREE ENERGY PREDICTED BY IDOCK:   -4.34 KCAL/MOL
REMARK 922        TOTAL FREE ENERGY PREDICTED BY IDOCK:   -9.33 KCAL/MOL
REMARK 923 INTER-LIGAND FREE ENERGY PREDICTED BY IDOCK:   -7.25 KCAL/MOL
REMARK 924 INTRA-LIGAND FREE ENERGY PREDICTED BY IDOCK:   -2.08 KCAL/MOL
REMARK 927      BINDING AFFINITY PREDICTED BY RF-SCORE:    0.00 PKD
ROOT
HETATM    1  C   UNL     1     -12.033   6.913  72.053  1.00  0.00    -0.342 C  
HETATM    2  C   UNL     1     -11.717   7.894  70.938  1.00  0.00    -0.271 C  
ENDROOT
BRANCH   2   3
HETATM    3  C   UNL     1     -10.684   8.921  71.386  1.00  0.00    -0.382 C  
BRANCH   3   4
HETATM    4  C   UNL     1     -10.334   9.883  70.252  1.00  0.00    -0.339 C  
BRANCH   4   5
HETATM    5  C   UNL     1     -11.611  10.488  69.685  1.00  0.00    -0.342 C  
BRANCH   5   6
HETATM    6  C   UNL     1     -11.803  11.929  70.057  1.00  0.00    -0.407 C  
HETATM    7  C   UNL     1     -11.823  12.911  69.142  1.00  0.00    -0.353 C  
BRANCH   7   8
HETATM    8  C   UNL     1     -11.635  12.692  67.671  1.00  0.00    -0.414 C  
BRANCH   8   9
HETATM    9  C   UNL     1     -12.004  13.904  66.873  1.00  0.00    -0.467 C  
HETATM   10  C   UNL     1     -12.478  13.878  65.618  1.00  0.00    -0.538 C  
BRANCH  10  11
HETATM   11  C   UNL     1     -12.623  12.642  64.784  1.00  0.00    -0.530 C  
BRANCH  11  12
HETATM   12  C   UNL     1     -11.717  12.675  63.585  1.00  0.00    -0.597 C  
HETATM   13  C   UNL     1     -10.685  11.840  63.381  1.00  0.00    -0.468 C  
BRANCH  13  14
HETATM   14  C   UNL     1     -10.317  10.771  64.363  1.00  0.00    -0.405 C  
BRANCH  14  15
HETATM   15  C   UNL     1      -9.292  11.214  65.399  1.00  0.00    -0.243 C  
BRANCH  15  16
HETATM   16  C   UNL     1      -9.114  10.104  66.436  1.00  0.00    -0.176 C  
BRANCH  16  17
HETATM   17  C   UNL     1     -10.331   9.193  66.492  1.00  0.00    -0.269 C  
HETATM   18  C   UNL     1     -10.004   7.865  67.132  1.00  0.00    -0.230 C  
HETATM   19  O   UNL     1      -8.907   7.533  67.558  1.00  0.00    -0.127 OA 
HETATM   20  O   UNL     1     -11.079   7.046  67.188  1.00  0.00    -0.350 OA 
ENDBRANCH  16  17
ENDBRANCH  15  16
ENDBRANCH  14  15
ENDBRANCH  13  14
ENDBRANCH  11  12
ENDBRANCH  10  11
ENDBRANCH   8   9
ENDBRANCH   7   8
ENDBRANCH   5   6
ENDBRANCH   4   5
ENDBRANCH   3   4
ENDBRANCH   2   3
TORSDOF 12
ENDMDL
MODEL       78
REMARK 921   NORMALIZED FREE ENERGY PREDICTED BY IDOCK:   -4.33 KCAL/MOL
REMARK 922        TOTAL FREE ENERGY PREDICTED BY IDOCK:   -9.33 KCAL/MOL
REMARK 923 INTER-LIGAND FREE ENERGY PREDICTED BY IDOCK:   -7.82 KCAL/MOL
REMARK 924 INTRA-LIGAND FREE ENERGY PREDICTED BY IDOCK:   -1.51 KCAL/MOL
REMARK 927      BINDING AFFINITY PREDICTED BY RF-SCORE:    0.00 PKD
ROOT
HETATM    1  C   UNL     1     -11.746  16.114  71.959  1.00  0.00    -0.574 C  
HETATM    2  C   UNL     1     -12.327  14.756  71.605  1.00  0.00    -0.409 C  
ENDROOT
BRANCH   2   3
HETATM    3  C   UNL     1     -13.412  14.348  72.595  1.00  0.00    -0.605 C  
BRANCH   3   4
HETATM    4  C   UNL     1     -13.888  12.920  72.334  1.00  0.00    -0.443 C  
BRANCH   4   5
HETATM    5  C   UNL     1     -12.904  12.215  71.411  1.00  0.00    -0.378 C  
BRANCH   5   6
HETATM    6  C   UNL     1     -12.797  10.741  71.668  1.00  0.00    -0.562 C  
HETATM    7  C   UNL     1     -11.910   9.962  71.027  1.00  0.00    -0.463 C  
BRANCH   7   8
HETATM    8  C   UNL     1     -10.958  10.458  69.982  1.00  0.00    -0.370 C  
BRANCH   8   9
HETATM    9  C   UNL     1     -10.654   9.409  68.958  1.00  0.00    -0.233 C  
HETATM   10  C   UNL     1     -10.621   9.620  67.634  1.00  0.00    -0.334 C  
BRANCH  10  11
HETATM   11  C   UNL     1     -10.975  10.913  66.964  1.00  0.00    -0.310 C  
BRANCH  11  12
HETATM   12  C   UNL     1     -10.362  11.013  65.595  1.00  0.00    -0.311 C  
HETATM   13  C   UNL     1     -10.878  11.715  64.574  1.00  0.00    -0.383 C  
BRANCH  13  14
HETATM   14  C   UNL     1     -12.162  12.478  64.697  1.00  0.00    -0.524 C  
BRANCH  14  15
HETATM   15  C   UNL     1     -12.074  13.914  64.197  1.00  0.00    -0.464 C  
BRANCH  15  16
HETATM   16  C   UNL     1     -10.921  14.623  64.907  1.00  0.00    -0.419 C  
BRANCH  16  17
HETATM   17  C   UNL     1     -11.237  14.869  66.375  1.00  0.00    -0.331 C  
HETATM   18  C   UNL     1     -10.084  14.476  67.267  1.00  0.00    -0.247 C  
HETATM   19  O   UNL     1      -9.019  14.012  66.887  1.00  0.00    -0.234 OA 
HETATM   20  O   UNL     1     -10.353  14.691  68.575  1.00  0.00    -0.225 OA 
ENDBRANCH  16  17
ENDBRANCH  15  16
ENDBRANCH  14  15
ENDBRANCH  13  14
ENDBRANCH  11  12
ENDBRANCH  10  11
ENDBRANCH   8   9
ENDBRANCH   7   8
ENDBRANCH   5   6
ENDBRANCH   4   5
ENDBRANCH   3   4
ENDBRANCH   2   3
TORSDOF 12
ENDMDL
MODEL       79
REMARK 921   NORMALIZED FREE ENERGY PREDICTED BY IDOCK:   -4.33 KCAL/MOL
REMARK 922        TOTAL FREE ENERGY PREDICTED BY IDOCK:   -9.32 KCAL/MOL
REMARK 923 INTER-LIGAND FREE ENERGY PREDICTED BY IDOCK:   -7.45 KCAL/MOL
REMARK 924 INTRA-LIGAND FREE ENERGY PREDICTED BY IDOCK:   -1.87 KCAL/MOL
REMARK 927      BINDING AFFINITY PREDICTED BY RF-SCORE:    0.00 PKD
ROOT
HETATM    1  C   UNL     1      -9.709   8.882  66.004  1.00  0.00    -0.308 C  
HETATM    2  C   UNL     1      -9.753   7.517  66.668  1.00  0.00    -0.273 C  
ENDROOT
BRANCH   2   3
HETATM    3  C   UNL     1     -10.942   7.405  67.614  1.00  0.00    -0.136 C  
BRANCH   3   4
HETATM    4  C   UNL     1     -10.708   6.324  68.668  1.00  0.00    -0.357 C  
BRANCH   4   5
HETATM    5  C   UNL     1     -10.327   6.975  69.991  1.00  0.00    -0.217 C  
BRANCH   5   6
HETATM    6  C   UNL     1     -10.774   6.193  71.190  1.00  0.00    -0.312 C  
HETATM    7  C   UNL     1     -11.974   6.377  71.763  1.00  0.00    -0.370 C  
BRANCH   7   8
HETATM    8  C   UNL     1     -12.982   7.384  71.295  1.00  0.00    -0.358 C  
BRANCH   8   9
HETATM    9  C   UNL     1     -13.179   8.483  72.294  1.00  0.00    -0.361 C  
HETATM   10  C   UNL     1     -13.134   9.792  72.007  1.00  0.00    -0.546 C  
BRANCH  10  11
HETATM   11  C   UNL     1     -12.784  10.364  70.667  1.00  0.00    -0.417 C  
BRANCH  11  12
HETATM   12  C   UNL     1     -11.302  10.330  70.421  1.00  0.00    -0.410 C  
HETATM   13  C   UNL     1     -10.702  10.752  69.296  1.00  0.00    -0.268 C  
BRANCH  13  14
HETATM   14  C   UNL     1     -11.475  11.301  68.136  1.00  0.00    -0.376 C  
BRANCH  14  15
HETATM   15  C   UNL     1     -11.208  12.774  67.861  1.00  0.00    -0.315 C  
BRANCH  15  16
HETATM   16  C   UNL     1     -12.183  13.271  66.793  1.00  0.00    -0.340 C  
BRANCH  16  17
HETATM   17  C   UNL     1     -11.930  12.599  65.451  1.00  0.00    -0.496 C  
HETATM   18  C   UNL     1     -12.232  13.526  64.298  1.00  0.00    -0.396 C  
HETATM   19  O   UNL     1     -12.635  14.676  64.399  1.00  0.00    -0.662 OA 
HETATM   20  O   UNL     1     -12.010  12.941  63.099  1.00  0.00    -0.529 OA 
ENDBRANCH  16  17
ENDBRANCH  15  16
ENDBRANCH  14  15
ENDBRANCH  13  14
ENDBRANCH  11  12
ENDBRANCH  10  11
ENDBRANCH   8   9
ENDBRANCH   7   8
ENDBRANCH   5   6
ENDBRANCH   4   5
ENDBRANCH   3   4
ENDBRANCH   2   3
TORSDOF 12
ENDMDL
MODEL       80
REMARK 921   NORMALIZED FREE ENERGY PREDICTED BY IDOCK:   -4.32 KCAL/MOL
REMARK 922        TOTAL FREE ENERGY PREDICTED BY IDOCK:   -9.31 KCAL/MOL
REMARK 923 INTER-LIGAND FREE ENERGY PREDICTED BY IDOCK:   -7.49 KCAL/MOL
REMARK 924 INTRA-LIGAND FREE ENERGY PREDICTED BY IDOCK:   -1.82 KCAL/MOL
REMARK 927      BINDING AFFINITY PREDICTED BY RF-SCORE:    0.00 PKD
ROOT
HETATM    1  C   UNL     1     -12.201  14.388  64.237  1.00  0.00    -0.450 C  
HETATM    2  C   UNL     1     -12.586  12.971  64.624  1.00  0.00    -0.425 C  
ENDROOT
BRANCH   2   3
HETATM    3  C   UNL     1     -12.180  11.976  63.542  1.00  0.00    -0.653 C  
BRANCH   3   4
HETATM    4  C   UNL     1     -10.681  11.686  63.593  1.00  0.00    -0.500 C  
BRANCH   4   5
HETATM    5  C   UNL     1     -10.293  11.253  65.001  1.00  0.00    -0.359 C  
BRANCH   5   6
HETATM    6  C   UNL     1      -9.560   9.945  65.041  1.00  0.00    -0.364 C  
HETATM    7  C   UNL     1      -9.682   9.084  66.064  1.00  0.00    -0.339 C  
BRANCH   7   8
HETATM    8  C   UNL     1     -10.529   9.334  67.275  1.00  0.00    -0.334 C  
BRANCH   8   9
HETATM    9  C   UNL     1      -9.767  10.039  68.355  1.00  0.00    -0.157 C  
HETATM   10  C   UNL     1     -10.301  10.916  69.218  1.00  0.00    -0.211 C  
BRANCH  10  11
HETATM   11  C   UNL     1     -11.719  11.401  69.179  1.00  0.00    -0.410 C  
BRANCH  11  12
HETATM   12  C   UNL     1     -11.906  12.481  68.150  1.00  0.00    -0.371 C  
HETATM   13  C   UNL     1     -11.985  13.793  68.423  1.00  0.00    -0.395 C  
BRANCH  13  14
HETATM   14  C   UNL     1     -11.905  14.325  69.821  1.00  0.00    -0.380 C  
BRANCH  14  15
HETATM   15  C   UNL     1     -11.578  15.810  69.897  1.00  0.00    -0.355 C  
BRANCH  15  16
HETATM   16  C   UNL     1     -10.378  16.106  68.996  1.00  0.00    -0.258 C  
BRANCH  16  17
HETATM   17  C   UNL     1     -10.742  17.077  67.883  1.00  0.00    -0.348 C  
HETATM   18  C   UNL     1     -10.189  16.630  66.551  1.00  0.00    -0.310 C  
HETATM   19  O   UNL     1      -9.525  15.622  66.360  1.00  0.00    -0.245 OA 
HETATM   20  O   UNL     1     -10.507  17.485  65.552  1.00  0.00    -0.628 OA 
ENDBRANCH  16  17
ENDBRANCH  15  16
ENDBRANCH  14  15
ENDBRANCH  13  14
ENDBRANCH  11  12
ENDBRANCH  10  11
ENDBRANCH   8   9
ENDBRANCH   7   8
ENDBRANCH   5   6
ENDBRANCH   4   5
ENDBRANCH   3   4
ENDBRANCH   2   3
TORSDOF 12
ENDMDL
MODEL       81
REMARK 921   NORMALIZED FREE ENERGY PREDICTED BY IDOCK:   -4.31 KCAL/MOL
REMARK 922        TOTAL FREE ENERGY PREDICTED BY IDOCK:   -9.29 KCAL/MOL
REMARK 923 INTER-LIGAND FREE ENERGY PREDICTED BY IDOCK:   -7.59 KCAL/MOL
REMARK 924 INTRA-LIGAND FREE ENERGY PREDICTED BY IDOCK:   -1.70 KCAL/MOL
REMARK 927      BINDING AFFINITY PREDICTED BY RF-SCORE:    0.00 PKD
ROOT
HETATM    1  C   UNL     1     -12.596  16.083  74.167  1.00  0.00    -0.714 C  
HETATM    2  C   UNL     1     -13.414  15.532  73.011  1.00  0.00    -0.632 C  
ENDROOT
BRANCH   2   3
HETATM    3  C   UNL     1     -12.634  14.472  72.242  1.00  0.00    -0.383 C  
BRANCH   3   4
HETATM    4  C   UNL     1     -11.645  15.112  71.269  1.00  0.00    -0.406 C  
BRANCH   4   5
HETATM    5  C   UNL     1     -11.977  14.679  69.847  1.00  0.00    -0.381 C  
BRANCH   5   6
HETATM    6  C   UNL     1     -11.731  15.750  68.826  1.00  0.00    -0.387 C  
HETATM    7  C   UNL     1     -10.750  15.661  67.914  1.00  0.00    -0.294 C  
BRANCH   7   8
HETATM    8  C   UNL     1      -9.787  14.516  67.825  1.00  0.00    -0.220 C  
BRANCH   8   9
HETATM    9  C   UNL     1      -9.808  13.870  66.475  1.00  0.00    -0.296 C  
HETATM   10  C   UNL     1     -10.600  12.843  66.132  1.00  0.00    -0.287 C  
BRANCH  10  11
HETATM   11  C   UNL     1     -11.517  12.118  67.070  1.00  0.00    -0.415 C  
BRANCH  11  12
HETATM   12  C   UNL     1     -11.101  10.686  67.253  1.00  0.00    -0.313 C  
HETATM   13  C   UNL     1     -10.925  10.085  68.441  1.00  0.00    -0.266 C  
BRANCH  13  14
HETATM   14  C   UNL     1     -11.118  10.809  69.738  1.00  0.00    -0.346 C  
BRANCH  14  15
HETATM   15  C   UNL     1     -12.555  10.795  70.242  1.00  0.00    -0.350 C  
BRANCH  15  16
HETATM   16  C   UNL     1     -12.589  10.185  71.644  1.00  0.00    -0.533 C  
BRANCH  16  17
HETATM   17  C   UNL     1     -11.565   9.069  71.792  1.00  0.00    -0.444 C  
HETATM   18  C   UNL     1     -12.192   7.710  71.599  1.00  0.00    -0.317 C  
HETATM   19  O   UNL     1     -13.371   7.499  71.356  1.00  0.00    -0.351 OA 
HETATM   20  O   UNL     1     -11.291   6.708  71.728  1.00  0.00    -0.253 OA 
ENDBRANCH  16  17
ENDBRANCH  15  16
ENDBRANCH  14  15
ENDBRANCH  13  14
ENDBRANCH  11  12
ENDBRANCH  10  11
ENDBRANCH   8   9
ENDBRANCH   7   8
ENDBRANCH   5   6
ENDBRANCH   4   5
ENDBRANCH   3   4
ENDBRANCH   2   3
TORSDOF 12
ENDMDL
MODEL       82
REMARK 921   NORMALIZED FREE ENERGY PREDICTED BY IDOCK:   -4.30 KCAL/MOL
REMARK 922        TOTAL FREE ENERGY PREDICTED BY IDOCK:   -9.27 KCAL/MOL
REMARK 923 INTER-LIGAND FREE ENERGY PREDICTED BY IDOCK:   -7.00 KCAL/MOL
REMARK 924 INTRA-LIGAND FREE ENERGY PREDICTED BY IDOCK:   -2.28 KCAL/MOL
REMARK 927      BINDING AFFINITY PREDICTED BY RF-SCORE:    0.00 PKD
ROOT
HETATM    1  C   UNL     1     -10.238   7.891  66.931  1.00  0.00    -0.380 C  
HETATM    2  C   UNL     1     -10.205   9.274  66.304  1.00  0.00    -0.273 C  
ENDROOT
BRANCH   2   3
HETATM    3  C   UNL     1      -9.142   9.359  65.216  1.00  0.00    -0.287 C  
BRANCH   3   4
HETATM    4  C   UNL     1      -9.524  10.385  64.150  1.00  0.00    -0.353 C  
BRANCH   4   5
HETATM    5  C   UNL     1     -10.711  11.206  64.635  1.00  0.00    -0.350 C  
BRANCH   5   6
HETATM    6  C   UNL     1     -11.517  11.803  63.520  1.00  0.00    -0.489 C  
HETATM    7  C   UNL     1     -12.094  13.011  63.618  1.00  0.00    -0.604 C  
BRANCH   7   8
HETATM    8  C   UNL     1     -12.024  13.880  64.838  1.00  0.00    -0.412 C  
BRANCH   8   9
HETATM    9  C   UNL     1     -10.806  14.751  64.835  1.00  0.00    -0.433 C  
HETATM   10  C   UNL     1     -10.110  15.094  65.929  1.00  0.00    -0.349 C  
BRANCH  10  11
HETATM   11  C   UNL     1     -10.494  14.740  67.334  1.00  0.00    -0.256 C  
BRANCH  11  12
HETATM   12  C   UNL     1      -9.731  13.544  67.832  1.00  0.00    -0.225 C  
HETATM   13  C   UNL     1     -10.289  12.379  68.199  1.00  0.00    -0.231 C  
BRANCH  13  14
HETATM   14  C   UNL     1     -11.769  12.155  68.160  1.00  0.00    -0.402 C  
BRANCH  14  15
HETATM   15  C   UNL     1     -12.280  11.234  69.261  1.00  0.00    -0.290 C  
BRANCH  15  16
HETATM   16  C   UNL     1     -11.159  10.284  69.681  1.00  0.00    -0.323 C  
BRANCH  16  17
HETATM   17  C   UNL     1     -11.315   9.842  71.129  1.00  0.00    -0.443 C  
HETATM   18  C   UNL     1     -11.414   8.340  71.245  1.00  0.00    -0.274 C  
HETATM   19  O   UNL     1     -11.380   7.552  70.312  1.00  0.00    -0.268 OA 
HETATM   20  O   UNL     1     -11.553   7.935  72.529  1.00  0.00    -0.352 OA 
ENDBRANCH  16  17
ENDBRANCH  15  16
ENDBRANCH  14  15
ENDBRANCH  13  14
ENDBRANCH  11  12
ENDBRANCH  10  11
ENDBRANCH   8   9
ENDBRANCH   7   8
ENDBRANCH   5   6
ENDBRANCH   4   5
ENDBRANCH   3   4
ENDBRANCH   2   3
TORSDOF 12
ENDMDL
MODEL       83
REMARK 921   NORMALIZED FREE ENERGY PREDICTED BY IDOCK:   -4.30 KCAL/MOL
REMARK 922        TOTAL FREE ENERGY PREDICTED BY IDOCK:   -9.26 KCAL/MOL
REMARK 923 INTER-LIGAND FREE ENERGY PREDICTED BY IDOCK:   -7.56 KCAL/MOL
REMARK 924 INTRA-LIGAND FREE ENERGY PREDICTED BY IDOCK:   -1.70 KCAL/MOL
REMARK 927      BINDING AFFINITY PREDICTED BY RF-SCORE:    0.00 PKD
ROOT
HETATM    1  C   UNL     1      -8.706   7.794  73.723  1.00  0.00    -0.318 C  
HETATM    2  C   UNL     1      -9.765   8.374  72.802  1.00  0.00    -0.298 C  
ENDROOT
BRANCH   2   3
HETATM    3  C   UNL     1     -11.122   7.723  73.046  1.00  0.00    -0.419 C  
BRANCH   3   4
HETATM    4  C   UNL     1     -11.794   7.339  71.729  1.00  0.00    -0.330 C  
BRANCH   4   5
HETATM    5  C   UNL     1     -10.771   6.697  70.802  1.00  0.00    -0.282 C  
BRANCH   5   6
HETATM    6  C   UNL     1     -11.374   6.129  69.552  1.00  0.00    -0.426 C  
HETATM    7  C   UNL     1     -11.012   6.542  68.327  1.00  0.00    -0.362 C  
BRANCH   7   8
HETATM    8  C   UNL     1      -9.999   7.617  68.068  1.00  0.00    -0.208 C  
BRANCH   8   9
HETATM    9  C   UNL     1     -10.630   8.858  67.518  1.00  0.00    -0.307 C  
HETATM   10  C   UNL     1     -10.759  10.012  68.190  1.00  0.00    -0.282 C  
BRANCH  10  11
HETATM   11  C   UNL     1     -10.380  10.213  69.626  1.00  0.00    -0.278 C  
BRANCH  11  12
HETATM   12  C   UNL     1     -11.570  10.588  70.464  1.00  0.00    -0.441 C  
HETATM   13  C   UNL     1     -12.124  11.810  70.507  1.00  0.00    -0.439 C  
BRANCH  13  14
HETATM   14  C   UNL     1     -11.586  12.958  69.709  1.00  0.00    -0.288 C  
BRANCH  14  15
HETATM   15  C   UNL     1     -12.170  14.308  70.104  1.00  0.00    -0.407 C  
BRANCH  15  16
HETATM   16  C   UNL     1     -13.176  14.107  71.238  1.00  0.00    -0.399 C  
BRANCH  16  17
HETATM   17  C   UNL     1     -13.518  15.424  71.919  1.00  0.00    -0.571 C  
HETATM   18  C   UNL     1     -12.965  15.484  73.323  1.00  0.00    -0.538 C  
HETATM   19  O   UNL     1     -12.322  14.602  73.872  1.00  0.00    -0.447 OA 
HETATM   20  O   UNL     1     -13.262  16.652  73.940  1.00  0.00    -0.521 OA 
ENDBRANCH  16  17
ENDBRANCH  15  16
ENDBRANCH  14  15
ENDBRANCH  13  14
ENDBRANCH  11  12
ENDBRANCH  10  11
ENDBRANCH   8   9
ENDBRANCH   7   8
ENDBRANCH   5   6
ENDBRANCH   4   5
ENDBRANCH   3   4
ENDBRANCH   2   3
TORSDOF 12
ENDMDL
MODEL       84
REMARK 921   NORMALIZED FREE ENERGY PREDICTED BY IDOCK:   -4.29 KCAL/MOL
REMARK 922        TOTAL FREE ENERGY PREDICTED BY IDOCK:   -9.26 KCAL/MOL
REMARK 923 INTER-LIGAND FREE ENERGY PREDICTED BY IDOCK:   -6.78 KCAL/MOL
REMARK 924 INTRA-LIGAND FREE ENERGY PREDICTED BY IDOCK:   -2.48 KCAL/MOL
REMARK 927      BINDING AFFINITY PREDICTED BY RF-SCORE:    0.00 PKD
ROOT
HETATM    1  C   UNL     1     -11.058   6.140  67.352  1.00  0.00    -0.326 C  
HETATM    2  C   UNL     1     -11.500   6.571  68.740  1.00  0.00    -0.099 C  
ENDROOT
BRANCH   2   3
HETATM    3  C   UNL     1     -10.542   6.054  69.807  1.00  0.00    -0.356 C  
BRANCH   3   4
HETATM    4  C   UNL     1     -11.117   6.253  71.208  1.00  0.00    -0.345 C  
BRANCH   4   5
HETATM    5  C   UNL     1     -12.327   7.175  71.136  1.00  0.00    -0.404 C  
BRANCH   5   6
HETATM    6  C   UNL     1     -12.271   8.307  72.119  1.00  0.00    -0.418 C  
HETATM    7  C   UNL     1     -11.964   9.561  71.753  1.00  0.00    -0.443 C  
BRANCH   7   8
HETATM    8  C   UNL     1     -11.622   9.968  70.351  1.00  0.00    -0.379 C  
BRANCH   8   9
HETATM    9  C   UNL     1     -10.146   9.929  70.102  1.00  0.00    -0.309 C  
HETATM   10  C   UNL     1      -9.577   9.892  68.887  1.00  0.00    -0.172 C  
BRANCH  10  11
HETATM   11  C   UNL     1     -10.326   9.787  67.594  1.00  0.00    -0.281 C  
BRANCH  11  12
HETATM   12  C   UNL     1      -9.811  10.765  66.575  1.00  0.00    -0.246 C  
HETATM   13  C   UNL     1     -10.435  11.898  66.217  1.00  0.00    -0.274 C  
BRANCH  13  14
HETATM   14  C   UNL     1     -11.752  12.305  66.804  1.00  0.00    -0.411 C  
BRANCH  14  15
HETATM   15  C   UNL     1     -11.717  13.647  67.522  1.00  0.00    -0.406 C  
BRANCH  15  16
HETATM   16  C   UNL     1     -11.132  13.452  68.921  1.00  0.00    -0.307 C  
BRANCH  16  17
HETATM   17  C   UNL     1     -12.126  13.852  70.002  1.00  0.00    -0.411 C  
HETATM   18  C   UNL     1     -12.156  15.348  70.204  1.00  0.00    -0.369 C  
HETATM   19  O   UNL     1     -11.478  16.161  69.594  1.00  0.00    -0.327 OA 
HETATM   20  O   UNL     1     -13.038  15.717  71.163  1.00  0.00    -0.496 OA 
ENDBRANCH  16  17
ENDBRANCH  15  16
ENDBRANCH  14  15
ENDBRANCH  13  14
ENDBRANCH  11  12
ENDBRANCH  10  11
ENDBRANCH   8   9
ENDBRANCH   7   8
ENDBRANCH   5   6
ENDBRANCH   4   5
ENDBRANCH   3   4
ENDBRANCH   2   3
TORSDOF 12
ENDMDL
MODEL       85
REMARK 921   NORMALIZED FREE ENERGY PREDICTED BY IDOCK:   -4.29 KCAL/MOL
REMARK 922        TOTAL FREE ENERGY PREDICTED BY IDOCK:   -9.26 KCAL/MOL
REMARK 923 INTER-LIGAND FREE ENERGY PREDICTED BY IDOCK:   -7.71 KCAL/MOL
REMARK 924 INTRA-LIGAND FREE ENERGY PREDICTED BY IDOCK:   -1.55 KCAL/MOL
REMARK 927      BINDING AFFINITY PREDICTED BY RF-SCORE:    0.00 PKD
ROOT
HETATM    1  C   UNL     1      -9.781   5.428  71.523  1.00  0.00    -0.209 C  
HETATM    2  C   UNL     1     -10.851   6.375  71.010  1.00  0.00    -0.314 C  
ENDROOT
BRANCH   2   3
HETATM    3  C   UNL     1     -11.136   7.481  72.018  1.00  0.00    -0.288 C  
BRANCH   3   4
HETATM    4  C   UNL     1     -10.290   8.721  71.731  1.00  0.00    -0.413 C  
BRANCH   4   5
HETATM    5  C   UNL     1     -11.159   9.795  71.094  1.00  0.00    -0.414 C  
BRANCH   5   6
HETATM    6  C   UNL     1     -12.610   9.682  71.460  1.00  0.00    -0.483 C  
HETATM    7  C   UNL     1     -13.395  10.758  71.626  1.00  0.00    -0.390 C  
BRANCH   7   8
HETATM    8  C   UNL     1     -12.919  12.174  71.493  1.00  0.00    -0.398 C  
BRANCH   8   9
HETATM    9  C   UNL     1     -13.641  13.096  72.426  1.00  0.00    -0.667 C  
HETATM   10  C   UNL     1     -13.883  14.393  72.183  1.00  0.00    -0.572 C  
BRANCH  10  11
HETATM   11  C   UNL     1     -13.389  15.146  70.985  1.00  0.00    -0.504 C  
BRANCH  11  12
HETATM   12  C   UNL     1     -12.041  15.763  71.237  1.00  0.00    -0.487 C  
HETATM   13  C   UNL     1     -11.176  16.130  70.279  1.00  0.00    -0.389 C  
BRANCH  13  14
HETATM   14  C   UNL     1     -11.470  15.943  68.822  1.00  0.00    -0.393 C  
BRANCH  14  15
HETATM   15  C   UNL     1     -10.276  15.460  68.010  1.00  0.00    -0.235 C  
BRANCH  15  16
HETATM   16  C   UNL     1      -9.956  14.016  68.397  1.00  0.00    -0.236 C  
BRANCH  16  17
HETATM   17  C   UNL     1     -11.213  13.159  68.442  1.00  0.00    -0.305 C  
HETATM   18  C   UNL     1     -10.939  11.745  67.989  1.00  0.00    -0.225 C  
HETATM   19  O   UNL     1      -9.855  11.314  67.624  1.00  0.00    -0.172 OA 
HETATM   20  O   UNL     1     -12.049  10.972  68.025  1.00  0.00    -0.615 OA 
ENDBRANCH  16  17
ENDBRANCH  15  16
ENDBRANCH  14  15
ENDBRANCH  13  14
ENDBRANCH  11  12
ENDBRANCH  10  11
ENDBRANCH   8   9
ENDBRANCH   7   8
ENDBRANCH   5   6
ENDBRANCH   4   5
ENDBRANCH   3   4
ENDBRANCH   2   3
TORSDOF 12
ENDMDL
MODEL       86
REMARK 921   NORMALIZED FREE ENERGY PREDICTED BY IDOCK:   -4.28 KCAL/MOL
REMARK 922        TOTAL FREE ENERGY PREDICTED BY IDOCK:   -9.24 KCAL/MOL
REMARK 923 INTER-LIGAND FREE ENERGY PREDICTED BY IDOCK:   -7.60 KCAL/MOL
REMARK 924 INTRA-LIGAND FREE ENERGY PREDICTED BY IDOCK:   -1.64 KCAL/MOL
REMARK 927      BINDING AFFINITY PREDICTED BY RF-SCORE:    0.00 PKD
ROOT
HETATM    1  C   UNL     1     -12.955  11.089  71.616  1.00  0.00    -0.561 C  
HETATM    2  C   UNL     1     -13.515   9.868  70.908  1.00  0.00    -0.181 C  
ENDROOT
BRANCH   2   3
HETATM    3  C   UNL     1     -13.881   8.774  71.904  1.00  0.00    -0.491 C  
BRANCH   3   4
HETATM    4  C   UNL     1     -13.538   7.391  71.354  1.00  0.00    -0.410 C  
BRANCH   4   5
HETATM    5  C   UNL     1     -12.057   7.333  71.005  1.00  0.00    -0.361 C  
BRANCH   5   6
HETATM    6  C   UNL     1     -11.158   7.590  72.179  1.00  0.00    -0.300 C  
HETATM    7  C   UNL     1     -10.222   8.551  72.170  1.00  0.00    -0.403 C  
BRANCH   7   8
HETATM    8  C   UNL     1      -9.950   9.449  71.001  1.00  0.00    -0.334 C  
BRANCH   8   9
HETATM    9  C   UNL     1      -8.906   8.882  70.090  1.00  0.00    -0.172 C  
HETATM   10  C   UNL     1      -9.044   8.740  68.764  1.00  0.00    -0.138 C  
BRANCH  10  11
HETATM   11  C   UNL     1     -10.298   9.035  67.997  1.00  0.00    -0.275 C  
BRANCH  11  12
HETATM   12  C   UNL     1     -10.005   9.771  66.719  1.00  0.00    -0.278 C  
HETATM   13  C   UNL     1     -10.406  11.022  66.447  1.00  0.00    -0.302 C  
BRANCH  13  14
HETATM   14  C   UNL     1     -11.222  11.827  67.412  1.00  0.00    -0.357 C  
BRANCH  14  15
HETATM   15  C   UNL     1     -11.389  13.286  67.008  1.00  0.00    -0.346 C  
BRANCH  15  16
HETATM   16  C   UNL     1     -10.600  13.545  65.725  1.00  0.00    -0.283 C  
BRANCH  16  17
HETATM   17  C   UNL     1     -11.371  14.441  64.766  1.00  0.00    -0.388 C  
HETATM   18  C   UNL     1     -10.934  15.881  64.876  1.00  0.00    -0.411 C  
HETATM   19  O   UNL     1     -10.074  16.307  65.633  1.00  0.00    -0.409 OA 
HETATM   20  O   UNL     1     -11.613  16.688  64.028  1.00  0.00    -1.197 OA 
ENDBRANCH  16  17
ENDBRANCH  15  16
ENDBRANCH  14  15
ENDBRANCH  13  14
ENDBRANCH  11  12
ENDBRANCH  10  11
ENDBRANCH   8   9
ENDBRANCH   7   8
ENDBRANCH   5   6
ENDBRANCH   4   5
ENDBRANCH   3   4
ENDBRANCH   2   3
TORSDOF 12
ENDMDL
MODEL       87
REMARK 921   NORMALIZED FREE ENERGY PREDICTED BY IDOCK:   -4.27 KCAL/MOL
REMARK 922        TOTAL FREE ENERGY PREDICTED BY IDOCK:   -9.23 KCAL/MOL
REMARK 923 INTER-LIGAND FREE ENERGY PREDICTED BY IDOCK:   -6.70 KCAL/MOL
REMARK 924 INTRA-LIGAND FREE ENERGY PREDICTED BY IDOCK:   -2.52 KCAL/MOL
REMARK 927      BINDING AFFINITY PREDICTED BY RF-SCORE:    0.00 PKD
ROOT
HETATM    1  C   UNL     1     -10.147  19.932  66.357  1.00  0.00    -0.615 C  
HETATM    2  C   UNL     1     -10.784  19.133  67.481  1.00  0.00    -0.555 C  
ENDROOT
BRANCH   2   3
HETATM    3  C   UNL     1      -9.929  19.182  68.742  1.00  0.00    -0.493 C  
BRANCH   3   4
HETATM    4  C   UNL     1      -8.494  18.743  68.454  1.00  0.00    -0.374 C  
BRANCH   4   5
HETATM    5  C   UNL     1      -8.477  17.266  68.086  1.00  0.00    -0.238 C  
BRANCH   5   6
HETATM    6  C   UNL     1      -7.265  16.541  68.590  1.00  0.00    -0.186 C  
HETATM    7  C   UNL     1      -7.018  15.257  68.288  1.00  0.00    -0.119 C  
BRANCH   7   8
HETATM    8  C   UNL     1      -7.920  14.403  67.449  1.00  0.00    -0.220 C  
BRANCH   8   9
HETATM    9  C   UNL     1      -8.045  13.015  67.995  1.00  0.00    -0.157 C  
HETATM   10  C   UNL     1      -8.852  12.066  67.495  1.00  0.00    -0.172 C  
BRANCH  10  11
HETATM   11  C   UNL     1      -9.824  12.274  66.374  1.00  0.00    -0.242 C  
BRANCH  11  12
HETATM   12  C   UNL     1     -11.247  12.186  66.852  1.00  0.00    -0.375 C  
HETATM   13  C   UNL     1     -12.028  13.241  67.131  1.00  0.00    -0.400 C  
BRANCH  13  14
HETATM   14  C   UNL     1     -11.540  14.652  67.003  1.00  0.00    -0.385 C  
BRANCH  14  15
HETATM   15  C   UNL     1     -11.750  15.492  68.256  1.00  0.00    -0.287 C  
BRANCH  15  16
HETATM   16  C   UNL     1     -11.076  14.800  69.442  1.00  0.00    -0.302 C  
BRANCH  16  17
HETATM   17  C   UNL     1     -10.927  15.744  70.627  1.00  0.00    -0.341 C  
HETATM   18  C   UNL     1     -12.028  15.542  71.640  1.00  0.00    -0.408 C  
HETATM   19  O   UNL     1     -12.939  14.733  71.548  1.00  0.00    -0.300 OA 
HETATM   20  O   UNL     1     -11.906  16.375  72.700  1.00  0.00    -0.533 OA 
ENDBRANCH  16  17
ENDBRANCH  15  16
ENDBRANCH  14  15
ENDBRANCH  13  14
ENDBRANCH  11  12
ENDBRANCH  10  11
ENDBRANCH   8   9
ENDBRANCH   7   8
ENDBRANCH   5   6
ENDBRANCH   4   5
ENDBRANCH   3   4
ENDBRANCH   2   3
TORSDOF 12
ENDMDL
MODEL       88
REMARK 921   NORMALIZED FREE ENERGY PREDICTED BY IDOCK:   -4.25 KCAL/MOL
REMARK 922        TOTAL FREE ENERGY PREDICTED BY IDOCK:   -9.19 KCAL/MOL
REMARK 923 INTER-LIGAND FREE ENERGY PREDICTED BY IDOCK:   -7.16 KCAL/MOL
REMARK 924 INTRA-LIGAND FREE ENERGY PREDICTED BY IDOCK:   -2.03 KCAL/MOL
REMARK 927      BINDING AFFINITY PREDICTED BY RF-SCORE:    0.00 PKD
ROOT
HETATM    1  C   UNL     1     -10.601  12.210  63.466  1.00  0.00    -0.501 C  
HETATM    2  C   UNL     1     -12.047  12.457  63.859  1.00  0.00    -0.587 C  
ENDROOT
BRANCH   2   3
HETATM    3  C   UNL     1     -12.161  13.632  64.823  1.00  0.00    -0.440 C  
BRANCH   3   4
HETATM    4  C   UNL     1     -10.999  14.608  64.644  1.00  0.00    -0.340 C  
BRANCH   4   5
HETATM    5  C   UNL     1     -10.853  15.462  65.896  1.00  0.00    -0.328 C  
BRANCH   5   6
HETATM    6  C   UNL     1      -9.517  16.135  66.006  1.00  0.00    -0.374 C  
HETATM    7  C   UNL     1      -8.552  15.687  66.824  1.00  0.00    -0.309 C  
BRANCH   7   8
HETATM    8  C   UNL     1      -8.701  14.500  67.728  1.00  0.00    -0.174 C  
BRANCH   8   9
HETATM    9  C   UNL     1      -8.456  13.212  67.004  1.00  0.00    -0.139 C  
HETATM   10  C   UNL     1      -8.919  12.015  67.397  1.00  0.00    -0.176 C  
BRANCH  10  11
HETATM   11  C   UNL     1      -9.670  11.763  68.669  1.00  0.00    -0.135 C  
BRANCH  11  12
HETATM   12  C   UNL     1     -11.113  11.437  68.404  1.00  0.00    -0.296 C  
HETATM   13  C   UNL     1     -12.123  12.319  68.475  1.00  0.00    -0.124 C  
BRANCH  13  14
HETATM   14  C   UNL     1     -11.906  13.753  68.849  1.00  0.00    -0.396 C  
BRANCH  14  15
HETATM   15  C   UNL     1     -11.997  14.019  70.346  1.00  0.00    -0.398 C  
BRANCH  15  16
HETATM   16  C   UNL     1     -12.808  15.293  70.582  1.00  0.00    -0.462 C  
BRANCH  16  17
HETATM   17  C   UNL     1     -12.424  15.964  71.893  1.00  0.00    -0.524 C  
HETATM   18  C   UNL     1     -13.410  15.645  72.991  1.00  0.00    -0.570 C  
HETATM   19  O   UNL     1     -14.403  14.942  72.872  1.00  0.00    -0.224 OA 
HETATM   20  O   UNL     1     -13.079  16.236  74.163  1.00  0.00    -0.661 OA 
ENDBRANCH  16  17
ENDBRANCH  15  16
ENDBRANCH  14  15
ENDBRANCH  13  14
ENDBRANCH  11  12
ENDBRANCH  10  11
ENDBRANCH   8   9
ENDBRANCH   7   8
ENDBRANCH   5   6
ENDBRANCH   4   5
ENDBRANCH   3   4
ENDBRANCH   2   3
TORSDOF 12
ENDMDL
MODEL       89
REMARK 921   NORMALIZED FREE ENERGY PREDICTED BY IDOCK:   -4.25 KCAL/MOL
REMARK 922        TOTAL FREE ENERGY PREDICTED BY IDOCK:   -9.18 KCAL/MOL
REMARK 923 INTER-LIGAND FREE ENERGY PREDICTED BY IDOCK:   -6.42 KCAL/MOL
REMARK 924 INTRA-LIGAND FREE ENERGY PREDICTED BY IDOCK:   -2.76 KCAL/MOL
REMARK 927      BINDING AFFINITY PREDICTED BY RF-SCORE:    0.00 PKD
ROOT
HETATM    1  C   UNL     1     -12.342   9.908  71.238  1.00  0.00    -0.478 C  
HETATM    2  C   UNL     1     -12.541  11.408  71.112  1.00  0.00    -0.490 C  
ENDROOT
BRANCH   2   3
HETATM    3  C   UNL     1     -11.951  11.932  69.808  1.00  0.00    -0.377 C  
BRANCH   3   4
HETATM    4  C   UNL     1     -12.027  13.457  69.741  1.00  0.00    -0.396 C  
BRANCH   4   5
HETATM    5  C   UNL     1     -11.253  13.953  68.528  1.00  0.00    -0.298 C  
BRANCH   5   6
HETATM    6  C   UNL     1     -12.134  14.465  67.428  1.00  0.00    -0.348 C  
HETATM    7  C   UNL     1     -11.967  14.103  66.146  1.00  0.00    -0.437 C  
BRANCH   7   8
HETATM    8  C   UNL     1     -10.886  13.181  65.668  1.00  0.00    -0.294 C  
BRANCH   8   9
HETATM    9  C   UNL     1     -11.247  11.742  65.870  1.00  0.00    -0.345 C  
HETATM   10  C   UNL     1     -10.387  10.786  66.253  1.00  0.00    -0.303 C  
BRANCH  10  11
HETATM   11  C   UNL     1      -8.915  10.985  66.446  1.00  0.00    -0.190 C  
BRANCH  11  12
HETATM   12  C   UNL     1      -8.581  11.283  67.881  1.00  0.00    -0.134 C  
HETATM   13  C   UNL     1      -7.922  12.374  68.304  1.00  0.00    -0.160 C  
BRANCH  13  14
HETATM   14  C   UNL     1      -7.428  13.425  67.358  1.00  0.00    -0.134 C  
BRANCH  14  15
HETATM   15  C   UNL     1      -7.726  14.848  67.811  1.00  0.00    -0.174 C  
BRANCH  15  16
HETATM   16  C   UNL     1      -8.461  15.588  66.693  1.00  0.00    -0.314 C  
BRANCH  16  17
HETATM   17  C   UNL     1      -9.105  16.869  67.200  1.00  0.00    -0.228 C  
HETATM   18  C   UNL     1     -10.070  17.445  66.192  1.00  0.00    -0.300 C  
HETATM   19  O   UNL     1     -10.320  16.967  65.095  1.00  0.00    -0.632 OA 
HETATM   20  O   UNL     1     -10.650  18.585  66.632  1.00  0.00    -0.390 OA 
ENDBRANCH  16  17
ENDBRANCH  15  16
ENDBRANCH  14  15
ENDBRANCH  13  14
ENDBRANCH  11  12
ENDBRANCH  10  11
ENDBRANCH   8   9
ENDBRANCH   7   8
ENDBRANCH   5   6
ENDBRANCH   4   5
ENDBRANCH   3   4
ENDBRANCH   2   3
TORSDOF 12
ENDMDL
MODEL       90
REMARK 921   NORMALIZED FREE ENERGY PREDICTED BY IDOCK:   -4.24 KCAL/MOL
REMARK 922        TOTAL FREE ENERGY PREDICTED BY IDOCK:   -9.17 KCAL/MOL
REMARK 923 INTER-LIGAND FREE ENERGY PREDICTED BY IDOCK:   -7.87 KCAL/MOL
REMARK 924 INTRA-LIGAND FREE ENERGY PREDICTED BY IDOCK:   -1.30 KCAL/MOL
REMARK 927      BINDING AFFINITY PREDICTED BY RF-SCORE:    0.00 PKD
ROOT
HETATM    1  C   UNL     1     -10.184  10.638  65.082  1.00  0.00    -0.368 C  
HETATM    2  C   UNL     1      -9.830   9.446  65.953  1.00  0.00    -0.362 C  
ENDROOT
BRANCH   2   3
HETATM    3  C   UNL     1     -10.575   9.496  67.282  1.00  0.00    -0.317 C  
BRANCH   3   4
HETATM    4  C   UNL     1     -10.421  10.861  67.950  1.00  0.00    -0.227 C  
BRANCH   4   5
HETATM    5  C   UNL     1     -11.692  11.199  68.718  1.00  0.00    -0.394 C  
BRANCH   5   6
HETATM    6  C   UNL     1     -11.664  10.740  70.146  1.00  0.00    -0.425 C  
HETATM    7  C   UNL     1     -12.294  11.406  71.127  1.00  0.00    -0.404 C  
BRANCH   7   8
HETATM    8  C   UNL     1     -13.063  12.676  70.921  1.00  0.00     0.057 C  
BRANCH   8   9
HETATM    9  C   UNL     1     -13.544  13.254  72.215  1.00  0.00    -0.703 C  
HETATM   10  C   UNL     1     -13.620  14.567  72.484  1.00  0.00    -0.586 C  
BRANCH  10  11
HETATM   11  C   UNL     1     -13.146  15.656  71.572  1.00  0.00    -0.561 C  
BRANCH  11  12
HETATM   12  C   UNL     1     -11.646  15.734  71.534  1.00  0.00    -0.531 C  
HETATM   13  C   UNL     1     -10.900  15.616  70.424  1.00  0.00    -0.358 C  
BRANCH  13  14
HETATM   14  C   UNL     1     -11.507  15.376  69.076  1.00  0.00    -0.349 C  
BRANCH  14  15
HETATM   15  C   UNL     1     -10.546  15.610  67.918  1.00  0.00    -0.278 C  
BRANCH  15  16
HETATM   16  C   UNL     1      -9.800  16.926  68.144  1.00  0.00    -0.264 C  
BRANCH  16  17
HETATM   17  C   UNL     1     -10.574  18.109  67.581  1.00  0.00    -0.424 C  
HETATM   18  C   UNL     1      -9.829  18.773  66.448  1.00  0.00    -0.373 C  
HETATM   19  O   UNL     1      -8.739  18.429  66.016  1.00  0.00    -0.499 OA 
HETATM   20  O   UNL     1     -10.508  19.827  65.938  1.00  0.00    -0.504 OA 
ENDBRANCH  16  17
ENDBRANCH  15  16
ENDBRANCH  14  15
ENDBRANCH  13  14
ENDBRANCH  11  12
ENDBRANCH  10  11
ENDBRANCH   8   9
ENDBRANCH   7   8
ENDBRANCH   5   6
ENDBRANCH   4   5
ENDBRANCH   3   4
ENDBRANCH   2   3
TORSDOF 12
ENDMDL
MODEL       91
REMARK 921   NORMALIZED FREE ENERGY PREDICTED BY IDOCK:   -4.23 KCAL/MOL
REMARK 922        TOTAL FREE ENERGY PREDICTED BY IDOCK:   -9.15 KCAL/MOL
REMARK 923 INTER-LIGAND FREE ENERGY PREDICTED BY IDOCK:   -7.03 KCAL/MOL
REMARK 924 INTRA-LIGAND FREE ENERGY PREDICTED BY IDOCK:   -2.12 KCAL/MOL
REMARK 927      BINDING AFFINITY PREDICTED BY RF-SCORE:    0.00 PKD
ROOT
HETATM    1  C   UNL     1     -12.655  13.906  65.419  1.00  0.00    -0.538 C  
HETATM    2  C   UNL     1     -11.684  14.453  66.450  1.00  0.00    -0.397 C  
ENDROOT
BRANCH   2   3
HETATM    3  C   UNL     1     -11.894  13.792  67.807  1.00  0.00    -0.404 C  
BRANCH   3   4
HETATM    4  C   UNL     1     -10.579  13.687  68.579  1.00  0.00    -0.259 C  
BRANCH   4   5
HETATM    5  C   UNL     1     -10.585  14.679  69.733  1.00  0.00    -0.071 C  
BRANCH   5   6
HETATM    6  C   UNL     1     -11.825  15.521  69.790  1.00  0.00    -0.376 C  
HETATM    7  C   UNL     1     -12.588  15.604  70.891  1.00  0.00    -0.503 C  
BRANCH   7   8
HETATM    8  C   UNL     1     -12.310  14.861  72.163  1.00  0.00    -0.430 C  
BRANCH   8   9
HETATM    9  C   UNL     1     -13.459  13.987  72.563  1.00  0.00    -0.661 C  
HETATM   10  C   UNL     1     -13.643  12.727  72.140  1.00  0.00    -0.547 C  
BRANCH  10  11
HETATM   11  C   UNL     1     -12.785  12.030  71.128  1.00  0.00    -0.365 C  
BRANCH  11  12
HETATM   12  C   UNL     1     -12.555  10.591  71.497  1.00  0.00    -0.529 C  
HETATM   13  C   UNL     1     -11.818   9.726  70.782  1.00  0.00    -0.400 C  
BRANCH  13  14
HETATM   14  C   UNL     1     -11.145  10.117  69.502  1.00  0.00    -0.295 C  
BRANCH  14  15
HETATM   15  C   UNL     1      -9.625  10.153  69.593  1.00  0.00    -0.237 C  
BRANCH  15  16
HETATM   16  C   UNL     1      -9.032   9.811  68.226  1.00  0.00    -0.119 C  
BRANCH  16  17
HETATM   17  C   UNL     1     -10.044  10.023  67.110  1.00  0.00    -0.265 C  
HETATM   18  C   UNL     1      -9.476  10.868  65.996  1.00  0.00    -0.203 C  
HETATM   19  O   UNL     1      -8.349  11.339  65.966  1.00  0.00    -0.153 OA 
HETATM   20  O   UNL     1     -10.367  11.062  64.996  1.00  0.00    -0.276 OA 
ENDBRANCH  16  17
ENDBRANCH  15  16
ENDBRANCH  14  15
ENDBRANCH  13  14
ENDBRANCH  11  12
ENDBRANCH  10  11
ENDBRANCH   8   9
ENDBRANCH   7   8
ENDBRANCH   5   6
ENDBRANCH   4   5
ENDBRANCH   3   4
ENDBRANCH   2   3
TORSDOF 12
ENDMDL
MODEL       92
REMARK 921   NORMALIZED FREE ENERGY PREDICTED BY IDOCK:   -4.23 KCAL/MOL
REMARK 922        TOTAL FREE ENERGY PREDICTED BY IDOCK:   -9.15 KCAL/MOL
REMARK 923 INTER-LIGAND FREE ENERGY PREDICTED BY IDOCK:   -7.39 KCAL/MOL
REMARK 924 INTRA-LIGAND FREE ENERGY PREDICTED BY IDOCK:   -1.75 KCAL/MOL
REMARK 927      BINDING AFFINITY PREDICTED BY RF-SCORE:    0.00 PKD
ROOT
HETATM    1  C   UNL     1     -10.281  11.531  63.779  1.00  0.00    -0.429 C  
HETATM    2  C   UNL     1     -11.325  12.623  63.632  1.00  0.00    -0.544 C  
ENDROOT
BRANCH   2   3
HETATM    3  C   UNL     1     -12.486  12.406  64.595  1.00  0.00    -0.500 C  
BRANCH   3   4
HETATM    4  C   UNL     1     -12.568  13.533  65.624  1.00  0.00    -0.512 C  
BRANCH   4   5
HETATM    5  C   UNL     1     -11.873  13.103  66.908  1.00  0.00    -0.444 C  
BRANCH   5   6
HETATM    6  C   UNL     1     -11.864  14.166  67.966  1.00  0.00    -0.400 C  
HETATM    7  C   UNL     1     -11.905  13.878  69.276  1.00  0.00    -0.394 C  
BRANCH   7   8
HETATM    8  C   UNL     1     -11.989  12.486  69.827  1.00  0.00    -0.359 C  
BRANCH   8   9
HETATM    9  C   UNL     1     -12.550  12.468  71.216  1.00  0.00    -0.332 C  
HETATM   10  C   UNL     1     -12.990  11.369  71.847  1.00  0.00    -0.466 C  
BRANCH  10  11
HETATM   11  C   UNL     1     -13.080  10.006  71.231  1.00  0.00    -0.493 C  
BRANCH  11  12
HETATM   12  C   UNL     1     -12.883   8.922  72.253  1.00  0.00    -0.475 C  
HETATM   13  C   UNL     1     -11.872   8.039  72.249  1.00  0.00    -0.424 C  
BRANCH  13  14
HETATM   14  C   UNL     1     -10.817   8.038  71.185  1.00  0.00    -0.267 C  
BRANCH  14  15
HETATM   15  C   UNL     1      -9.714   9.063  71.412  1.00  0.00    -0.369 C  
BRANCH  15  16
HETATM   16  C   UNL     1      -9.346   9.709  70.076  1.00  0.00    -0.276 C  
BRANCH  16  17
HETATM   17  C   UNL     1     -10.158   9.121  68.930  1.00  0.00    -0.209 C  
HETATM   18  C   UNL     1      -9.899   9.850  67.634  1.00  0.00    -0.163 C  
HETATM   19  O   UNL     1      -9.141  10.799  67.491  1.00  0.00    -0.139 OA 
HETATM   20  O   UNL     1     -10.614   9.336  66.607  1.00  0.00    -0.197 OA 
ENDBRANCH  16  17
ENDBRANCH  15  16
ENDBRANCH  14  15
ENDBRANCH  13  14
ENDBRANCH  11  12
ENDBRANCH  10  11
ENDBRANCH   8   9
ENDBRANCH   7   8
ENDBRANCH   5   6
ENDBRANCH   4   5
ENDBRANCH   3   4
ENDBRANCH   2   3
TORSDOF 12
ENDMDL
MODEL       93
REMARK 921   NORMALIZED FREE ENERGY PREDICTED BY IDOCK:   -4.22 KCAL/MOL
REMARK 922        TOTAL FREE ENERGY PREDICTED BY IDOCK:   -9.14 KCAL/MOL
REMARK 923 INTER-LIGAND FREE ENERGY PREDICTED BY IDOCK:   -7.18 KCAL/MOL
REMARK 924 INTRA-LIGAND FREE ENERGY PREDICTED BY IDOCK:   -1.96 KCAL/MOL
REMARK 927      BINDING AFFINITY PREDICTED BY RF-SCORE:    0.00 PKD
ROOT
HETATM    1  C   UNL     1     -10.811   6.137  67.719  1.00  0.00    -0.413 C  
HETATM    2  C   UNL     1     -10.474   5.807  69.162  1.00  0.00    -0.346 C  
ENDROOT
BRANCH   2   3
HETATM    3  C   UNL     1     -11.586   6.257  70.103  1.00  0.00    -0.385 C  
BRANCH   3   4
HETATM    4  C   UNL     1     -11.027   6.653  71.468  1.00  0.00    -0.287 C  
BRANCH   4   5
HETATM    5  C   UNL     1      -9.959   7.723  71.291  1.00  0.00    -0.199 C  
BRANCH   5   6
HETATM    6  C   UNL     1     -10.492   9.120  71.401  1.00  0.00    -0.414 C  
HETATM    7  C   UNL     1     -10.540   9.956  70.352  1.00  0.00    -0.364 C  
BRANCH   7   8
HETATM    8  C   UNL     1     -10.053   9.608  68.978  1.00  0.00    -0.193 C  
BRANCH   8   9
HETATM    9  C   UNL     1     -11.068   9.930  67.926  1.00  0.00    -0.216 C  
HETATM   10  C   UNL     1     -11.012  10.993  67.110  1.00  0.00    -0.344 C  
BRANCH  10  11
HETATM   11  C   UNL     1      -9.979  12.077  67.185  1.00  0.00    -0.208 C  
BRANCH  11  12
HETATM   12  C   UNL     1     -10.189  12.959  68.384  1.00  0.00    -0.238 C  
HETATM   13  C   UNL     1     -10.954  14.062  68.398  1.00  0.00    -0.269 C  
BRANCH  13  14
HETATM   14  C   UNL     1     -11.685  14.543  67.182  1.00  0.00    -0.420 C  
BRANCH  14  15
HETATM   15  C   UNL     1     -10.871  15.490  66.310  1.00  0.00    -0.283 C  
BRANCH  15  16
HETATM   16  C   UNL     1     -10.814  14.937  64.886  1.00  0.00    -0.431 C  
BRANCH  16  17
HETATM   17  C   UNL     1     -12.090  14.189  64.527  1.00  0.00    -0.489 C  
HETATM   18  C   UNL     1     -11.793  12.849  63.899  1.00  0.00    -0.473 C  
HETATM   19  O   UNL     1     -10.677  12.394  63.690  1.00  0.00    -0.417 OA 
HETATM   20  O   UNL     1     -12.920  12.174  63.576  1.00  0.00    -0.794 OA 
ENDBRANCH  16  17
ENDBRANCH  15  16
ENDBRANCH  14  15
ENDBRANCH  13  14
ENDBRANCH  11  12
ENDBRANCH  10  11
ENDBRANCH   8   9
ENDBRANCH   7   8
ENDBRANCH   5   6
ENDBRANCH   4   5
ENDBRANCH   3   4
ENDBRANCH   2   3
TORSDOF 12
ENDMDL
MODEL       94
REMARK 921   NORMALIZED FREE ENERGY PREDICTED BY IDOCK:   -4.22 KCAL/MOL
REMARK 922        TOTAL FREE ENERGY PREDICTED BY IDOCK:   -9.13 KCAL/MOL
REMARK 923 INTER-LIGAND FREE ENERGY PREDICTED BY IDOCK:   -6.41 KCAL/MOL
REMARK 924 INTRA-LIGAND FREE ENERGY PREDICTED BY IDOCK:   -2.72 KCAL/MOL
REMARK 927      BINDING AFFINITY PREDICTED BY RF-SCORE:    0.00 PKD
ROOT
HETATM    1  C   UNL     1      -8.024  13.933  67.803  1.00  0.00    -0.174 C  
HETATM    2  C   UNL     1      -7.941  12.424  67.942  1.00  0.00    -0.155 C  
ENDROOT
BRANCH   2   3
HETATM    3  C   UNL     1      -8.507  11.726  66.710  1.00  0.00    -0.177 C  
BRANCH   3   4
HETATM    4  C   UNL     1      -9.214  10.426  67.089  1.00  0.00    -0.159 C  
BRANCH   4   5
HETATM    5  C   UNL     1     -10.191  10.038  65.988  1.00  0.00    -0.277 C  
BRANCH   5   6
HETATM    6  C   UNL     1      -9.627  10.198  64.607  1.00  0.00    -0.379 C  
HETATM    7  C   UNL     1     -10.182  11.011  63.694  1.00  0.00    -0.431 C  
BRANCH   7   8
HETATM    8  C   UNL     1     -11.421  11.820  63.931  1.00  0.00    -0.481 C  
BRANCH   8   9
HETATM    9  C   UNL     1     -11.102  13.239  64.288  1.00  0.00    -0.414 C  
HETATM   10  C   UNL     1     -11.317  13.791  65.492  1.00  0.00    -0.313 C  
BRANCH  10  11
HETATM   11  C   UNL     1     -11.996  13.106  66.639  1.00  0.00    -0.451 C  
BRANCH  11  12
HETATM   12  C   UNL     1     -11.771  13.838  67.932  1.00  0.00    -0.395 C  
HETATM   13  C   UNL     1     -11.644  13.251  69.133  1.00  0.00    -0.370 C  
BRANCH  13  14
HETATM   14  C   UNL     1     -11.730  11.766  69.309  1.00  0.00    -0.398 C  
BRANCH  14  15
HETATM   15  C   UNL     1     -12.372  11.339  70.623  1.00  0.00    -0.477 C  
BRANCH  15  16
HETATM   16  C   UNL     1     -11.893   9.932  70.981  1.00  0.00    -0.463 C  
BRANCH  16  17
HETATM   17  C   UNL     1     -10.970   9.367  69.911  1.00  0.00    -0.251 C  
HETATM   18  C   UNL     1     -10.650   7.914  70.163  1.00  0.00    -0.237 C  
HETATM   19  O   UNL     1     -11.061   7.248  71.102  1.00  0.00    -0.244 OA 
HETATM   20  O   UNL     1      -9.831   7.399  69.217  1.00  0.00    -0.164 OA 
ENDBRANCH  16  17
ENDBRANCH  15  16
ENDBRANCH  14  15
ENDBRANCH  13  14
ENDBRANCH  11  12
ENDBRANCH  10  11
ENDBRANCH   8   9
ENDBRANCH   7   8
ENDBRANCH   5   6
ENDBRANCH   4   5
ENDBRANCH   3   4
ENDBRANCH   2   3
TORSDOF 12
ENDMDL
MODEL       95
REMARK 921   NORMALIZED FREE ENERGY PREDICTED BY IDOCK:   -4.21 KCAL/MOL
REMARK 922        TOTAL FREE ENERGY PREDICTED BY IDOCK:   -9.12 KCAL/MOL
REMARK 923 INTER-LIGAND FREE ENERGY PREDICTED BY IDOCK:   -7.47 KCAL/MOL
REMARK 924 INTRA-LIGAND FREE ENERGY PREDICTED BY IDOCK:   -1.65 KCAL/MOL
REMARK 927      BINDING AFFINITY PREDICTED BY RF-SCORE:    0.00 PKD
ROOT
HETATM    1  C   UNL     1     -12.405  15.832  70.281  1.00  0.00    -0.341 C  
HETATM    2  C   UNL     1     -12.391  14.761  71.357  1.00  0.00    -0.398 C  
ENDROOT
BRANCH   2   3
HETATM    3  C   UNL     1     -13.790  14.520  71.911  1.00  0.00    -0.545 C  
BRANCH   3   4
HETATM    4  C   UNL     1     -13.972  13.064  72.337  1.00  0.00    -0.426 C  
BRANCH   4   5
HETATM    5  C   UNL     1     -12.832  12.223  71.778  1.00  0.00    -0.359 C  
BRANCH   5   6
HETATM    6  C   UNL     1     -13.140  10.756  71.734  1.00  0.00    -0.573 C  
HETATM    7  C   UNL     1     -12.343   9.872  71.115  1.00  0.00    -0.466 C  
BRANCH   7   8
HETATM    8  C   UNL     1     -11.086  10.242  70.386  1.00  0.00    -0.391 C  
BRANCH   8   9
HETATM    9  C   UNL     1     -11.256  10.159  68.900  1.00  0.00    -0.220 C  
HETATM   10  C   UNL     1     -11.404  11.217  68.088  1.00  0.00    -0.372 C  
BRANCH  10  11
HETATM   11  C   UNL     1     -11.518  12.639  68.547  1.00  0.00    -0.349 C  
BRANCH  11  12
HETATM   12  C   UNL     1     -12.032  13.534  67.454  1.00  0.00    -0.398 C  
HETATM   13  C   UNL     1     -11.293  14.440  66.795  1.00  0.00    -0.360 C  
BRANCH  13  14
HETATM   14  C   UNL     1      -9.845  14.667  67.103  1.00  0.00    -0.237 C  
BRANCH  14  15
HETATM   15  C   UNL     1      -9.604  15.465  68.378  1.00  0.00    -0.200 C  
BRANCH  15  16
HETATM   16  C   UNL     1      -9.163  16.881  68.008  1.00  0.00    -0.235 C  
BRANCH  16  17
HETATM   17  C   UNL     1     -10.316  17.692  67.433  1.00  0.00    -0.360 C  
HETATM   18  C   UNL     1      -9.867  18.558  66.281  1.00  0.00    -0.337 C  
HETATM   19  O   UNL     1      -8.727  18.624  65.843  1.00  0.00    -0.481 OA 
HETATM   20  O   UNL     1     -10.883  19.283  65.760  1.00  0.00    -0.425 OA 
ENDBRANCH  16  17
ENDBRANCH  15  16
ENDBRANCH  14  15
ENDBRANCH  13  14
ENDBRANCH  11  12
ENDBRANCH  10  11
ENDBRANCH   8   9
ENDBRANCH   7   8
ENDBRANCH   5   6
ENDBRANCH   4   5
ENDBRANCH   3   4
ENDBRANCH   2   3
TORSDOF 12
ENDMDL
MODEL       96
REMARK 921   NORMALIZED FREE ENERGY PREDICTED BY IDOCK:   -4.21 KCAL/MOL
REMARK 922        TOTAL FREE ENERGY PREDICTED BY IDOCK:   -9.12 KCAL/MOL
REMARK 923 INTER-LIGAND FREE ENERGY PREDICTED BY IDOCK:   -7.73 KCAL/MOL
REMARK 924 INTRA-LIGAND FREE ENERGY PREDICTED BY IDOCK:   -1.39 KCAL/MOL
REMARK 927      BINDING AFFINITY PREDICTED BY RF-SCORE:    0.00 PKD
ROOT
HETATM    1  C   UNL     1     -11.282   6.280  69.285  1.00  0.00    -0.458 C  
HETATM    2  C   UNL     1     -10.259   5.398  69.980  1.00  0.00    -0.349 C  
ENDROOT
BRANCH   2   3
HETATM    3  C   UNL     1     -10.044   5.839  71.423  1.00  0.00    -0.249 C  
BRANCH   3   4
HETATM    4  C   UNL     1     -11.376   6.088  72.129  1.00  0.00    -0.351 C  
BRANCH   4   5
HETATM    5  C   UNL     1     -11.362   7.469  72.770  1.00  0.00    -0.388 C  
BRANCH   5   6
HETATM    6  C   UNL     1     -10.390   8.414  72.127  1.00  0.00    -0.397 C  
HETATM    7  C   UNL     1     -10.785   9.408  71.315  1.00  0.00    -0.421 C  
BRANCH   7   8
HETATM    8  C   UNL     1     -12.212   9.671  70.941  1.00  0.00    -0.368 C  
BRANCH   8   9
HETATM    9  C   UNL     1     -12.922  10.485  71.979  1.00  0.00    -0.490 C  
HETATM   10  C   UNL     1     -13.074  11.817  71.932  1.00  0.00    -0.482 C  
BRANCH  10  11
HETATM   11  C   UNL     1     -12.478  12.711  70.887  1.00  0.00    -0.368 C  
BRANCH  11  12
HETATM   12  C   UNL     1     -12.993  14.118  71.004  1.00  0.00    -0.399 C  
HETATM   13  C   UNL     1     -12.456  15.183  70.388  1.00  0.00    -0.416 C  
BRANCH  13  14
HETATM   14  C   UNL     1     -11.249  15.073  69.509  1.00  0.00    -0.294 C  
BRANCH  14  15
HETATM   15  C   UNL     1     -11.520  15.405  68.047  1.00  0.00    -0.333 C  
BRANCH  15  16
HETATM   16  C   UNL     1     -12.151  14.190  67.366  1.00  0.00    -0.379 C  
BRANCH  16  17
HETATM   17  C   UNL     1     -11.098  13.309  66.710  1.00  0.00    -0.313 C  
HETATM   18  C   UNL     1     -11.572  12.769  65.382  1.00  0.00    -0.358 C  
HETATM   19  O   UNL     1     -12.661  12.990  64.874  1.00  0.00    -0.644 OA 
HETATM   20  O   UNL     1     -10.644  11.984  64.788  1.00  0.00    -0.272 OA 
ENDBRANCH  16  17
ENDBRANCH  15  16
ENDBRANCH  14  15
ENDBRANCH  13  14
ENDBRANCH  11  12
ENDBRANCH  10  11
ENDBRANCH   8   9
ENDBRANCH   7   8
ENDBRANCH   5   6
ENDBRANCH   4   5
ENDBRANCH   3   4
ENDBRANCH   2   3
TORSDOF 12
ENDMDL
MODEL       97
REMARK 921   NORMALIZED FREE ENERGY PREDICTED BY IDOCK:   -4.21 KCAL/MOL
REMARK 922        TOTAL FREE ENERGY PREDICTED BY IDOCK:   -9.11 KCAL/MOL
REMARK 923 INTER-LIGAND FREE ENERGY PREDICTED BY IDOCK:   -6.99 KCAL/MOL
REMARK 924 INTRA-LIGAND FREE ENERGY PREDICTED BY IDOCK:   -2.12 KCAL/MOL
REMARK 927      BINDING AFFINITY PREDICTED BY RF-SCORE:    0.00 PKD
ROOT
HETATM    1  C   UNL     1      -9.063   5.584  68.663  1.00  0.00    -0.128 C  
HETATM    2  C   UNL     1     -10.117   5.355  69.732  1.00  0.00    -0.319 C  
ENDROOT
BRANCH   2   3
HETATM    3  C   UNL     1     -11.374   6.167  69.446  1.00  0.00    -0.401 C  
BRANCH   3   4
HETATM    4  C   UNL     1     -12.047   6.617  70.741  1.00  0.00    -0.364 C  
BRANCH   4   5
HETATM    5  C   UNL     1     -11.200   6.189  71.931  1.00  0.00    -0.336 C  
BRANCH   5   6
HETATM    6  C   UNL     1     -10.876   7.315  72.868  1.00  0.00    -0.380 C  
HETATM    7  C   UNL     1      -9.738   8.020  72.778  1.00  0.00    -0.348 C  
BRANCH   7   8
HETATM    8  C   UNL     1      -8.663   7.755  71.767  1.00  0.00    -0.147 C  
BRANCH   8   9
HETATM    9  C   UNL     1      -8.118   9.022  71.185  1.00  0.00    -0.185 C  
HETATM   10  C   UNL     1      -8.644   9.668  70.133  1.00  0.00    -0.243 C  
BRANCH  10  11
HETATM   11  C   UNL     1      -9.800   9.175  69.317  1.00  0.00    -0.175 C  
BRANCH  11  12
HETATM   12  C   UNL     1     -11.076   9.880  69.683  1.00  0.00    -0.279 C  
HETATM   13  C   UNL     1     -11.638  10.867  68.969  1.00  0.00    -0.387 C  
BRANCH  13  14
HETATM   14  C   UNL     1     -11.024  11.389  67.706  1.00  0.00    -0.301 C  
BRANCH  14  15
HETATM   15  C   UNL     1     -10.827  12.899  67.696  1.00  0.00    -0.252 C  
BRANCH  15  16
HETATM   16  C   UNL     1     -12.145  13.574  67.313  1.00  0.00    -0.367 C  
BRANCH  16  17
HETATM   17  C   UNL     1     -11.995  14.414  66.053  1.00  0.00    -0.377 C  
HETATM   18  C   UNL     1     -12.609  13.733  64.853  1.00  0.00    -0.341 C  
HETATM   19  O   UNL     1     -13.160  12.643  64.861  1.00  0.00    -0.850 OA 
HETATM   20  O   UNL     1     -12.483  14.472  63.726  1.00  0.00    -0.809 OA 
ENDBRANCH  16  17
ENDBRANCH  15  16
ENDBRANCH  14  15
ENDBRANCH  13  14
ENDBRANCH  11  12
ENDBRANCH  10  11
ENDBRANCH   8   9
ENDBRANCH   7   8
ENDBRANCH   5   6
ENDBRANCH   4   5
ENDBRANCH   3   4
ENDBRANCH   2   3
TORSDOF 12
ENDMDL
MODEL       98
REMARK 921   NORMALIZED FREE ENERGY PREDICTED BY IDOCK:   -4.20 KCAL/MOL
REMARK 922        TOTAL FREE ENERGY PREDICTED BY IDOCK:   -9.11 KCAL/MOL
REMARK 923 INTER-LIGAND FREE ENERGY PREDICTED BY IDOCK:   -7.67 KCAL/MOL
REMARK 924 INTRA-LIGAND FREE ENERGY PREDICTED BY IDOCK:   -1.44 KCAL/MOL
REMARK 927      BINDING AFFINITY PREDICTED BY RF-SCORE:    0.00 PKD
ROOT
HETATM    1  C   UNL     1     -12.912  11.087  71.462  1.00  0.00    -0.553 C  
HETATM    2  C   UNL     1     -12.867  12.600  71.350  1.00  0.00    -0.358 C  
ENDROOT
BRANCH   2   3
HETATM    3  C   UNL     1     -13.783  13.255  72.377  1.00  0.00    -0.678 C  
BRANCH   3   4
HETATM    4  C   UNL     1     -13.508  14.754  72.486  1.00  0.00    -0.546 C  
BRANCH   4   5
HETATM    5  C   UNL     1     -13.102  15.298  71.124  1.00  0.00    -0.546 C  
BRANCH   5   6
HETATM    6  C   UNL     1     -11.715  15.870  71.100  1.00  0.00    -0.490 C  
HETATM    7  C   UNL     1     -11.079  16.167  69.956  1.00  0.00    -0.363 C  
BRANCH   7   8
HETATM    8  C   UNL     1     -11.658  15.944  68.591  1.00  0.00    -0.383 C  
BRANCH   8   9
HETATM    9  C   UNL     1     -11.411  14.551  68.100  1.00  0.00    -0.337 C  
HETATM   10  C   UNL     1     -10.472  14.212  67.204  1.00  0.00    -0.270 C  
BRANCH  10  11
HETATM   11  C   UNL     1      -9.587  15.183  66.482  1.00  0.00    -0.293 C  
BRANCH  11  12
HETATM   12  C   UNL     1      -8.267  15.354  67.181  1.00  0.00    -0.250 C  
HETATM   13  C   UNL     1      -7.381  16.327  66.917  1.00  0.00    -0.266 C  
BRANCH  13  14
HETATM   14  C   UNL     1      -7.621  17.361  65.860  1.00  0.00    -0.106 C  
BRANCH  14  15
HETATM   15  C   UNL     1      -7.028  18.725  66.188  1.00  0.00    -0.285 C  
BRANCH  15  16
HETATM   16  C   UNL     1      -8.143  19.771  66.189  1.00  0.00    -0.357 C  
BRANCH  16  17
HETATM   17  C   UNL     1      -8.584  20.116  67.604  1.00  0.00    -0.369 C  
HETATM   18  C   UNL     1      -9.970  19.595  67.898  1.00  0.00    -0.411 C  
HETATM   19  O   UNL     1     -10.676  18.974  67.117  1.00  0.00    -0.447 OA 
HETATM   20  O   UNL     1     -10.373  19.895  69.155  1.00  0.00    -0.356 OA 
ENDBRANCH  16  17
ENDBRANCH  15  16
ENDBRANCH  14  15
ENDBRANCH  13  14
ENDBRANCH  11  12
ENDBRANCH  10  11
ENDBRANCH   8   9
ENDBRANCH   7   8
ENDBRANCH   5   6
ENDBRANCH   4   5
ENDBRANCH   3   4
ENDBRANCH   2   3
TORSDOF 12
ENDMDL
MODEL       99
REMARK 921   NORMALIZED FREE ENERGY PREDICTED BY IDOCK:   -4.20 KCAL/MOL
REMARK 922        TOTAL FREE ENERGY PREDICTED BY IDOCK:   -9.10 KCAL/MOL
REMARK 923 INTER-LIGAND FREE ENERGY PREDICTED BY IDOCK:   -6.79 KCAL/MOL
REMARK 924 INTRA-LIGAND FREE ENERGY PREDICTED BY IDOCK:   -2.31 KCAL/MOL
REMARK 927      BINDING AFFINITY PREDICTED BY RF-SCORE:    0.00 PKD
ROOT
HETATM    1  C   UNL     1      -7.476  10.284  67.284  1.00  0.00    -0.094 C  
HETATM    2  C   UNL     1      -8.305   9.423  68.220  1.00  0.00    -0.119 C  
ENDROOT
BRANCH   2   3
HETATM    3  C   UNL     1      -8.442  10.075  69.590  1.00  0.00    -0.193 C  
BRANCH   3   4
HETATM    4  C   UNL     1      -9.774   9.711  70.244  1.00  0.00    -0.314 C  
BRANCH   4   5
HETATM    5  C   UNL     1     -10.888   9.790  69.210  1.00  0.00    -0.240 C  
BRANCH   5   6
HETATM    6  C   UNL     1     -11.793  10.972  69.400  1.00  0.00    -0.407 C  
HETATM    7  C   UNL     1     -11.741  12.052  68.604  1.00  0.00    -0.380 C  
BRANCH   7   8
HETATM    8  C   UNL     1     -10.775  12.213  67.469  1.00  0.00    -0.265 C  
BRANCH   8   9
HETATM    9  C   UNL     1     -11.361  11.763  66.167  1.00  0.00    -0.342 C  
HETATM   10  C   UNL     1     -12.063  12.546  65.334  1.00  0.00    -0.494 C  
BRANCH  10  11
HETATM   11  C   UNL     1     -12.453  13.965  65.617  1.00  0.00    -0.538 C  
BRANCH  11  12
HETATM   12  C   UNL     1     -11.681  14.931  64.764  1.00  0.00    -0.402 C  
HETATM   13  C   UNL     1     -10.674  15.704  65.201  1.00  0.00    -0.463 C  
BRANCH  13  14
HETATM   14  C   UNL     1     -10.217  15.689  66.628  1.00  0.00    -0.283 C  
BRANCH  14  15
HETATM   15  C   UNL     1     -10.307  17.044  67.317  1.00  0.00    -0.311 C  
BRANCH  15  16
HETATM   16  C   UNL     1     -10.646  16.836  68.793  1.00  0.00    -0.348 C  
BRANCH  16  17
HETATM   17  C   UNL     1     -11.681  15.735  68.977  1.00  0.00    -0.405 C  
HETATM   18  C   UNL     1     -12.080  15.582  70.425  1.00  0.00    -0.392 C  
HETATM   19  O   UNL     1     -11.642  16.243  71.356  1.00  0.00    -0.448 OA 
HETATM   20  O   UNL     1     -13.002  14.607  70.601  1.00  0.00    -0.352 OA 
ENDBRANCH  16  17
ENDBRANCH  15  16
ENDBRANCH  14  15
ENDBRANCH  13  14
ENDBRANCH  11  12
ENDBRANCH  10  11
ENDBRANCH   8   9
ENDBRANCH   7   8
ENDBRANCH   5   6
ENDBRANCH   4   5
ENDBRANCH   3   4
ENDBRANCH   2   3
TORSDOF 12
ENDMDL
MODEL      100
REMARK 921   NORMALIZED FREE ENERGY PREDICTED BY IDOCK:   -4.18 KCAL/MOL
REMARK 922        TOTAL FREE ENERGY PREDICTED BY IDOCK:   -9.08 KCAL/MOL
REMARK 923 INTER-LIGAND FREE ENERGY PREDICTED BY IDOCK:   -7.89 KCAL/MOL
REMARK 924 INTRA-LIGAND FREE ENERGY PREDICTED BY IDOCK:   -1.19 KCAL/MOL
REMARK 927      BINDING AFFINITY PREDICTED BY RF-SCORE:    0.00 PKD
ROOT
HETATM    1  C   UNL     1     -11.013   6.714  66.961  1.00  0.00    -0.463 C  
HETATM    2  C   UNL     1      -9.991   6.227  67.973  1.00  0.00    -0.149 C  
ENDROOT
BRANCH   2   3
HETATM    3  C   UNL     1     -10.670   5.733  69.245  1.00  0.00    -0.386 C  
BRANCH   3   4
HETATM    4  C   UNL     1      -9.733   5.835  70.447  1.00  0.00    -0.224 C  
BRANCH   4   5
HETATM    5  C   UNL     1     -10.514   6.307  71.665  1.00  0.00    -0.258 C  
BRANCH   5   6
HETATM    6  C   UNL     1     -11.908   6.758  71.340  1.00  0.00    -0.385 C  
HETATM    7  C   UNL     1     -12.276   8.048  71.389  1.00  0.00    -0.335 C  
BRANCH   7   8
HETATM    8  C   UNL     1     -11.363   9.167  71.790  1.00  0.00    -0.451 C  
BRANCH   8   9
HETATM    9  C   UNL     1     -10.357   9.478  70.724  1.00  0.00    -0.377 C  
HETATM   10  C   UNL     1     -10.573  10.303  69.688  1.00  0.00    -0.288 C  
BRANCH  10  11
HETATM   11  C   UNL     1     -11.881  10.966  69.379  1.00  0.00    -0.400 C  
BRANCH  11  12
HETATM   12  C   UNL     1     -12.123  12.153  70.269  1.00  0.00    -0.385 C  
HETATM   13  C   UNL     1     -11.754  13.411  69.985  1.00  0.00    -0.297 C  
BRANCH  13  14
HETATM   14  C   UNL     1     -11.031  13.766  68.721  1.00  0.00    -0.289 C  
BRANCH  14  15
HETATM   15  C   UNL     1     -11.946  13.927  67.514  1.00  0.00    -0.421 C  
BRANCH  15  16
HETATM   16  C   UNL     1     -11.114  13.817  66.236  1.00  0.00    -0.302 C  
BRANCH  16  17
HETATM   17  C   UNL     1     -11.752  14.586  65.088  1.00  0.00    -0.376 C  
HETATM   18  C   UNL     1     -11.090  15.927  64.881  1.00  0.00    -0.389 C  
HETATM   19  O   UNL     1     -10.160  16.369  65.539  1.00  0.00    -0.508 OA 
HETATM   20  O   UNL     1     -11.648  16.621  63.861  1.00  0.00    -1.204 OA 
ENDBRANCH  16  17
ENDBRANCH  15  16
ENDBRANCH  14  15
ENDBRANCH  13  14
ENDBRANCH  11  12
ENDBRANCH  10  11
ENDBRANCH   8   9
ENDBRANCH   7   8
ENDBRANCH   5   6
ENDBRANCH   4   5
ENDBRANCH   3   4
ENDBRANCH   2   3
TORSDOF 12
ENDMDL
MODEL      101
REMARK 921   NORMALIZED FREE ENERGY PREDICTED BY IDOCK:   -4.18 KCAL/MOL
REMARK 922        TOTAL FREE ENERGY PREDICTED BY IDOCK:   -9.07 KCAL/MOL
REMARK 923 INTER-LIGAND FREE ENERGY PREDICTED BY IDOCK:   -7.05 KCAL/MOL
REMARK 924 INTRA-LIGAND FREE ENERGY PREDICTED BY IDOCK:   -2.02 KCAL/MOL
REMARK 927      BINDING AFFINITY PREDICTED BY RF-SCORE:    0.00 PKD
ROOT
HETATM    1  C   UNL     1      -9.239  15.252  68.426  1.00  0.00    -0.194 C  
HETATM    2  C   UNL     1     -10.686  15.684  68.267  1.00  0.00    -0.283 C  
ENDROOT
BRANCH   2   3
HETATM    3  C   UNL     1     -11.352  14.956  67.106  1.00  0.00    -0.348 C  
BRANCH   3   4
HETATM    4  C   UNL     1     -10.685  15.308  65.778  1.00  0.00    -0.357 C  
BRANCH   4   5
HETATM    5  C   UNL     1     -11.605  14.924  64.627  1.00  0.00    -0.395 C  
BRANCH   5   6
HETATM    6  C   UNL     1     -12.520  13.780  64.952  1.00  0.00    -0.420 C  
HETATM    7  C   UNL     1     -12.307  12.537  64.494  1.00  0.00    -0.545 C  
BRANCH   7   8
HETATM    8  C   UNL     1     -11.166  12.156  63.599  1.00  0.00    -0.540 C  
BRANCH   8   9
HETATM    9  C   UNL     1     -10.503  10.890  64.047  1.00  0.00    -0.379 C  
HETATM   10  C   UNL     1      -9.755  10.770  65.154  1.00  0.00    -0.319 C  
BRANCH  10  11
HETATM   11  C   UNL     1      -9.385  11.901  66.064  1.00  0.00    -0.215 C  
BRANCH  11  12
HETATM   12  C   UNL     1      -8.808  11.403  67.360  1.00  0.00    -0.150 C  
HETATM   13  C   UNL     1      -9.455  11.403  68.536  1.00  0.00    -0.183 C  
BRANCH  13  14
HETATM   14  C   UNL     1     -10.851  11.927  68.681  1.00  0.00    -0.273 C  
BRANCH  14  15
HETATM   15  C   UNL     1     -11.879  10.855  69.017  1.00  0.00    -0.370 C  
BRANCH  15  16
HETATM   16  C   UNL     1     -12.249  10.961  70.497  1.00  0.00    -0.459 C  
BRANCH  16  17
HETATM   17  C   UNL     1     -11.541   9.898  71.325  1.00  0.00    -0.456 C  
HETATM   18  C   UNL     1     -12.514   9.113  72.172  1.00  0.00    -0.366 C  
HETATM   19  O   UNL     1     -13.723   9.287  72.211  1.00  0.00    -0.447 OA 
HETATM   20  O   UNL     1     -11.896   8.163  72.913  1.00  0.00    -0.352 OA 
ENDBRANCH  16  17
ENDBRANCH  15  16
ENDBRANCH  14  15
ENDBRANCH  13  14
ENDBRANCH  11  12
ENDBRANCH  10  11
ENDBRANCH   8   9
ENDBRANCH   7   8
ENDBRANCH   5   6
ENDBRANCH   4   5
ENDBRANCH   3   4
ENDBRANCH   2   3
TORSDOF 12
ENDMDL
MODEL      102
REMARK 921   NORMALIZED FREE ENERGY PREDICTED BY IDOCK:   -4.18 KCAL/MOL
REMARK 922        TOTAL FREE ENERGY PREDICTED BY IDOCK:   -9.06 KCAL/MOL
REMARK 923 INTER-LIGAND FREE ENERGY PREDICTED BY IDOCK:   -7.17 KCAL/MOL
REMARK 924 INTRA-LIGAND FREE ENERGY PREDICTED BY IDOCK:   -1.90 KCAL/MOL
REMARK 927      BINDING AFFINITY PREDICTED BY RF-SCORE:    0.00 PKD
ROOT
HETATM    1  C   UNL     1     -10.555   5.633  70.446  1.00  0.00    -0.364 C  
HETATM    2  C   UNL     1     -11.378   6.351  69.392  1.00  0.00    -0.443 C  
ENDROOT
BRANCH   2   3
HETATM    3  C   UNL     1     -10.815   6.108  67.996  1.00  0.00    -0.398 C  
BRANCH   3   4
HETATM    4  C   UNL     1     -10.761   7.405  67.190  1.00  0.00    -0.400 C  
BRANCH   4   5
HETATM    5  C   UNL     1     -10.204   8.523  68.059  1.00  0.00    -0.264 C  
BRANCH   5   6
HETATM    6  C   UNL     1     -11.029   9.776  68.020  1.00  0.00    -0.236 C  
HETATM    7  C   UNL     1     -10.754  10.792  67.188  1.00  0.00    -0.324 C  
BRANCH   7   8
HETATM    8  C   UNL     1      -9.596  10.808  66.235  1.00  0.00    -0.234 C  
BRANCH   8   9
HETATM    9  C   UNL     1      -9.947  10.184  64.919  1.00  0.00    -0.358 C  
HETATM   10  C   UNL     1     -10.240  10.869  63.804  1.00  0.00    -0.407 C  
BRANCH  10  11
HETATM   11  C   UNL     1     -10.357  12.360  63.720  1.00  0.00    -0.454 C  
BRANCH  11  12
HETATM   12  C   UNL     1     -11.738  12.828  64.085  1.00  0.00    -0.465 C  
HETATM   13  C   UNL     1     -12.009  13.932  64.798  1.00  0.00    -0.426 C  
BRANCH  13  14
HETATM   14  C   UNL     1     -10.930  14.826  65.328  1.00  0.00    -0.382 C  
BRANCH  14  15
HETATM   15  C   UNL     1     -10.606  14.595  66.798  1.00  0.00    -0.288 C  
BRANCH  15  16
HETATM   16  C   UNL     1     -11.909  14.399  67.574  1.00  0.00    -0.418 C  
BRANCH  16  17
HETATM   17  C   UNL     1     -11.827  15.011  68.965  1.00  0.00    -0.330 C  
HETATM   18  C   UNL     1     -11.898  13.955  70.042  1.00  0.00    -0.315 C  
HETATM   19  O   UNL     1     -12.012  12.753  69.852  1.00  0.00    -0.321 OA 
HETATM   20  O   UNL     1     -11.825  14.486  71.285  1.00  0.00    -0.337 OA 
ENDBRANCH  16  17
ENDBRANCH  15  16
ENDBRANCH  14  15
ENDBRANCH  13  14
ENDBRANCH  11  12
ENDBRANCH  10  11
ENDBRANCH   8   9
ENDBRANCH   7   8
ENDBRANCH   5   6
ENDBRANCH   4   5
ENDBRANCH   3   4
ENDBRANCH   2   3
TORSDOF 12
ENDMDL
MODEL      103
REMARK 921   NORMALIZED FREE ENERGY PREDICTED BY IDOCK:   -4.17 KCAL/MOL
REMARK 922        TOTAL FREE ENERGY PREDICTED BY IDOCK:   -9.04 KCAL/MOL
REMARK 923 INTER-LIGAND FREE ENERGY PREDICTED BY IDOCK:   -7.13 KCAL/MOL
REMARK 924 INTRA-LIGAND FREE ENERGY PREDICTED BY IDOCK:   -1.92 KCAL/MOL
REMARK 927      BINDING AFFINITY PREDICTED BY RF-SCORE:    0.00 PKD
ROOT
HETATM    1  C   UNL     1     -12.913  14.365  70.797  1.00  0.00    -0.388 C  
HETATM    2  C   UNL     1     -13.136  13.137  71.662  1.00  0.00    -0.444 C  
ENDROOT
BRANCH   2   3
HETATM    3  C   UNL     1     -12.620  11.879  70.974  1.00  0.00    -0.381 C  
BRANCH   3   4
HETATM    4  C   UNL     1     -13.010  10.624  71.753  1.00  0.00    -0.577 C  
BRANCH   4   5
HETATM    5  C   UNL     1     -12.355   9.405  71.117  1.00  0.00    -0.386 C  
BRANCH   5   6
HETATM    6  C   UNL     1     -10.986   9.115  71.656  1.00  0.00    -0.445 C  
HETATM    7  C   UNL     1     -10.092   8.372  70.986  1.00  0.00    -0.242 C  
BRANCH   7   8
HETATM    8  C   UNL     1     -10.359   7.733  69.656  1.00  0.00    -0.212 C  
BRANCH   8   9
HETATM    9  C   UNL     1      -9.339   8.126  68.632  1.00  0.00    -0.143 C  
HETATM   10  C   UNL     1      -9.345   9.283  67.953  1.00  0.00    -0.143 C  
BRANCH  10  11
HETATM   11  C   UNL     1     -10.422  10.321  68.040  1.00  0.00    -0.234 C  
BRANCH  11  12
HETATM   12  C   UNL     1      -9.893  11.624  68.569  1.00  0.00    -0.196 C  
HETATM   13  C   UNL     1     -10.452  12.825  68.348  1.00  0.00    -0.253 C  
BRANCH  13  14
HETATM   14  C   UNL     1     -11.687  12.990  67.516  1.00  0.00    -0.421 C  
BRANCH  14  15
HETATM   15  C   UNL     1     -11.866  14.394  66.955  1.00  0.00    -0.433 C  
BRANCH  15  16
HETATM   16  C   UNL     1     -11.107  14.507  65.633  1.00  0.00    -0.327 C  
BRANCH  16  17
HETATM   17  C   UNL     1     -10.772  13.137  65.063  1.00  0.00    -0.338 C  
HETATM   18  C   UNL     1     -11.655  12.791  63.888  1.00  0.00    -0.452 C  
HETATM   19  O   UNL     1     -12.538  13.502  63.430  1.00  0.00    -0.740 OA 
HETATM   20  O   UNL     1     -11.366  11.574  63.371  1.00  0.00    -0.374 OA 
ENDBRANCH  16  17
ENDBRANCH  15  16
ENDBRANCH  14  15
ENDBRANCH  13  14
ENDBRANCH  11  12
ENDBRANCH  10  11
ENDBRANCH   8   9
ENDBRANCH   7   8
ENDBRANCH   5   6
ENDBRANCH   4   5
ENDBRANCH   3   4
ENDBRANCH   2   3
TORSDOF 12
ENDMDL
MODEL      104
REMARK 921   NORMALIZED FREE ENERGY PREDICTED BY IDOCK:   -4.16 KCAL/MOL
REMARK 922        TOTAL FREE ENERGY PREDICTED BY IDOCK:   -9.04 KCAL/MOL
REMARK 923 INTER-LIGAND FREE ENERGY PREDICTED BY IDOCK:   -7.57 KCAL/MOL
REMARK 924 INTRA-LIGAND FREE ENERGY PREDICTED BY IDOCK:   -1.47 KCAL/MOL
REMARK 927      BINDING AFFINITY PREDICTED BY RF-SCORE:    0.00 PKD
ROOT
HETATM    1  C   UNL     1     -11.088   5.999  69.629  1.00  0.00    -0.474 C  
HETATM    2  C   UNL     1     -11.172   6.614  71.015  1.00  0.00    -0.349 C  
ENDROOT
BRANCH   2   3
HETATM    3  C   UNL     1     -10.042   7.611  71.244  1.00  0.00    -0.203 C  
BRANCH   3   4
HETATM    4  C   UNL     1     -10.586   8.977  71.657  1.00  0.00    -0.434 C  
BRANCH   4   5
HETATM    5  C   UNL     1     -10.410   9.964  70.512  1.00  0.00    -0.298 C  
BRANCH   5   6
HETATM    6  C   UNL     1     -11.526   9.920  69.510  1.00  0.00    -0.120 C  
HETATM    7  C   UNL     1     -12.000  11.024  68.913  1.00  0.00    -0.332 C  
BRANCH   7   8
HETATM    8  C   UNL     1     -11.498  12.410  69.188  1.00  0.00    -0.358 C  
BRANCH   8   9
HETATM    9  C   UNL     1     -12.076  12.973  70.450  1.00  0.00    -0.391 C  
HETATM   10  C   UNL     1     -12.346  14.271  70.653  1.00  0.00    -0.431 C  
BRANCH  10  11
HETATM   11  C   UNL     1     -12.024  15.374  69.690  1.00  0.00    -0.366 C  
BRANCH  11  12
HETATM   12  C   UNL     1     -10.645  15.925  69.921  1.00  0.00    -0.327 C  
HETATM   13  C   UNL     1      -9.647  15.895  69.024  1.00  0.00    -0.247 C  
BRANCH  13  14
HETATM   14  C   UNL     1      -9.810  15.278  67.668  1.00  0.00    -0.217 C  
BRANCH  14  15
HETATM   15  C   UNL     1      -9.986  16.293  66.548  1.00  0.00    -0.290 C  
BRANCH  15  16
HETATM   16  C   UNL     1     -10.600  15.598  65.332  1.00  0.00    -0.436 C  
BRANCH  16  17
HETATM   17  C   UNL     1     -11.271  14.289  65.718  1.00  0.00    -0.317 C  
HETATM   18  C   UNL     1     -12.223  13.813  64.647  1.00  0.00    -0.406 C  
HETATM   19  O   UNL     1     -12.449  14.388  63.592  1.00  0.00    -0.805 OA 
HETATM   20  O   UNL     1     -12.826  12.648  64.978  1.00  0.00    -0.765 OA 
ENDBRANCH  16  17
ENDBRANCH  15  16
ENDBRANCH  14  15
ENDBRANCH  13  14
ENDBRANCH  11  12
ENDBRANCH  10  11
ENDBRANCH   8   9
ENDBRANCH   7   8
ENDBRANCH   5   6
ENDBRANCH   4   5
ENDBRANCH   3   4
ENDBRANCH   2   3
TORSDOF 12
ENDMDL
MODEL      105
REMARK 921   NORMALIZED FREE ENERGY PREDICTED BY IDOCK:   -4.16 KCAL/MOL
REMARK 922        TOTAL FREE ENERGY PREDICTED BY IDOCK:   -9.03 KCAL/MOL
REMARK 923 INTER-LIGAND FREE ENERGY PREDICTED BY IDOCK:   -7.23 KCAL/MOL
REMARK 924 INTRA-LIGAND FREE ENERGY PREDICTED BY IDOCK:   -1.79 KCAL/MOL
REMARK 927      BINDING AFFINITY PREDICTED BY RF-SCORE:    0.00 PKD
ROOT
HETATM    1  C   UNL     1     -11.499  10.364  70.567  1.00  0.00    -0.431 C  
HETATM    2  C   UNL     1     -12.472   9.935  71.651  1.00  0.00    -0.507 C  
ENDROOT
BRANCH   2   3
HETATM    3  C   UNL     1     -13.274  11.122  72.172  1.00  0.00    -0.297 C  
BRANCH   3   4
HETATM    4  C   UNL     1     -12.767  12.434  71.575  1.00  0.00    -0.333 C  
BRANCH   4   5
HETATM    5  C   UNL     1     -13.587  13.594  72.124  1.00  0.00    -0.632 C  
BRANCH   5   6
HETATM    6  C   UNL     1     -12.842  14.432  73.120  1.00  0.00    -0.492 C  
HETATM    7  C   UNL     1     -12.090  15.482  72.755  1.00  0.00    -0.551 C  
BRANCH   7   8
HETATM    8  C   UNL     1     -11.889  15.919  71.335  1.00  0.00    -0.524 C  
BRANCH   8   9
HETATM    9  C   UNL     1     -10.647  15.333  70.740  1.00  0.00    -0.071 C  
HETATM   10  C   UNL     1     -10.584  14.730  69.543  1.00  0.00    -0.200 C  
BRANCH  10  11
HETATM   11  C   UNL     1     -11.762  14.463  68.657  1.00  0.00    -0.367 C  
BRANCH  11  12
HETATM   12  C   UNL     1     -11.683  13.099  68.028  1.00  0.00    -0.394 C  
HETATM   13  C   UNL     1     -11.773  12.857  66.711  1.00  0.00    -0.445 C  
BRANCH  13  14
HETATM   14  C   UNL     1     -11.982  13.952  65.710  1.00  0.00    -0.419 C  
BRANCH  14  15
HETATM   15  C   UNL     1     -10.704  14.398  65.012  1.00  0.00    -0.440 C  
BRANCH  15  16
HETATM   16  C   UNL     1     -10.824  15.876  64.641  1.00  0.00    -0.234 C  
BRANCH  16  17
HETATM   17  C   UNL     1     -10.805  16.764  65.877  1.00  0.00    -0.053 C  
HETATM   18  C   UNL     1      -9.457  16.746  66.556  1.00  0.00    -0.266 C  
HETATM   19  O   UNL     1      -8.484  16.105  66.185  1.00  0.00    -0.327 OA 
HETATM   20  O   UNL     1      -9.427  17.533  67.656  1.00  0.00    -0.251 OA 
ENDBRANCH  16  17
ENDBRANCH  15  16
ENDBRANCH  14  15
ENDBRANCH  13  14
ENDBRANCH  11  12
ENDBRANCH  10  11
ENDBRANCH   8   9
ENDBRANCH   7   8
ENDBRANCH   5   6
ENDBRANCH   4   5
ENDBRANCH   3   4
ENDBRANCH   2   3
TORSDOF 12
ENDMDL
MODEL      106
REMARK 921   NORMALIZED FREE ENERGY PREDICTED BY IDOCK:   -4.16 KCAL/MOL
REMARK 922        TOTAL FREE ENERGY PREDICTED BY IDOCK:   -9.03 KCAL/MOL
REMARK 923 INTER-LIGAND FREE ENERGY PREDICTED BY IDOCK:   -7.84 KCAL/MOL
REMARK 924 INTRA-LIGAND FREE ENERGY PREDICTED BY IDOCK:   -1.19 KCAL/MOL
REMARK 927      BINDING AFFINITY PREDICTED BY RF-SCORE:    0.00 PKD
ROOT
HETATM    1  C   UNL     1      -9.692   9.754  65.287  1.00  0.00    -0.371 C  
HETATM    2  C   UNL     1      -9.309   8.856  66.449  1.00  0.00    -0.262 C  
ENDROOT
BRANCH   2   3
HETATM    3  C   UNL     1     -10.513   8.070  66.956  1.00  0.00    -0.410 C  
BRANCH   3   4
HETATM    4  C   UNL     1     -10.335   7.671  68.420  1.00  0.00    -0.228 C  
BRANCH   4   5
HETATM    5  C   UNL     1      -9.381   8.642  69.101  1.00  0.00    -0.153 C  
BRANCH   5   6
HETATM    6  C   UNL     1      -9.422   8.566  70.598  1.00  0.00    -0.203 C  
HETATM    7  C   UNL     1     -10.348   9.211  71.326  1.00  0.00    -0.405 C  
BRANCH   7   8
HETATM    8  C   UNL     1     -11.416  10.086  70.741  1.00  0.00    -0.438 C  
BRANCH   8   9
HETATM    9  C   UNL     1     -12.682  10.031  71.537  1.00  0.00    -0.532 C  
HETATM   10  C   UNL     1     -13.386  11.104  71.928  1.00  0.00    -0.409 C  
BRANCH  10  11
HETATM   11  C   UNL     1     -12.968  12.527  71.713  1.00  0.00    -0.419 C  
BRANCH  11  12
HETATM   12  C   UNL     1     -13.822  13.480  72.502  1.00  0.00    -0.624 C  
HETATM   13  C   UNL     1     -13.929  14.795  72.258  1.00  0.00    -0.598 C  
BRANCH  13  14
HETATM   14  C   UNL     1     -13.175  15.465  71.150  1.00  0.00    -0.583 C  
BRANCH  14  15
HETATM   15  C   UNL     1     -11.801  15.977  71.562  1.00  0.00    -0.554 C  
BRANCH  15  16
HETATM   16  C   UNL     1     -10.905  16.059  70.327  1.00  0.00    -0.327 C  
BRANCH  16  17
HETATM   17  C   UNL     1     -11.324  15.053  69.265  1.00  0.00    -0.311 C  
HETATM   18  C   UNL     1     -11.196  15.625  67.874  1.00  0.00    -0.328 C  
HETATM   19  O   UNL     1     -10.810  16.752  67.602  1.00  0.00    -0.326 OA 
HETATM   20  O   UNL     1     -11.566  14.738  66.920  1.00  0.00    -0.359 OA 
ENDBRANCH  16  17
ENDBRANCH  15  16
ENDBRANCH  14  15
ENDBRANCH  13  14
ENDBRANCH  11  12
ENDBRANCH  10  11
ENDBRANCH   8   9
ENDBRANCH   7   8
ENDBRANCH   5   6
ENDBRANCH   4   5
ENDBRANCH   3   4
ENDBRANCH   2   3
TORSDOF 12
ENDMDL
MODEL      107
REMARK 921   NORMALIZED FREE ENERGY PREDICTED BY IDOCK:   -4.16 KCAL/MOL
REMARK 922        TOTAL FREE ENERGY PREDICTED BY IDOCK:   -9.03 KCAL/MOL
REMARK 923 INTER-LIGAND FREE ENERGY PREDICTED BY IDOCK:   -7.46 KCAL/MOL
REMARK 924 INTRA-LIGAND FREE ENERGY PREDICTED BY IDOCK:   -1.57 KCAL/MOL
REMARK 927      BINDING AFFINITY PREDICTED BY RF-SCORE:    0.00 PKD
ROOT
HETATM    1  C   UNL     1      -9.282   4.397  72.075  1.00  0.00    -0.169 C  
HETATM    2  C   UNL     1      -9.675   4.753  73.498  1.00  0.00    -0.153 C  
ENDROOT
BRANCH   2   3
HETATM    3  C   UNL     1     -10.885   5.679  73.518  1.00  0.00    -0.295 C  
BRANCH   3   4
HETATM    4  C   UNL     1     -10.478   7.126  73.246  1.00  0.00    -0.391 C  
BRANCH   4   5
HETATM    5  C   UNL     1     -11.514   7.786  72.346  1.00  0.00    -0.418 C  
BRANCH   5   6
HETATM    6  C   UNL     1     -12.157   6.834  71.381  1.00  0.00    -0.415 C  
HETATM    7  C   UNL     1     -11.592   6.509  70.208  1.00  0.00    -0.473 C  
BRANCH   7   8
HETATM    8  C   UNL     1     -10.289   7.065  69.720  1.00  0.00    -0.225 C  
BRANCH   8   9
HETATM    9  C   UNL     1     -10.418   7.689  68.365  1.00  0.00    -0.208 C  
HETATM   10  C   UNL     1     -10.299   9.001  68.113  1.00  0.00    -0.262 C  
BRANCH  10  11
HETATM   11  C   UNL     1     -10.112  10.060  69.157  1.00  0.00    -0.219 C  
BRANCH  11  12
HETATM   12  C   UNL     1     -11.415  10.717  69.517  1.00  0.00    -0.365 C  
HETATM   13  C   UNL     1     -11.840  11.893  69.029  1.00  0.00    -0.368 C  
BRANCH  13  14
HETATM   14  C   UNL     1     -11.027  12.696  68.060  1.00  0.00    -0.266 C  
BRANCH  14  15
HETATM   15  C   UNL     1     -11.187  12.256  66.611  1.00  0.00    -0.367 C  
BRANCH  15  16
HETATM   16  C   UNL     1     -12.350  13.021  65.979  1.00  0.00    -0.387 C  
BRANCH  16  17
HETATM   17  C   UNL     1     -11.969  14.462  65.673  1.00  0.00    -0.356 C  
HETATM   18  C   UNL     1     -12.268  14.825  64.238  1.00  0.00    -0.379 C  
HETATM   19  O   UNL     1     -12.752  14.076  63.402  1.00  0.00    -0.796 OA 
HETATM   20  O   UNL     1     -11.934  16.105  63.954  1.00  0.00    -0.947 OA 
ENDBRANCH  16  17
ENDBRANCH  15  16
ENDBRANCH  14  15
ENDBRANCH  13  14
ENDBRANCH  11  12
ENDBRANCH  10  11
ENDBRANCH   8   9
ENDBRANCH   7   8
ENDBRANCH   5   6
ENDBRANCH   4   5
ENDBRANCH   3   4
ENDBRANCH   2   3
TORSDOF 12
ENDMDL
MODEL      108
REMARK 921   NORMALIZED FREE ENERGY PREDICTED BY IDOCK:   -4.15 KCAL/MOL
REMARK 922        TOTAL FREE ENERGY PREDICTED BY IDOCK:   -9.03 KCAL/MOL
REMARK 923 INTER-LIGAND FREE ENERGY PREDICTED BY IDOCK:   -6.85 KCAL/MOL
REMARK 924 INTRA-LIGAND FREE ENERGY PREDICTED BY IDOCK:   -2.17 KCAL/MOL
REMARK 927      BINDING AFFINITY PREDICTED BY RF-SCORE:    0.00 PKD
ROOT
HETATM    1  C   UNL     1     -12.834   7.727  71.540  1.00  0.00    -0.357 C  
HETATM    2  C   UNL     1     -12.000   8.942  71.906  1.00  0.00    -0.441 C  
ENDROOT
BRANCH   2   3
HETATM    3  C   UNL     1     -10.614   8.867  71.277  1.00  0.00    -0.351 C  
BRANCH   3   4
HETATM    4  C   UNL     1      -9.576   8.377  72.285  1.00  0.00    -0.374 C  
BRANCH   4   5
HETATM    5  C   UNL     1      -8.896   7.125  71.749  1.00  0.00    -0.129 C  
BRANCH   5   6
HETATM    6  C   UNL     1      -9.644   5.862  72.060  1.00  0.00    -0.167 C  
HETATM    7  C   UNL     1     -10.021   4.997  71.106  1.00  0.00    -0.276 C  
BRANCH   7   8
HETATM    8  C   UNL     1      -9.768   5.197  69.642  1.00  0.00    -0.255 C  
BRANCH   8   9
HETATM    9  C   UNL     1     -10.917   5.876  68.963  1.00  0.00    -0.359 C  
HETATM   10  C   UNL     1     -10.801   6.731  67.936  1.00  0.00    -0.320 C  
BRANCH  10  11
HETATM   11  C   UNL     1      -9.501   7.216  67.368  1.00  0.00    -0.156 C  
BRANCH  11  12
HETATM   12  C   UNL     1      -9.084   8.525  67.978  1.00  0.00    -0.144 C  
HETATM   13  C   UNL     1      -9.466   9.733  67.534  1.00  0.00    -0.170 C  
BRANCH  13  14
HETATM   14  C   UNL     1     -10.360   9.900  66.343  1.00  0.00    -0.246 C  
BRANCH  14  15
HETATM   15  C   UNL     1      -9.609  10.091  65.033  1.00  0.00    -0.362 C  
BRANCH  15  16
HETATM   16  C   UNL     1     -10.388  11.063  64.145  1.00  0.00    -0.434 C  
BRANCH  16  17
HETATM   17  C   UNL     1     -11.077  12.141  64.969  1.00  0.00    -0.368 C  
HETATM   18  C   UNL     1     -12.439  12.480  64.415  1.00  0.00    -0.446 C  
HETATM   19  O   UNL     1     -12.951  11.972  63.428  1.00  0.00    -0.772 OA 
HETATM   20  O   UNL     1     -13.063  13.437  65.140  1.00  0.00    -0.724 OA 
ENDBRANCH  16  17
ENDBRANCH  15  16
ENDBRANCH  14  15
ENDBRANCH  13  14
ENDBRANCH  11  12
ENDBRANCH  10  11
ENDBRANCH   8   9
ENDBRANCH   7   8
ENDBRANCH   5   6
ENDBRANCH   4   5
ENDBRANCH   3   4
ENDBRANCH   2   3
TORSDOF 12
ENDMDL
MODEL      109
REMARK 921   NORMALIZED FREE ENERGY PREDICTED BY IDOCK:   -4.15 KCAL/MOL
REMARK 922        TOTAL FREE ENERGY PREDICTED BY IDOCK:   -9.02 KCAL/MOL
REMARK 923 INTER-LIGAND FREE ENERGY PREDICTED BY IDOCK:   -7.67 KCAL/MOL
REMARK 924 INTRA-LIGAND FREE ENERGY PREDICTED BY IDOCK:   -1.35 KCAL/MOL
REMARK 927      BINDING AFFINITY PREDICTED BY RF-SCORE:    0.00 PKD
ROOT
HETATM    1  C   UNL     1     -14.398   8.461  71.954  1.00  0.00    -0.561 C  
HETATM    2  C   UNL     1     -13.351   9.560  71.926  1.00  0.00    -0.518 C  
ENDROOT
BRANCH   2   3
HETATM    3  C   UNL     1     -11.943   8.979  71.966  1.00  0.00    -0.433 C  
BRANCH   3   4
HETATM    4  C   UNL     1     -11.975   7.469  72.200  1.00  0.00    -0.323 C  
BRANCH   4   5
HETATM    5  C   UNL     1     -10.614   6.873  71.869  1.00  0.00    -0.236 C  
BRANCH   5   6
HETATM    6  C   UNL     1     -10.687   5.456  71.380  1.00  0.00    -0.258 C  
HETATM    7  C   UNL     1     -10.167   5.075  70.203  1.00  0.00    -0.329 C  
BRANCH   7   8
HETATM    8  C   UNL     1      -9.487   6.005  69.244  1.00  0.00    -0.152 C  
BRANCH   8   9
HETATM    9  C   UNL     1     -10.349   6.316  68.060  1.00  0.00    -0.236 C  
HETATM   10  C   UNL     1     -10.488   7.534  67.515  1.00  0.00    -0.341 C  
BRANCH  10  11
HETATM   11  C   UNL     1      -9.881   8.791  68.061  1.00  0.00    -0.201 C  
BRANCH  11  12
HETATM   12  C   UNL     1     -10.899   9.629  68.782  1.00  0.00    -0.199 C  
HETATM   13  C   UNL     1     -11.403  10.785  68.322  1.00  0.00    -0.376 C  
BRANCH  13  14
HETATM   14  C   UNL     1     -10.978  11.378  67.013  1.00  0.00    -0.347 C  
BRANCH  14  15
HETATM   15  C   UNL     1     -11.747  12.635  66.629  1.00  0.00    -0.464 C  
BRANCH  15  16
HETATM   16  C   UNL     1     -10.784  13.638  65.993  1.00  0.00    -0.280 C  
BRANCH  16  17
HETATM   17  C   UNL     1     -11.523  14.648  65.127  1.00  0.00    -0.375 C  
HETATM   18  C   UNL     1     -10.733  15.925  64.965  1.00  0.00    -0.404 C  
HETATM   19  O   UNL     1      -9.637  16.150  65.458  1.00  0.00    -0.447 OA 
HETATM   20  O   UNL     1     -11.379  16.832  64.196  1.00  0.00    -1.194 OA 
ENDBRANCH  16  17
ENDBRANCH  15  16
ENDBRANCH  14  15
ENDBRANCH  13  14
ENDBRANCH  11  12
ENDBRANCH  10  11
ENDBRANCH   8   9
ENDBRANCH   7   8
ENDBRANCH   5   6
ENDBRANCH   4   5
ENDBRANCH   3   4
ENDBRANCH   2   3
TORSDOF 12
ENDMDL
MODEL      110
REMARK 921   NORMALIZED FREE ENERGY PREDICTED BY IDOCK:   -4.15 KCAL/MOL
REMARK 922        TOTAL FREE ENERGY PREDICTED BY IDOCK:   -9.01 KCAL/MOL
REMARK 923 INTER-LIGAND FREE ENERGY PREDICTED BY IDOCK:   -7.45 KCAL/MOL
REMARK 924 INTRA-LIGAND FREE ENERGY PREDICTED BY IDOCK:   -1.57 KCAL/MOL
REMARK 927      BINDING AFFINITY PREDICTED BY RF-SCORE:    0.00 PKD
ROOT
HETATM    1  C   UNL     1     -14.313  15.553  72.323  1.00  0.00    -0.556 C  
HETATM    2  C   UNL     1     -13.038  15.756  73.122  1.00  0.00    -0.669 C  
ENDROOT
BRANCH   2   3
HETATM    3  C   UNL     1     -11.807  15.647  72.231  1.00  0.00    -0.578 C  
BRANCH   3   4
HETATM    4  C   UNL     1     -11.947  14.497  71.235  1.00  0.00    -0.396 C  
BRANCH   4   5
HETATM    5  C   UNL     1     -11.611  14.991  69.835  1.00  0.00    -0.328 C  
BRANCH   5   6
HETATM    6  C   UNL     1     -10.992  16.357  69.818  1.00  0.00    -0.341 C  
HETATM    7  C   UNL     1     -10.503  16.911  68.698  1.00  0.00    -0.352 C  
BRANCH   7   8
HETATM    8  C   UNL     1     -10.493  16.233  67.360  1.00  0.00    -0.304 C  
BRANCH   8   9
HETATM    9  C   UNL     1      -9.123  15.763  66.981  1.00  0.00    -0.240 C  
HETATM   10  C   UNL     1      -8.682  14.503  67.118  1.00  0.00    -0.237 C  
BRANCH  10  11
HETATM   11  C   UNL     1      -9.455  13.391  67.759  1.00  0.00    -0.210 C  
BRANCH  11  12
HETATM   12  C   UNL     1      -8.615  12.155  67.921  1.00  0.00    -0.167 C  
HETATM   13  C   UNL     1      -8.967  10.930  67.501  1.00  0.00    -0.136 C  
BRANCH  13  14
HETATM   14  C   UNL     1     -10.276  10.663  66.822  1.00  0.00    -0.284 C  
BRANCH  14  15
HETATM   15  C   UNL     1     -10.141   9.928  65.495  1.00  0.00    -0.297 C  
BRANCH  15  16
HETATM   16  C   UNL     1      -9.967  10.950  64.371  1.00  0.00    -0.381 C  
BRANCH  16  17
HETATM   17  C   UNL     1     -11.306  11.512  63.915  1.00  0.00    -0.400 C  
HETATM   18  C   UNL     1     -11.327  13.020  63.977  1.00  0.00    -0.410 C  
HETATM   19  O   UNL     1     -10.402  13.729  64.345  1.00  0.00    -0.415 OA 
HETATM   20  O   UNL     1     -12.513  13.532  63.572  1.00  0.00    -0.745 OA 
ENDBRANCH  16  17
ENDBRANCH  15  16
ENDBRANCH  14  15
ENDBRANCH  13  14
ENDBRANCH  11  12
ENDBRANCH  10  11
ENDBRANCH   8   9
ENDBRANCH   7   8
ENDBRANCH   5   6
ENDBRANCH   4   5
ENDBRANCH   3   4
ENDBRANCH   2   3
TORSDOF 12
ENDMDL
MODEL      111
REMARK 921   NORMALIZED FREE ENERGY PREDICTED BY IDOCK:   -4.14 KCAL/MOL
REMARK 922        TOTAL FREE ENERGY PREDICTED BY IDOCK:   -9.01 KCAL/MOL
REMARK 923 INTER-LIGAND FREE ENERGY PREDICTED BY IDOCK:   -7.30 KCAL/MOL
REMARK 924 INTRA-LIGAND FREE ENERGY PREDICTED BY IDOCK:   -1.70 KCAL/MOL
REMARK 927      BINDING AFFINITY PREDICTED BY RF-SCORE:    0.00 PKD
ROOT
HETATM    1  C   UNL     1     -14.036   8.948  71.953  1.00  0.00    -0.453 C  
HETATM    2  C   UNL     1     -12.755   9.755  72.066  1.00  0.00    -0.463 C  
ENDROOT
BRANCH   2   3
HETATM    3  C   UNL     1     -11.529   8.861  71.923  1.00  0.00    -0.442 C  
BRANCH   3   4
HETATM    4  C   UNL     1     -11.790   7.717  70.945  1.00  0.00    -0.272 C  
BRANCH   4   5
HETATM    5  C   UNL     1     -10.555   6.831  70.854  1.00  0.00    -0.252 C  
BRANCH   5   6
HETATM    6  C   UNL     1     -10.697   5.711  69.866  1.00  0.00    -0.399 C  
HETATM    7  C   UNL     1     -10.228   5.795  68.611  1.00  0.00    -0.254 C  
BRANCH   7   8
HETATM    8  C   UNL     1      -9.541   7.004  68.051  1.00  0.00    -0.133 C  
BRANCH   8   9
HETATM    9  C   UNL     1     -10.440   7.789  67.146  1.00  0.00    -0.413 C  
HETATM   10  C   UNL     1     -10.376   9.118  66.971  1.00  0.00    -0.333 C  
BRANCH  10  11
HETATM   11  C   UNL     1      -9.461  10.037  67.721  1.00  0.00    -0.157 C  
BRANCH  11  12
HETATM   12  C   UNL     1     -10.076  10.495  69.014  1.00  0.00    -0.230 C  
HETATM   13  C   UNL     1     -11.086  11.374  69.114  1.00  0.00    -0.317 C  
BRANCH  13  14
HETATM   14  C   UNL     1     -11.709  12.014  67.911  1.00  0.00    -0.393 C  
BRANCH  14  15
HETATM   15  C   UNL     1     -11.542  13.527  67.865  1.00  0.00    -0.377 C  
BRANCH  15  16
HETATM   16  C   UNL     1     -11.366  13.968  66.412  1.00  0.00    -0.338 C  
BRANCH  16  17
HETATM   17  C   UNL     1     -12.441  13.374  65.514  1.00  0.00    -0.534 C  
HETATM   18  C   UNL     1     -11.847  12.734  64.282  1.00  0.00    -0.396 C  
HETATM   19  O   UNL     1     -10.656  12.686  64.011  1.00  0.00    -0.380 OA 
HETATM   20  O   UNL     1     -12.794  12.201  63.476  1.00  0.00    -0.768 OA 
ENDBRANCH  16  17
ENDBRANCH  15  16
ENDBRANCH  14  15
ENDBRANCH  13  14
ENDBRANCH  11  12
ENDBRANCH  10  11
ENDBRANCH   8   9
ENDBRANCH   7   8
ENDBRANCH   5   6
ENDBRANCH   4   5
ENDBRANCH   3   4
ENDBRANCH   2   3
TORSDOF 12
ENDMDL
MODEL      112
REMARK 921   NORMALIZED FREE ENERGY PREDICTED BY IDOCK:   -4.14 KCAL/MOL
REMARK 922        TOTAL FREE ENERGY PREDICTED BY IDOCK:   -9.00 KCAL/MOL
REMARK 923 INTER-LIGAND FREE ENERGY PREDICTED BY IDOCK:   -7.09 KCAL/MOL
REMARK 924 INTRA-LIGAND FREE ENERGY PREDICTED BY IDOCK:   -1.92 KCAL/MOL
REMARK 927      BINDING AFFINITY PREDICTED BY RF-SCORE:    0.00 PKD
ROOT
HETATM    1  C   UNL     1     -14.068   8.552  71.613  1.00  0.00    -0.482 C  
HETATM    2  C   UNL     1     -13.274   9.801  71.952  1.00  0.00    -0.545 C  
ENDROOT
BRANCH   2   3
HETATM    3  C   UNL     1     -12.161  10.036  70.938  1.00  0.00    -0.448 C  
BRANCH   3   4
HETATM    4  C   UNL     1     -12.147  11.487  70.460  1.00  0.00    -0.472 C  
BRANCH   4   5
HETATM    5  C   UNL     1     -11.914  11.527  68.956  1.00  0.00    -0.377 C  
BRANCH   5   6
HETATM    6  C   UNL     1     -10.860  12.511  68.543  1.00  0.00    -0.271 C  
HETATM    7  C   UNL     1     -10.921  13.185  67.384  1.00  0.00    -0.283 C  
BRANCH   7   8
HETATM    8  C   UNL     1     -12.016  13.020  66.373  1.00  0.00    -0.466 C  
BRANCH   8   9
HETATM    9  C   UNL     1     -11.655  13.626  65.053  1.00  0.00    -0.345 C  
HETATM   10  C   UNL     1     -11.332  12.928  63.954  1.00  0.00    -0.489 C  
BRANCH  10  11
HETATM   11  C   UNL     1     -11.188  11.437  63.899  1.00  0.00    -0.364 C  
BRANCH  11  12
HETATM   12  C   UNL     1      -9.763  11.010  64.116  1.00  0.00    -0.332 C  
HETATM   13  C   UNL     1      -9.341  10.241  65.132  1.00  0.00    -0.279 C  
BRANCH  13  14
HETATM   14  C   UNL     1     -10.272   9.728  66.187  1.00  0.00    -0.278 C  
BRANCH  14  15
HETATM   15  C   UNL     1      -9.939   8.324  66.673  1.00  0.00    -0.348 C  
BRANCH  15  16
HETATM   16  C   UNL     1     -10.384   8.177  68.128  1.00  0.00    -0.251 C  
BRANCH  16  17
HETATM   17  C   UNL     1      -9.805   6.921  68.764  1.00  0.00    -0.149 C  
HETATM   18  C   UNL     1     -10.839   6.185  69.582  1.00  0.00    -0.356 C  
HETATM   19  O   UNL     1     -12.001   6.531  69.736  1.00  0.00    -0.277 OA 
HETATM   20  O   UNL     1     -10.337   5.065  70.153  1.00  0.00    -0.273 OA 
ENDBRANCH  16  17
ENDBRANCH  15  16
ENDBRANCH  14  15
ENDBRANCH  13  14
ENDBRANCH  11  12
ENDBRANCH  10  11
ENDBRANCH   8   9
ENDBRANCH   7   8
ENDBRANCH   5   6
ENDBRANCH   4   5
ENDBRANCH   3   4
ENDBRANCH   2   3
TORSDOF 12
ENDMDL
MODEL      113
REMARK 921   NORMALIZED FREE ENERGY PREDICTED BY IDOCK:   -4.14 KCAL/MOL
REMARK 922        TOTAL FREE ENERGY PREDICTED BY IDOCK:   -9.00 KCAL/MOL
REMARK 923 INTER-LIGAND FREE ENERGY PREDICTED BY IDOCK:   -7.13 KCAL/MOL
REMARK 924 INTRA-LIGAND FREE ENERGY PREDICTED BY IDOCK:   -1.87 KCAL/MOL
REMARK 927      BINDING AFFINITY PREDICTED BY RF-SCORE:    0.00 PKD
ROOT
HETATM    1  C   UNL     1      -9.936   5.322  69.568  1.00  0.00    -0.297 C  
HETATM    2  C   UNL     1     -11.219   6.109  69.769  1.00  0.00    -0.494 C  
ENDROOT
BRANCH   2   3
HETATM    3  C   UNL     1     -11.364   6.561  71.218  1.00  0.00    -0.355 C  
BRANCH   3   4
HETATM    4  C   UNL     1     -12.719   7.226  71.455  1.00  0.00    -0.422 C  
BRANCH   4   5
HETATM    5  C   UNL     1     -12.551   8.394  72.416  1.00  0.00    -0.372 C  
BRANCH   5   6
HETATM    6  C   UNL     1     -13.428   9.566  72.088  1.00  0.00    -0.535 C  
HETATM    7  C   UNL     1     -13.030  10.555  71.272  1.00  0.00    -0.532 C  
BRANCH   7   8
HETATM    8  C   UNL     1     -11.679  10.619  70.625  1.00  0.00    -0.454 C  
BRANCH   8   9
HETATM    9  C   UNL     1     -11.707  10.102  69.220  1.00  0.00    -0.065 C  
HETATM   10  C   UNL     1     -10.654   9.573  68.580  1.00  0.00    -0.247 C  
BRANCH  10  11
HETATM   11  C   UNL     1      -9.263   9.503  69.133  1.00  0.00    -0.163 C  
BRANCH  11  12
HETATM   12  C   UNL     1      -8.516  10.789  68.917  1.00  0.00    -0.149 C  
HETATM   13  C   UNL     1      -8.200  11.299  67.716  1.00  0.00    -0.120 C  
BRANCH  13  14
HETATM   14  C   UNL     1      -8.560  10.610  66.436  1.00  0.00    -0.151 C  
BRANCH  14  15
HETATM   15  C   UNL     1      -9.298  11.500  65.444  1.00  0.00    -0.177 C  
BRANCH  15  16
HETATM   16  C   UNL     1     -10.778  11.117  65.432  1.00  0.00    -0.259 C  
BRANCH  16  17
HETATM   17  C   UNL     1     -11.655  12.264  65.914  1.00  0.00    -0.450 C  
HETATM   18  C   UNL     1     -12.599  12.735  64.835  1.00  0.00    -0.470 C  
HETATM   19  O   UNL     1     -12.672  12.275  63.704  1.00  0.00    -0.713 OA 
HETATM   20  O   UNL     1     -13.386  13.754  65.252  1.00  0.00    -0.710 OA 
ENDBRANCH  16  17
ENDBRANCH  15  16
ENDBRANCH  14  15
ENDBRANCH  13  14
ENDBRANCH  11  12
ENDBRANCH  10  11
ENDBRANCH   8   9
ENDBRANCH   7   8
ENDBRANCH   5   6
ENDBRANCH   4   5
ENDBRANCH   3   4
ENDBRANCH   2   3
TORSDOF 12
ENDMDL
MODEL      114
REMARK 921   NORMALIZED FREE ENERGY PREDICTED BY IDOCK:   -4.13 KCAL/MOL
REMARK 922        TOTAL FREE ENERGY PREDICTED BY IDOCK:   -8.99 KCAL/MOL
REMARK 923 INTER-LIGAND FREE ENERGY PREDICTED BY IDOCK:   -7.31 KCAL/MOL
REMARK 924 INTRA-LIGAND FREE ENERGY PREDICTED BY IDOCK:   -1.68 KCAL/MOL
REMARK 927      BINDING AFFINITY PREDICTED BY RF-SCORE:    0.00 PKD
ROOT
HETATM    1  C   UNL     1     -10.814  16.732  68.027  1.00  0.00    -0.341 C  
HETATM    2  C   UNL     1      -9.856  16.574  66.860  1.00  0.00    -0.262 C  
ENDROOT
BRANCH   2   3
HETATM    3  C   UNL     1     -10.427  17.195  65.591  1.00  0.00    -0.208 C  
BRANCH   3   4
HETATM    4  C   UNL     1     -11.243  16.176  64.797  1.00  0.00    -0.313 C  
BRANCH   4   5
HETATM    5  C   UNL     1     -10.584  14.807  64.897  1.00  0.00    -0.431 C  
BRANCH   5   6
HETATM    6  C   UNL     1     -11.557  13.669  64.794  1.00  0.00    -0.374 C  
HETATM    7  C   UNL     1     -12.055  13.050  65.876  1.00  0.00    -0.503 C  
BRANCH   7   8
HETATM    8  C   UNL     1     -11.688  13.398  67.287  1.00  0.00    -0.424 C  
BRANCH   8   9
HETATM    9  C   UNL     1     -10.552  12.564  67.792  1.00  0.00    -0.235 C  
HETATM   10  C   UNL     1     -10.685  11.494  68.590  1.00  0.00    -0.242 C  
BRANCH  10  11
HETATM   11  C   UNL     1     -11.979  11.022  69.181  1.00  0.00    -0.394 C  
BRANCH  11  12
HETATM   12  C   UNL     1     -12.240  11.656  70.519  1.00  0.00    -0.451 C  
HETATM   13  C   UNL     1     -12.929  11.081  71.517  1.00  0.00    -0.553 C  
BRANCH  13  14
HETATM   14  C   UNL     1     -13.535   9.717  71.387  1.00  0.00    -0.397 C  
BRANCH  14  15
HETATM   15  C   UNL     1     -13.126   8.755  72.494  1.00  0.00    -0.392 C  
BRANCH  15  16
HETATM   16  C   UNL     1     -12.061   7.798  71.959  1.00  0.00    -0.351 C  
BRANCH  16  17
HETATM   17  C   UNL     1     -10.817   7.800  72.835  1.00  0.00    -0.453 C  
HETATM   18  C   UNL     1      -9.694   8.587  72.205  1.00  0.00    -0.317 C  
HETATM   19  O   UNL     1      -9.745   9.159  71.126  1.00  0.00    -0.269 OA 
HETATM   20  O   UNL     1      -8.581   8.598  72.976  1.00  0.00    -0.395 OA 
ENDBRANCH  16  17
ENDBRANCH  15  16
ENDBRANCH  14  15
ENDBRANCH  13  14
ENDBRANCH  11  12
ENDBRANCH  10  11
ENDBRANCH   8   9
ENDBRANCH   7   8
ENDBRANCH   5   6
ENDBRANCH   4   5
ENDBRANCH   3   4
ENDBRANCH   2   3
TORSDOF 12
ENDMDL
MODEL      115
REMARK 921   NORMALIZED FREE ENERGY PREDICTED BY IDOCK:   -4.12 KCAL/MOL
REMARK 922        TOTAL FREE ENERGY PREDICTED BY IDOCK:   -8.97 KCAL/MOL
REMARK 923 INTER-LIGAND FREE ENERGY PREDICTED BY IDOCK:   -6.75 KCAL/MOL
REMARK 924 INTRA-LIGAND FREE ENERGY PREDICTED BY IDOCK:   -2.22 KCAL/MOL
REMARK 927      BINDING AFFINITY PREDICTED BY RF-SCORE:    0.00 PKD
ROOT
HETATM    1  C   UNL     1      -9.650  13.608  67.977  1.00  0.00    -0.216 C  
HETATM    2  C   UNL     1     -11.140  13.692  67.698  1.00  0.00    -0.293 C  
ENDROOT
BRANCH   2   3
HETATM    3  C   UNL     1     -11.833  12.371  68.010  1.00  0.00    -0.376 C  
BRANCH   3   4
HETATM    4  C   UNL     1     -11.834  12.090  69.512  1.00  0.00    -0.390 C  
BRANCH   4   5
HETATM    5  C   UNL     1     -12.438  10.717  69.773  1.00  0.00    -0.231 C  
BRANCH   5   6
HETATM    6  C   UNL     1     -12.383  10.307  71.215  1.00  0.00    -0.506 C  
HETATM    7  C   UNL     1     -11.543   9.360  71.661  1.00  0.00    -0.466 C  
BRANCH   7   8
HETATM    8  C   UNL     1     -10.595   8.597  70.784  1.00  0.00    -0.254 C  
BRANCH   8   9
HETATM    9  C   UNL     1      -9.206   9.151  70.847  1.00  0.00    -0.326 C  
HETATM   10  C   UNL     1      -8.574   9.746  69.824  1.00  0.00    -0.215 C  
BRANCH  10  11
HETATM   11  C   UNL     1      -9.119   9.865  68.434  1.00  0.00    -0.123 C  
BRANCH  11  12
HETATM   12  C   UNL     1      -8.086   9.510  67.402  1.00  0.00    -0.110 C  
HETATM   13  C   UNL     1      -8.026  10.032  66.166  1.00  0.00    -0.113 C  
BRANCH  13  14
HETATM   14  C   UNL     1      -9.020  11.040  65.676  1.00  0.00    -0.212 C  
BRANCH  14  15
HETATM   15  C   UNL     1     -10.128  10.443  64.817  1.00  0.00    -0.387 C  
BRANCH  15  16
HETATM   16  C   UNL     1     -10.343  11.328  63.589  1.00  0.00    -0.464 C  
BRANCH  16  17
HETATM   17  C   UNL     1     -11.688  12.039  63.643  1.00  0.00    -0.587 C  
HETATM   18  C   UNL     1     -11.547  13.459  64.134  1.00  0.00    -0.398 C  
HETATM   19  O   UNL     1     -10.499  13.999  64.458  1.00  0.00    -0.424 OA 
HETATM   20  O   UNL     1     -12.737  14.103  64.185  1.00  0.00    -0.656 OA 
ENDBRANCH  16  17
ENDBRANCH  15  16
ENDBRANCH  14  15
ENDBRANCH  13  14
ENDBRANCH  11  12
ENDBRANCH  10  11
ENDBRANCH   8   9
ENDBRANCH   7   8
ENDBRANCH   5   6
ENDBRANCH   4   5
ENDBRANCH   3   4
ENDBRANCH   2   3
TORSDOF 12
ENDMDL
MODEL      116
REMARK 921   NORMALIZED FREE ENERGY PREDICTED BY IDOCK:   -4.12 KCAL/MOL
REMARK 922        TOTAL FREE ENERGY PREDICTED BY IDOCK:   -8.97 KCAL/MOL
REMARK 923 INTER-LIGAND FREE ENERGY PREDICTED BY IDOCK:   -7.88 KCAL/MOL
REMARK 924 INTRA-LIGAND FREE ENERGY PREDICTED BY IDOCK:   -1.09 KCAL/MOL
REMARK 927      BINDING AFFINITY PREDICTED BY RF-SCORE:    0.00 PKD
ROOT
HETATM    1  C   UNL     1      -9.762  10.212  64.897  1.00  0.00    -0.392 C  
HETATM    2  C   UNL     1     -10.100  10.889  63.581  1.00  0.00    -0.414 C  
ENDROOT
BRANCH   2   3
HETATM    3  C   UNL     1     -10.539  12.332  63.801  1.00  0.00    -0.488 C  
BRANCH   3   4
HETATM    4  C   UNL     1     -12.060  12.460  63.751  1.00  0.00    -0.618 C  
BRANCH   4   5
HETATM    5  C   UNL     1     -12.604  12.632  65.163  1.00  0.00    -0.459 C  
BRANCH   5   6
HETATM    6  C   UNL     1     -12.121  13.881  65.839  1.00  0.00    -0.459 C  
HETATM    7  C   UNL     1     -11.771  13.907  67.135  1.00  0.00    -0.419 C  
BRANCH   7   8
HETATM    8  C   UNL     1     -11.843  12.721  68.048  1.00  0.00    -0.386 C  
BRANCH   8   9
HETATM    9  C   UNL     1     -11.840  13.124  69.490  1.00  0.00    -0.383 C  
HETATM   10  C   UNL     1     -11.913  12.270  70.523  1.00  0.00    -0.296 C  
BRANCH  10  11
HETATM   11  C   UNL     1     -12.104  10.789  70.397  1.00  0.00    -0.443 C  
BRANCH  11  12
HETATM   12  C   UNL     1     -12.831  10.223  71.584  1.00  0.00    -0.568 C  
HETATM   13  C   UNL     1     -12.588   9.020  72.128  1.00  0.00    -0.461 C  
BRANCH  13  14
HETATM   14  C   UNL     1     -11.547   8.091  71.582  1.00  0.00    -0.317 C  
BRANCH  14  15
HETATM   15  C   UNL     1     -12.109   6.772  71.068  1.00  0.00    -0.426 C  
BRANCH  15  16
HETATM   16  C   UNL     1     -11.039   6.059  70.241  1.00  0.00    -0.415 C  
BRANCH  16  17
HETATM   17  C   UNL     1     -11.140   6.422  68.767  1.00  0.00    -0.404 C  
HETATM   18  C   UNL     1     -10.300   5.506  67.909  1.00  0.00    -0.182 C  
HETATM   19  O   UNL     1      -9.612   4.582  68.319  1.00  0.00    -0.142 OA 
HETATM   20  O   UNL     1     -10.382   5.818  66.595  1.00  0.00    -0.212 OA 
ENDBRANCH  16  17
ENDBRANCH  15  16
ENDBRANCH  14  15
ENDBRANCH  13  14
ENDBRANCH  11  12
ENDBRANCH  10  11
ENDBRANCH   8   9
ENDBRANCH   7   8
ENDBRANCH   5   6
ENDBRANCH   4   5
ENDBRANCH   3   4
ENDBRANCH   2   3
TORSDOF 12
ENDMDL
MODEL      117
REMARK 921   NORMALIZED FREE ENERGY PREDICTED BY IDOCK:   -4.11 KCAL/MOL
REMARK 922        TOTAL FREE ENERGY PREDICTED BY IDOCK:   -8.95 KCAL/MOL
REMARK 923 INTER-LIGAND FREE ENERGY PREDICTED BY IDOCK:   -6.80 KCAL/MOL
REMARK 924 INTRA-LIGAND FREE ENERGY PREDICTED BY IDOCK:   -2.16 KCAL/MOL
REMARK 927      BINDING AFFINITY PREDICTED BY RF-SCORE:    0.00 PKD
ROOT
HETATM    1  C   UNL     1     -11.156   6.230  68.802  1.00  0.00    -0.424 C  
HETATM    2  C   UNL     1     -11.036   6.412  70.304  1.00  0.00    -0.416 C  
ENDROOT
BRANCH   2   3
HETATM    3  C   UNL     1     -12.279   7.083  70.877  1.00  0.00    -0.388 C  
BRANCH   3   4
HETATM    4  C   UNL     1     -11.936   7.920  72.108  1.00  0.00    -0.379 C  
BRANCH   4   5
HETATM    5  C   UNL     1     -11.366   9.262  71.669  1.00  0.00    -0.467 C  
BRANCH   5   6
HETATM    6  C   UNL     1     -12.358  10.121  70.941  1.00  0.00    -0.461 C  
HETATM    7  C   UNL     1     -12.044  10.789  69.820  1.00  0.00    -0.389 C  
BRANCH   7   8
HETATM    8  C   UNL     1     -10.685  10.776  69.187  1.00  0.00    -0.265 C  
BRANCH   8   9
HETATM    9  C   UNL     1     -10.637   9.887  67.983  1.00  0.00    -0.288 C  
HETATM   10  C   UNL     1     -10.474  10.316  66.723  1.00  0.00    -0.279 C  
BRANCH  10  11
HETATM   11  C   UNL     1     -10.411  11.755  66.310  1.00  0.00    -0.259 C  
BRANCH  11  12
HETATM   12  C   UNL     1     -11.731  12.236  65.777  1.00  0.00    -0.445 C  
HETATM   13  C   UNL     1     -12.306  13.406  66.097  1.00  0.00    -0.440 C  
BRANCH  13  14
HETATM   14  C   UNL     1     -11.676  14.370  67.055  1.00  0.00    -0.420 C  
BRANCH  14  15
HETATM   15  C   UNL     1     -12.135  14.193  68.496  1.00  0.00    -0.312 C  
BRANCH  15  16
HETATM   16  C   UNL     1     -10.949  14.426  69.433  1.00  0.00    -0.261 C  
BRANCH  16  17
HETATM   17  C   UNL     1     -10.400  15.839  69.297  1.00  0.00    -0.245 C  
HETATM   18  C   UNL     1      -8.918  15.835  69.008  1.00  0.00    -0.246 C  
HETATM   19  O   UNL     1      -8.219  14.839  68.896  1.00  0.00    -0.159 OA 
HETATM   20  O   UNL     1      -8.418  17.086  68.884  1.00  0.00    -0.253 OA 
ENDBRANCH  16  17
ENDBRANCH  15  16
ENDBRANCH  14  15
ENDBRANCH  13  14
ENDBRANCH  11  12
ENDBRANCH  10  11
ENDBRANCH   8   9
ENDBRANCH   7   8
ENDBRANCH   5   6
ENDBRANCH   4   5
ENDBRANCH   3   4
ENDBRANCH   2   3
TORSDOF 12
ENDMDL
MODEL      118
REMARK 921   NORMALIZED FREE ENERGY PREDICTED BY IDOCK:   -4.11 KCAL/MOL
REMARK 922        TOTAL FREE ENERGY PREDICTED BY IDOCK:   -8.95 KCAL/MOL
REMARK 923 INTER-LIGAND FREE ENERGY PREDICTED BY IDOCK:   -7.17 KCAL/MOL
REMARK 924 INTRA-LIGAND FREE ENERGY PREDICTED BY IDOCK:   -1.78 KCAL/MOL
REMARK 927      BINDING AFFINITY PREDICTED BY RF-SCORE:    0.00 PKD
ROOT
HETATM    1  C   UNL     1     -12.960   7.325  71.542  1.00  0.00    -0.434 C  
HETATM    2  C   UNL     1     -11.522   7.418  71.064  1.00  0.00    -0.307 C  
ENDROOT
BRANCH   2   3
HETATM    3  C   UNL     1     -10.653   8.155  72.077  1.00  0.00    -0.334 C  
BRANCH   3   4
HETATM    4  C   UNL     1      -9.702   9.129  71.383  1.00  0.00    -0.338 C  
BRANCH   4   5
HETATM    5  C   UNL     1     -10.137   9.323  69.937  1.00  0.00    -0.230 C  
BRANCH   5   6
HETATM    6  C   UNL     1     -10.177  10.763  69.516  1.00  0.00    -0.146 C  
HETATM    7  C   UNL     1     -11.299  11.498  69.576  1.00  0.00    -0.342 C  
BRANCH   7   8
HETATM    8  C   UNL     1     -12.625  10.972  70.038  1.00  0.00    -0.240 C  
BRANCH   8   9
HETATM    9  C   UNL     1     -12.797  11.113  71.519  1.00  0.00    -0.542 C  
HETATM   10  C   UNL     1     -13.072  12.265  72.149  1.00  0.00    -0.406 C  
BRANCH  10  11
HETATM   11  C   UNL     1     -13.155  13.606  71.486  1.00  0.00    -0.431 C  
BRANCH  11  12
HETATM   12  C   UNL     1     -12.362  14.642  72.231  1.00  0.00    -0.365 C  
HETATM   13  C   UNL     1     -11.665  15.635  71.655  1.00  0.00    -0.521 C  
BRANCH  13  14
HETATM   14  C   UNL     1     -11.598  15.804  70.168  1.00  0.00    -0.364 C  
BRANCH  14  15
HETATM   15  C   UNL     1     -10.426  15.079  69.519  1.00  0.00    -0.245 C  
BRANCH  15  16
HETATM   16  C   UNL     1      -9.866  15.941  68.387  1.00  0.00    -0.214 C  
BRANCH  16  17
HETATM   17  C   UNL     1     -10.592  15.679  67.075  1.00  0.00    -0.311 C  
HETATM   18  C   UNL     1      -9.799  16.177  65.891  1.00  0.00    -0.353 C  
HETATM   19  O   UNL     1      -8.710  16.728  65.947  1.00  0.00    -0.504 OA 
HETATM   20  O   UNL     1     -10.434  15.948  64.718  1.00  0.00    -0.538 OA 
ENDBRANCH  16  17
ENDBRANCH  15  16
ENDBRANCH  14  15
ENDBRANCH  13  14
ENDBRANCH  11  12
ENDBRANCH  10  11
ENDBRANCH   8   9
ENDBRANCH   7   8
ENDBRANCH   5   6
ENDBRANCH   4   5
ENDBRANCH   3   4
ENDBRANCH   2   3
TORSDOF 12
ENDMDL
MODEL      119
REMARK 921   NORMALIZED FREE ENERGY PREDICTED BY IDOCK:   -4.11 KCAL/MOL
REMARK 922        TOTAL FREE ENERGY PREDICTED BY IDOCK:   -8.95 KCAL/MOL
REMARK 923 INTER-LIGAND FREE ENERGY PREDICTED BY IDOCK:   -7.04 KCAL/MOL
REMARK 924 INTRA-LIGAND FREE ENERGY PREDICTED BY IDOCK:   -1.91 KCAL/MOL
REMARK 927      BINDING AFFINITY PREDICTED BY RF-SCORE:    0.00 PKD
ROOT
HETATM    1  C   UNL     1     -14.344  15.240  71.334  1.00  0.00    -0.578 C  
HETATM    2  C   UNL     1     -13.905  14.409  72.526  1.00  0.00    -0.559 C  
ENDROOT
BRANCH   2   3
HETATM    3  C   UNL     1     -13.287  13.090  72.078  1.00  0.00    -0.588 C  
BRANCH   3   4
HETATM    4  C   UNL     1     -12.516  13.258  70.770  1.00  0.00    -0.403 C  
BRANCH   4   5
HETATM    5  C   UNL     1     -11.949  11.913  70.336  1.00  0.00    -0.400 C  
BRANCH   5   6
HETATM    6  C   UNL     1     -12.595  10.746  71.021  1.00  0.00    -0.520 C  
HETATM    7  C   UNL     1     -11.911   9.640  71.356  1.00  0.00    -0.480 C  
BRANCH   7   8
HETATM    8  C   UNL     1     -10.454   9.435  71.068  1.00  0.00    -0.392 C  
BRANCH   8   9
HETATM    9  C   UNL     1     -10.224   8.282  70.141  1.00  0.00    -0.199 C  
HETATM   10  C   UNL     1     -10.247   8.362  68.802  1.00  0.00    -0.223 C  
BRANCH  10  11
HETATM   11  C   UNL     1     -10.600   9.593  68.024  1.00  0.00    -0.292 C  
BRANCH  11  12
HETATM   12  C   UNL     1      -9.440  10.546  67.941  1.00  0.00    -0.157 C  
HETATM   13  C   UNL     1      -9.514  11.802  67.473  1.00  0.00    -0.174 C  
BRANCH  13  14
HETATM   14  C   UNL     1     -10.792  12.391  66.960  1.00  0.00    -0.282 C  
BRANCH  14  15
HETATM   15  C   UNL     1     -10.746  13.903  66.784  1.00  0.00    -0.281 C  
BRANCH  15  16
HETATM   16  C   UNL     1     -10.305  14.548  68.098  1.00  0.00    -0.232 C  
BRANCH  16  17
HETATM   17  C   UNL     1      -9.992  16.026  67.916  1.00  0.00    -0.233 C  
HETATM   18  C   UNL     1     -10.562  16.857  69.040  1.00  0.00    -0.338 C  
HETATM   19  O   UNL     1     -11.202  16.427  69.989  1.00  0.00    -0.348 OA 
HETATM   20  O   UNL     1     -10.290  18.175  68.891  1.00  0.00    -0.356 OA 
ENDBRANCH  16  17
ENDBRANCH  15  16
ENDBRANCH  14  15
ENDBRANCH  13  14
ENDBRANCH  11  12
ENDBRANCH  10  11
ENDBRANCH   8   9
ENDBRANCH   7   8
ENDBRANCH   5   6
ENDBRANCH   4   5
ENDBRANCH   3   4
ENDBRANCH   2   3
TORSDOF 12
ENDMDL
MODEL      120
REMARK 921   NORMALIZED FREE ENERGY PREDICTED BY IDOCK:   -4.09 KCAL/MOL
REMARK 922        TOTAL FREE ENERGY PREDICTED BY IDOCK:   -8.91 KCAL/MOL
REMARK 923 INTER-LIGAND FREE ENERGY PREDICTED BY IDOCK:   -6.75 KCAL/MOL
REMARK 924 INTRA-LIGAND FREE ENERGY PREDICTED BY IDOCK:   -2.16 KCAL/MOL
REMARK 927      BINDING AFFINITY PREDICTED BY RF-SCORE:    0.00 PKD
ROOT
HETATM    1  C   UNL     1     -12.264  14.096  66.455  1.00  0.00    -0.463 C  
HETATM    2  C   UNL     1     -11.273  14.242  67.595  1.00  0.00    -0.321 C  
ENDROOT
BRANCH   2   3
HETATM    3  C   UNL     1     -11.598  15.458  68.454  1.00  0.00    -0.368 C  
BRANCH   3   4
HETATM    4  C   UNL     1     -10.676  15.539  69.669  1.00  0.00    -0.274 C  
BRANCH   4   5
HETATM    5  C   UNL     1     -11.506  15.762  70.926  1.00  0.00    -0.438 C  
BRANCH   5   6
HETATM    6  C   UNL     1     -12.968  15.490  70.730  1.00  0.00    -0.490 C  
HETATM    7  C   UNL     1     -13.606  14.496  71.368  1.00  0.00    -0.452 C  
BRANCH   7   8
HETATM    8  C   UNL     1     -12.942  13.542  72.314  1.00  0.00    -0.398 C  
BRANCH   8   9
HETATM    9  C   UNL     1     -13.372  12.128  72.077  1.00  0.00    -0.470 C  
HETATM   10  C   UNL     1     -12.873  11.327  71.123  1.00  0.00    -0.452 C  
BRANCH  10  11
HETATM   11  C   UNL     1     -11.877  11.749  70.086  1.00  0.00    -0.408 C  
BRANCH  11  12
HETATM   12  C   UNL     1     -11.892  10.829  68.898  1.00  0.00    -0.287 C  
HETATM   13  C   UNL     1     -10.843  10.604  68.090  1.00  0.00    -0.291 C  
BRANCH  13  14
HETATM   14  C   UNL     1      -9.521  11.278  68.291  1.00  0.00    -0.190 C  
BRANCH  14  15
HETATM   15  C   UNL     1      -8.499  10.422  69.027  1.00  0.00    -0.155 C  
BRANCH  15  16
HETATM   16  C   UNL     1      -9.177   9.141  69.516  1.00  0.00    -0.160 C  
BRANCH  16  17
HETATM   17  C   UNL     1      -9.160   9.046  71.034  1.00  0.00    -0.322 C  
HETATM   18  C   UNL     1     -10.413   8.391  71.565  1.00  0.00    -0.239 C  
HETATM   19  O   UNL     1     -11.343   7.983  70.885  1.00  0.00    -0.271 OA 
HETATM   20  O   UNL     1     -10.410   8.300  72.915  1.00  0.00    -0.302 OA 
ENDBRANCH  16  17
ENDBRANCH  15  16
ENDBRANCH  14  15
ENDBRANCH  13  14
ENDBRANCH  11  12
ENDBRANCH  10  11
ENDBRANCH   8   9
ENDBRANCH   7   8
ENDBRANCH   5   6
ENDBRANCH   4   5
ENDBRANCH   3   4
ENDBRANCH   2   3
TORSDOF 12
ENDMDL
MODEL      121
REMARK 921   NORMALIZED FREE ENERGY PREDICTED BY IDOCK:   -4.09 KCAL/MOL
REMARK 922        TOTAL FREE ENERGY PREDICTED BY IDOCK:   -8.91 KCAL/MOL
REMARK 923 INTER-LIGAND FREE ENERGY PREDICTED BY IDOCK:   -7.51 KCAL/MOL
REMARK 924 INTRA-LIGAND FREE ENERGY PREDICTED BY IDOCK:   -1.40 KCAL/MOL
REMARK 927      BINDING AFFINITY PREDICTED BY RF-SCORE:    0.00 PKD
ROOT
HETATM    1  C   UNL     1      -8.601  19.654  67.990  1.00  0.00    -0.355 C  
HETATM    2  C   UNL     1      -9.291  19.643  66.638  1.00  0.00    -0.460 C  
ENDROOT
BRANCH   2   3
HETATM    3  C   UNL     1     -10.491  18.703  66.640  1.00  0.00    -0.459 C  
BRANCH   3   4
HETATM    4  C   UNL     1     -10.433  17.737  67.823  1.00  0.00    -0.402 C  
BRANCH   4   5
HETATM    5  C   UNL     1     -10.527  16.304  67.316  1.00  0.00    -0.300 C  
BRANCH   5   6
HETATM    6  C   UNL     1      -9.806  16.083  66.019  1.00  0.00    -0.365 C  
HETATM    7  C   UNL     1     -10.360  15.419  64.993  1.00  0.00    -0.362 C  
BRANCH   7   8
HETATM    8  C   UNL     1     -11.730  14.811  65.028  1.00  0.00    -0.364 C  
BRANCH   8   9
HETATM    9  C   UNL     1     -11.698  13.344  64.726  1.00  0.00    -0.393 C  
HETATM   10  C   UNL     1     -11.815  12.373  65.644  1.00  0.00    -0.468 C  
BRANCH  10  11
HETATM   11  C   UNL     1     -11.899  12.598  67.123  1.00  0.00    -0.399 C  
BRANCH  11  12
HETATM   12  C   UNL     1     -10.662  12.114  67.828  1.00  0.00    -0.241 C  
HETATM   13  C   UNL     1     -10.659  11.343  68.926  1.00  0.00    -0.234 C  
BRANCH  13  14
HETATM   14  C   UNL     1     -11.925  10.886  69.585  1.00  0.00    -0.414 C  
BRANCH  14  15
HETATM   15  C   UNL     1     -12.249  11.628  70.875  1.00  0.00    -0.401 C  
BRANCH  15  16
HETATM   16  C   UNL     1     -13.139  10.746  71.751  1.00  0.00    -0.573 C  
BRANCH  16  17
HETATM   17  C   UNL     1     -13.430   9.410  71.084  1.00  0.00    -0.253 C  
HETATM   18  C   UNL     1     -12.759   8.268  71.809  1.00  0.00    -0.336 C  
HETATM   19  O   UNL     1     -12.061   8.373  72.807  1.00  0.00    -0.354 OA 
HETATM   20  O   UNL     1     -13.011   7.073  71.226  1.00  0.00    -0.378 OA 
ENDBRANCH  16  17
ENDBRANCH  15  16
ENDBRANCH  14  15
ENDBRANCH  13  14
ENDBRANCH  11  12
ENDBRANCH  10  11
ENDBRANCH   8   9
ENDBRANCH   7   8
ENDBRANCH   5   6
ENDBRANCH   4   5
ENDBRANCH   3   4
ENDBRANCH   2   3
TORSDOF 12
ENDMDL
MODEL      122
REMARK 921   NORMALIZED FREE ENERGY PREDICTED BY IDOCK:   -4.07 KCAL/MOL
REMARK 922        TOTAL FREE ENERGY PREDICTED BY IDOCK:   -8.88 KCAL/MOL
REMARK 923 INTER-LIGAND FREE ENERGY PREDICTED BY IDOCK:   -6.88 KCAL/MOL
REMARK 924 INTRA-LIGAND FREE ENERGY PREDICTED BY IDOCK:   -2.00 KCAL/MOL
REMARK 927      BINDING AFFINITY PREDICTED BY RF-SCORE:    0.00 PKD
ROOT
HETATM    1  C   UNL     1     -11.756  11.872  63.607  1.00  0.00    -0.572 C  
HETATM    2  C   UNL     1     -12.139  13.340  63.564  1.00  0.00    -0.550 C  
ENDROOT
BRANCH   2   3
HETATM    3  C   UNL     1     -12.109  13.957  64.958  1.00  0.00    -0.422 C  
BRANCH   3   4
HETATM    4  C   UNL     1     -12.275  12.890  66.038  1.00  0.00    -0.431 C  
BRANCH   4   5
HETATM    5  C   UNL     1     -11.532  13.318  67.296  1.00  0.00    -0.378 C  
BRANCH   5   6
HETATM    6  C   UNL     1     -10.192  13.930  67.017  1.00  0.00    -0.254 C  
HETATM    7  C   UNL     1      -9.057  13.213  67.028  1.00  0.00    -0.231 C  
BRANCH   7   8
HETATM    8  C   UNL     1      -8.993  11.748  67.339  1.00  0.00    -0.173 C  
BRANCH   8   9
HETATM    9  C   UNL     1      -9.228  10.907  66.123  1.00  0.00    -0.205 C  
HETATM   10  C   UNL     1      -9.947   9.774  66.104  1.00  0.00    -0.338 C  
BRANCH  10  11
HETATM   11  C   UNL     1     -10.546   9.121  67.313  1.00  0.00    -0.303 C  
BRANCH  11  12
HETATM   12  C   UNL     1     -10.652   7.631  67.141  1.00  0.00    -0.410 C  
HETATM   13  C   UNL     1     -10.649   6.742  68.146  1.00  0.00    -0.279 C  
BRANCH  13  14
HETATM   14  C   UNL     1     -10.524   7.158  69.580  1.00  0.00    -0.241 C  
BRANCH  14  15
HETATM   15  C   UNL     1     -11.775   6.896  70.408  1.00  0.00    -0.377 C  
BRANCH  15  16
HETATM   16  C   UNL     1     -11.842   7.911  71.550  1.00  0.00    -0.322 C  
BRANCH  16  17
HETATM   17  C   UNL     1     -11.270   9.258  71.134  1.00  0.00    -0.413 C  
HETATM   18  C   UNL     1     -12.360  10.251  70.813  1.00  0.00    -0.350 C  
HETATM   19  O   UNL     1     -13.561  10.030  70.868  1.00  0.00    -0.297 OA 
HETATM   20  O   UNL     1     -11.863  11.454  70.442  1.00  0.00    -0.336 OA 
ENDBRANCH  16  17
ENDBRANCH  15  16
ENDBRANCH  14  15
ENDBRANCH  13  14
ENDBRANCH  11  12
ENDBRANCH  10  11
ENDBRANCH   8   9
ENDBRANCH   7   8
ENDBRANCH   5   6
ENDBRANCH   4   5
ENDBRANCH   3   4
ENDBRANCH   2   3
TORSDOF 12
ENDMDL
MODEL      123
REMARK 921   NORMALIZED FREE ENERGY PREDICTED BY IDOCK:   -4.07 KCAL/MOL
REMARK 922        TOTAL FREE ENERGY PREDICTED BY IDOCK:   -8.88 KCAL/MOL
REMARK 923 INTER-LIGAND FREE ENERGY PREDICTED BY IDOCK:   -6.96 KCAL/MOL
REMARK 924 INTRA-LIGAND FREE ENERGY PREDICTED BY IDOCK:   -1.92 KCAL/MOL
REMARK 927      BINDING AFFINITY PREDICTED BY RF-SCORE:    0.00 PKD
ROOT
HETATM    1  C   UNL     1     -12.214  12.267  63.347  1.00  0.00    -0.630 C  
HETATM    2  C   UNL     1     -10.715  12.209  63.584  1.00  0.00    -0.518 C  
ENDROOT
BRANCH   2   3
HETATM    3  C   UNL     1     -10.133  10.887  63.100  1.00  0.00    -0.317 C  
BRANCH   3   4
HETATM    4  C   UNL     1      -9.497  10.109  64.251  1.00  0.00    -0.366 C  
BRANCH   4   5
HETATM    5  C   UNL     1      -9.525  10.956  65.515  1.00  0.00    -0.249 C  
BRANCH   5   6
HETATM    6  C   UNL     1      -8.828  10.314  66.678  1.00  0.00    -0.148 C  
HETATM    7  C   UNL     1      -9.481   9.941  67.790  1.00  0.00    -0.158 C  
BRANCH   7   8
HETATM    8  C   UNL     1     -10.950  10.142  68.009  1.00  0.00    -0.326 C  
BRANCH   8   9
HETATM    9  C   UNL     1     -11.233  11.367  68.821  1.00  0.00    -0.308 C  
HETATM   10  C   UNL     1     -11.803  12.485  68.346  1.00  0.00    -0.353 C  
BRANCH  10  11
HETATM   11  C   UNL     1     -12.159  12.719  66.909  1.00  0.00    -0.267 C  
BRANCH  11  12
HETATM   12  C   UNL     1     -12.211  14.186  66.585  1.00  0.00    -0.450 C  
HETATM   13  C   UNL     1     -11.143  14.944  66.289  1.00  0.00    -0.340 C  
BRANCH  13  14
HETATM   14  C   UNL     1      -9.751  14.389  66.267  1.00  0.00    -0.330 C  
BRANCH  14  15
HETATM   15  C   UNL     1      -8.680  15.399  66.656  1.00  0.00    -0.332 C  
BRANCH  15  16
HETATM   16  C   UNL     1      -8.983  16.737  65.980  1.00  0.00    -0.220 C  
BRANCH  16  17
HETATM   17  C   UNL     1      -9.319  17.814  67.001  1.00  0.00    -0.259 C  
HETATM   18  C   UNL     1     -10.238  18.863  66.421  1.00  0.00    -0.426 C  
HETATM   19  O   UNL     1     -10.672  18.874  65.279  1.00  0.00    -0.517 OA 
HETATM   20  O   UNL     1     -10.545  19.827  67.320  1.00  0.00    -0.446 OA 
ENDBRANCH  16  17
ENDBRANCH  15  16
ENDBRANCH  14  15
ENDBRANCH  13  14
ENDBRANCH  11  12
ENDBRANCH  10  11
ENDBRANCH   8   9
ENDBRANCH   7   8
ENDBRANCH   5   6
ENDBRANCH   4   5
ENDBRANCH   3   4
ENDBRANCH   2   3
TORSDOF 12
ENDMDL
MODEL      124
REMARK 921   NORMALIZED FREE ENERGY PREDICTED BY IDOCK:   -4.06 KCAL/MOL
REMARK 922        TOTAL FREE ENERGY PREDICTED BY IDOCK:   -8.87 KCAL/MOL
REMARK 923 INTER-LIGAND FREE ENERGY PREDICTED BY IDOCK:   -7.53 KCAL/MOL
REMARK 924 INTRA-LIGAND FREE ENERGY PREDICTED BY IDOCK:   -1.34 KCAL/MOL
REMARK 927      BINDING AFFINITY PREDICTED BY RF-SCORE:    0.00 PKD
ROOT
HETATM    1  C   UNL     1      -9.369   8.513  72.556  1.00  0.00    -0.316 C  
HETATM    2  C   UNL     1     -10.361   8.329  71.421  1.00  0.00    -0.270 C  
ENDROOT
BRANCH   2   3
HETATM    3  C   UNL     1     -11.159   7.043  71.592  1.00  0.00    -0.264 C  
BRANCH   3   4
HETATM    4  C   UNL     1     -11.698   6.545  70.251  1.00  0.00    -0.430 C  
BRANCH   4   5
HETATM    5  C   UNL     1     -10.537   6.254  69.311  1.00  0.00    -0.332 C  
BRANCH   5   6
HETATM    6  C   UNL     1     -10.914   6.319  67.861  1.00  0.00    -0.421 C  
HETATM    7  C   UNL     1     -10.826   7.452  67.145  1.00  0.00    -0.340 C  
BRANCH   7   8
HETATM    8  C   UNL     1     -10.372   8.766  67.706  1.00  0.00    -0.297 C  
BRANCH   8   9
HETATM    9  C   UNL     1      -8.919   9.015  67.444  1.00  0.00    -0.135 C  
HETATM   10  C   UNL     1      -8.442   9.983  66.648  1.00  0.00    -0.126 C  
BRANCH  10  11
HETATM   11  C   UNL     1      -9.285  10.906  65.821  1.00  0.00    -0.224 C  
BRANCH  11  12
HETATM   12  C   UNL     1      -9.526  10.351  64.445  1.00  0.00    -0.343 C  
HETATM   13  C   UNL     1     -10.114  11.021  63.442  1.00  0.00    -0.424 C  
BRANCH  13  14
HETATM   14  C   UNL     1     -10.616  12.424  63.603  1.00  0.00    -0.481 C  
BRANCH  14  15
HETATM   15  C   UNL     1     -12.079  12.509  64.016  1.00  0.00    -0.557 C  
BRANCH  15  16
HETATM   16  C   UNL     1     -12.192  13.343  65.293  1.00  0.00    -0.478 C  
BRANCH  16  17
HETATM   17  C   UNL     1     -11.277  14.558  65.249  1.00  0.00    -0.352 C  
HETATM   18  C   UNL     1     -11.879  15.679  64.436  1.00  0.00    -0.182 C  
HETATM   19  O   UNL     1     -12.962  15.644  63.870  1.00  0.00    -0.485 OA 
HETATM   20  O   UNL     1     -11.074  16.766  64.391  1.00  0.00    -1.072 OA 
ENDBRANCH  16  17
ENDBRANCH  15  16
ENDBRANCH  14  15
ENDBRANCH  13  14
ENDBRANCH  11  12
ENDBRANCH  10  11
ENDBRANCH   8   9
ENDBRANCH   7   8
ENDBRANCH   5   6
ENDBRANCH   4   5
ENDBRANCH   3   4
ENDBRANCH   2   3
TORSDOF 12
ENDMDL
MODEL      125
REMARK 921   NORMALIZED FREE ENERGY PREDICTED BY IDOCK:   -4.06 KCAL/MOL
REMARK 922        TOTAL FREE ENERGY PREDICTED BY IDOCK:   -8.87 KCAL/MOL
REMARK 923 INTER-LIGAND FREE ENERGY PREDICTED BY IDOCK:   -6.87 KCAL/MOL
REMARK 924 INTRA-LIGAND FREE ENERGY PREDICTED BY IDOCK:   -2.00 KCAL/MOL
REMARK 927      BINDING AFFINITY PREDICTED BY RF-SCORE:    0.00 PKD
ROOT
HETATM    1  C   UNL     1      -9.490   7.146  70.255  1.00  0.00    -0.162 C  
HETATM    2  C   UNL     1     -10.548   7.721  69.330  1.00  0.00    -0.211 C  
ENDROOT
BRANCH   2   3
HETATM    3  C   UNL     1      -9.914   8.362  68.102  1.00  0.00    -0.224 C  
BRANCH   3   4
HETATM    4  C   UNL     1      -8.892   9.426  68.499  1.00  0.00    -0.128 C  
BRANCH   4   5
HETATM    5  C   UNL     1      -9.518  10.808  68.371  1.00  0.00    -0.174 C  
BRANCH   5   6
HETATM    6  C   UNL     1      -8.859  11.666  67.333  1.00  0.00    -0.160 C  
HETATM    7  C   UNL     1      -9.331  11.770  66.080  1.00  0.00    -0.236 C  
BRANCH   7   8
HETATM    8  C   UNL     1     -10.535  11.034  65.573  1.00  0.00    -0.302 C  
BRANCH   8   9
HETATM    9  C   UNL     1     -10.760  11.271  64.112  1.00  0.00    -0.436 C  
HETATM   10  C   UNL     1     -11.589  12.198  63.607  1.00  0.00    -0.575 C  
BRANCH  10  11
HETATM   11  C   UNL     1     -12.491  13.075  64.422  1.00  0.00    -0.406 C  
BRANCH  11  12
HETATM   12  C   UNL     1     -11.787  14.324  64.873  1.00  0.00    -0.414 C  
HETATM   13  C   UNL     1     -11.581  14.667  66.154  1.00  0.00    -0.332 C  
BRANCH  13  14
HETATM   14  C   UNL     1     -12.059  13.821  67.294  1.00  0.00    -0.393 C  
BRANCH  14  15
HETATM   15  C   UNL     1     -11.369  14.126  68.617  1.00  0.00    -0.306 C  
BRANCH  15  16
HETATM   16  C   UNL     1     -12.004  13.280  69.721  1.00  0.00    -0.391 C  
BRANCH  16  17
HETATM   17  C   UNL     1     -12.559  14.149  70.841  1.00  0.00    -0.433 C  
HETATM   18  C   UNL     1     -13.183  13.316  71.934  1.00  0.00    -0.431 C  
HETATM   19  O   UNL     1     -13.253  12.095  71.946  1.00  0.00    -0.478 OA 
HETATM   20  O   UNL     1     -13.680  14.077  72.937  1.00  0.00    -0.677 OA 
ENDBRANCH  16  17
ENDBRANCH  15  16
ENDBRANCH  14  15
ENDBRANCH  13  14
ENDBRANCH  11  12
ENDBRANCH  10  11
ENDBRANCH   8   9
ENDBRANCH   7   8
ENDBRANCH   5   6
ENDBRANCH   4   5
ENDBRANCH   3   4
ENDBRANCH   2   3
TORSDOF 12
ENDMDL
MODEL      126
REMARK 921   NORMALIZED FREE ENERGY PREDICTED BY IDOCK:   -4.06 KCAL/MOL
REMARK 922        TOTAL FREE ENERGY PREDICTED BY IDOCK:   -8.87 KCAL/MOL
REMARK 923 INTER-LIGAND FREE ENERGY PREDICTED BY IDOCK:   -6.72 KCAL/MOL
REMARK 924 INTRA-LIGAND FREE ENERGY PREDICTED BY IDOCK:   -2.14 KCAL/MOL
REMARK 927      BINDING AFFINITY PREDICTED BY RF-SCORE:    0.00 PKD
ROOT
HETATM    1  C   UNL     1     -10.654   7.366  72.641  1.00  0.00    -0.322 C  
HETATM    2  C   UNL     1     -11.413   8.518  72.006  1.00  0.00    -0.431 C  
ENDROOT
BRANCH   2   3
HETATM    3  C   UNL     1     -11.031   8.685  70.540  1.00  0.00    -0.266 C  
BRANCH   3   4
HETATM    4  C   UNL     1      -9.528   8.913  70.383  1.00  0.00    -0.227 C  
BRANCH   4   5
HETATM    5  C   UNL     1      -9.049   8.278  69.085  1.00  0.00    -0.148 C  
BRANCH   5   6
HETATM    6  C   UNL     1     -10.149   7.630  68.297  1.00  0.00    -0.214 C  
HETATM    7  C   UNL     1     -10.226   7.722  66.961  1.00  0.00    -0.375 C  
BRANCH   7   8
HETATM    8  C   UNL     1      -9.256   8.489  66.114  1.00  0.00    -0.269 C  
BRANCH   8   9
HETATM    9  C   UNL     1      -9.924   9.599  65.363  1.00  0.00    -0.230 C  
HETATM   10  C   UNL     1     -10.254  10.788  65.890  1.00  0.00    -0.319 C  
BRANCH  10  11
HETATM   11  C   UNL     1     -10.095  11.158  67.334  1.00  0.00    -0.213 C  
BRANCH  11  12
HETATM   12  C   UNL     1     -11.426  11.320  68.013  1.00  0.00    -0.369 C  
HETATM   13  C   UNL     1     -11.795  12.394  68.729  1.00  0.00    -0.358 C  
BRANCH  13  14
HETATM   14  C   UNL     1     -10.885  13.565  68.938  1.00  0.00    -0.255 C  
BRANCH  14  15
HETATM   15  C   UNL     1     -11.245  14.782  68.096  1.00  0.00    -0.307 C  
BRANCH  15  16
HETATM   16  C   UNL     1     -10.449  14.743  66.791  1.00  0.00    -0.282 C  
BRANCH  16  17
HETATM   17  C   UNL     1     -11.367  14.705  65.578  1.00  0.00    -0.341 C  
HETATM   18  C   UNL     1     -11.372  16.022  64.842  1.00  0.00    -0.229 C  
HETATM   19  O   UNL     1     -10.731  17.015  65.157  1.00  0.00    -0.672 OA 
HETATM   20  O   UNL     1     -12.185  16.001  63.760  1.00  0.00    -0.895 OA 
ENDBRANCH  16  17
ENDBRANCH  15  16
ENDBRANCH  14  15
ENDBRANCH  13  14
ENDBRANCH  11  12
ENDBRANCH  10  11
ENDBRANCH   8   9
ENDBRANCH   7   8
ENDBRANCH   5   6
ENDBRANCH   4   5
ENDBRANCH   3   4
ENDBRANCH   2   3
TORSDOF 12
ENDMDL
MODEL      127
REMARK 921   NORMALIZED FREE ENERGY PREDICTED BY IDOCK:   -4.05 KCAL/MOL
REMARK 922        TOTAL FREE ENERGY PREDICTED BY IDOCK:   -8.85 KCAL/MOL
REMARK 923 INTER-LIGAND FREE ENERGY PREDICTED BY IDOCK:   -6.19 KCAL/MOL
REMARK 924 INTRA-LIGAND FREE ENERGY PREDICTED BY IDOCK:   -2.65 KCAL/MOL
REMARK 927      BINDING AFFINITY PREDICTED BY RF-SCORE:    0.00 PKD
ROOT
HETATM    1  C   UNL     1     -10.472   8.080  66.960  1.00  0.00    -0.410 C  
HETATM    2  C   UNL     1      -9.567   8.995  66.154  1.00  0.00    -0.341 C  
ENDROOT
BRANCH   2   3
HETATM    3  C   UNL     1     -10.164  10.393  66.037  1.00  0.00    -0.295 C  
BRANCH   3   4
HETATM    4  C   UNL     1      -9.068  11.456  65.960  1.00  0.00    -0.218 C  
BRANCH   4   5
HETATM    5  C   UNL     1      -8.656  11.865  67.367  1.00  0.00    -0.164 C  
BRANCH   5   6
HETATM    6  C   UNL     1      -7.288  12.478  67.432  1.00  0.00    -0.147 C  
HETATM    7  C   UNL     1      -7.097  13.795  67.604  1.00  0.00    -0.187 C  
BRANCH   7   8
HETATM    8  C   UNL     1      -8.207  14.796  67.725  1.00  0.00    -0.167 C  
BRANCH   8   9
HETATM    9  C   UNL     1      -8.376  15.597  66.472  1.00  0.00    -0.276 C  
HETATM   10  C   UNL     1      -9.550  16.058  66.012  1.00  0.00    -0.385 C  
BRANCH  10  11
HETATM   11  C   UNL     1     -10.885  15.763  66.625  1.00  0.00    -0.241 C  
BRANCH  11  12
HETATM   12  C   UNL     1     -11.416  14.429  66.179  1.00  0.00    -0.357 C  
HETATM   13  C   UNL     1     -11.954  13.508  66.993  1.00  0.00    -0.440 C  
BRANCH  13  14
HETATM   14  C   UNL     1     -12.069  13.718  68.472  1.00  0.00    -0.327 C  
BRANCH  14  15
HETATM   15  C   UNL     1     -11.314  12.686  69.300  1.00  0.00    -0.306 C  
BRANCH  15  16
HETATM   16  C   UNL     1     -11.985  11.322  69.136  1.00  0.00    -0.405 C  
BRANCH  16  17
HETATM   17  C   UNL     1     -11.255  10.243  69.923  1.00  0.00    -0.360 C  
HETATM   18  C   UNL     1     -11.913   9.986  71.257  1.00  0.00    -0.394 C  
HETATM   19  O   UNL     1     -12.905  10.559  71.682  1.00  0.00    -0.412 OA 
HETATM   20  O   UNL     1     -11.273   9.027  71.966  1.00  0.00    -0.361 OA 
ENDBRANCH  16  17
ENDBRANCH  15  16
ENDBRANCH  14  15
ENDBRANCH  13  14
ENDBRANCH  11  12
ENDBRANCH  10  11
ENDBRANCH   8   9
ENDBRANCH   7   8
ENDBRANCH   5   6
ENDBRANCH   4   5
ENDBRANCH   3   4
ENDBRANCH   2   3
TORSDOF 12
ENDMDL
MODEL      128
REMARK 921   NORMALIZED FREE ENERGY PREDICTED BY IDOCK:   -4.04 KCAL/MOL
REMARK 922        TOTAL FREE ENERGY PREDICTED BY IDOCK:   -8.83 KCAL/MOL
REMARK 923 INTER-LIGAND FREE ENERGY PREDICTED BY IDOCK:   -6.14 KCAL/MOL
REMARK 924 INTRA-LIGAND FREE ENERGY PREDICTED BY IDOCK:   -2.70 KCAL/MOL
REMARK 927      BINDING AFFINITY PREDICTED BY RF-SCORE:    0.00 PKD
ROOT
HETATM    1  C   UNL     1      -7.394   6.143  71.301  1.00  0.00    -0.081 C  
HETATM    2  C   UNL     1      -8.064   7.375  70.719  1.00  0.00    -0.110 C  
ENDROOT
BRANCH   2   3
HETATM    3  C   UNL     1      -8.326   8.419  71.798  1.00  0.00    -0.212 C  
BRANCH   3   4
HETATM    4  C   UNL     1      -8.604   7.760  73.148  1.00  0.00    -0.230 C  
BRANCH   4   5
HETATM    5  C   UNL     1     -10.106   7.713  73.393  1.00  0.00    -0.379 C  
BRANCH   5   6
HETATM    6  C   UNL     1     -10.673   6.325  73.353  1.00  0.00    -0.281 C  
HETATM    7  C   UNL     1     -11.512   5.919  72.386  1.00  0.00    -0.358 C  
BRANCH   7   8
HETATM    8  C   UNL     1     -11.992   6.795  71.268  1.00  0.00    -0.414 C  
BRANCH   8   9
HETATM    9  C   UNL     1     -13.447   7.121  71.398  1.00  0.00    -0.374 C  
HETATM   10  C   UNL     1     -13.931   8.274  71.885  1.00  0.00    -0.468 C  
BRANCH  10  11
HETATM   11  C   UNL     1     -13.097   9.376  72.462  1.00  0.00    -0.374 C  
BRANCH  11  12
HETATM   12  C   UNL     1     -13.255  10.654  71.686  1.00  0.00    -0.495 C  
HETATM   13  C   UNL     1     -12.399  11.091  70.749  1.00  0.00    -0.496 C  
BRANCH  13  14
HETATM   14  C   UNL     1     -11.160  10.334  70.382  1.00  0.00    -0.391 C  
BRANCH  14  15
HETATM   15  C   UNL     1     -10.395  10.936  69.211  1.00  0.00    -0.211 C  
BRANCH  15  16
HETATM   16  C   UNL     1      -9.697   9.816  68.439  1.00  0.00    -0.162 C  
BRANCH  16  17
HETATM   17  C   UNL     1     -10.575   8.577  68.337  1.00  0.00    -0.161 C  
HETATM   18  C   UNL     1     -10.311   7.810  67.064  1.00  0.00    -0.334 C  
HETATM   19  O   UNL     1      -9.503   8.122  66.202  1.00  0.00    -0.201 OA 
HETATM   20  O   UNL     1     -11.085   6.705  66.963  1.00  0.00    -0.403 OA 
ENDBRANCH  16  17
ENDBRANCH  15  16
ENDBRANCH  14  15
ENDBRANCH  13  14
ENDBRANCH  11  12
ENDBRANCH  10  11
ENDBRANCH   8   9
ENDBRANCH   7   8
ENDBRANCH   5   6
ENDBRANCH   4   5
ENDBRANCH   3   4
ENDBRANCH   2   3
TORSDOF 12
ENDMDL
MODEL      129
REMARK 921   NORMALIZED FREE ENERGY PREDICTED BY IDOCK:   -4.03 KCAL/MOL
REMARK 922        TOTAL FREE ENERGY PREDICTED BY IDOCK:   -8.81 KCAL/MOL
REMARK 923 INTER-LIGAND FREE ENERGY PREDICTED BY IDOCK:   -6.49 KCAL/MOL
REMARK 924 INTRA-LIGAND FREE ENERGY PREDICTED BY IDOCK:   -2.32 KCAL/MOL
REMARK 927      BINDING AFFINITY PREDICTED BY RF-SCORE:    0.00 PKD
ROOT
HETATM    1  C   UNL     1     -11.027   7.043  71.227  1.00  0.00    -0.270 C  
HETATM    2  C   UNL     1     -11.955   8.242  71.314  1.00  0.00    -0.317 C  
ENDROOT
BRANCH   2   3
HETATM    3  C   UNL     1     -11.175   9.548  71.221  1.00  0.00    -0.452 C  
BRANCH   3   4
HETATM    4  C   UNL     1      -9.837   9.343  70.513  1.00  0.00    -0.331 C  
BRANCH   4   5
HETATM    5  C   UNL     1      -9.738  10.289  69.325  1.00  0.00    -0.240 C  
BRANCH   5   6
HETATM    6  C   UNL     1     -10.906  10.194  68.389  1.00  0.00    -0.284 C  
HETATM    7  C   UNL     1     -11.617  11.269  68.014  1.00  0.00    -0.343 C  
BRANCH   7   8
HETATM    8  C   UNL     1     -11.350  12.663  68.497  1.00  0.00    -0.333 C  
BRANCH   8   9
HETATM    9  C   UNL     1     -10.477  13.425  67.549  1.00  0.00    -0.236 C  
HETATM   10  C   UNL     1     -10.913  14.053  66.446  1.00  0.00    -0.308 C  
BRANCH  10  11
HETATM   11  C   UNL     1     -12.322  14.010  65.937  1.00  0.00    -0.515 C  
BRANCH  11  12
HETATM   12  C   UNL     1     -12.395  14.376  64.481  1.00  0.00    -0.440 C  
HETATM   13  C   UNL     1     -12.270  13.506  63.466  1.00  0.00    -0.410 C  
BRANCH  13  14
HETATM   14  C   UNL     1     -12.023  12.046  63.691  1.00  0.00    -0.612 C  
BRANCH  14  15
HETATM   15  C   UNL     1     -10.561  11.641  63.553  1.00  0.00    -0.496 C  
BRANCH  15  16
HETATM   16  C   UNL     1     -10.199  10.677  64.684  1.00  0.00    -0.404 C  
BRANCH  16  17
HETATM   17  C   UNL     1      -8.838  11.005  65.281  1.00  0.00    -0.139 C  
HETATM   18  C   UNL     1      -8.190   9.786  65.893  1.00  0.00    -0.117 C  
HETATM   19  O   UNL     1      -8.674   8.664  65.923  1.00  0.00    -0.151 OA 
HETATM   20  O   UNL     1      -6.979  10.065  66.427  1.00  0.00    -0.093 OA 
ENDBRANCH  16  17
ENDBRANCH  15  16
ENDBRANCH  14  15
ENDBRANCH  13  14
ENDBRANCH  11  12
ENDBRANCH  10  11
ENDBRANCH   8   9
ENDBRANCH   7   8
ENDBRANCH   5   6
ENDBRANCH   4   5
ENDBRANCH   3   4
ENDBRANCH   2   3
TORSDOF 12
ENDMDL
MODEL      130
REMARK 921   NORMALIZED FREE ENERGY PREDICTED BY IDOCK:   -4.03 KCAL/MOL
REMARK 922        TOTAL FREE ENERGY PREDICTED BY IDOCK:   -8.81 KCAL/MOL
REMARK 923 INTER-LIGAND FREE ENERGY PREDICTED BY IDOCK:   -7.29 KCAL/MOL
REMARK 924 INTRA-LIGAND FREE ENERGY PREDICTED BY IDOCK:   -1.51 KCAL/MOL
REMARK 927      BINDING AFFINITY PREDICTED BY RF-SCORE:    0.00 PKD
ROOT
HETATM    1  C   UNL     1     -11.448   6.968  71.685  1.00  0.00    -0.299 C  
HETATM    2  C   UNL     1     -12.576   7.948  71.415  1.00  0.00    -0.319 C  
ENDROOT
BRANCH   2   3
HETATM    3  C   UNL     1     -12.119   9.385  71.639  1.00  0.00    -0.462 C  
BRANCH   3   4
HETATM    4  C   UNL     1     -13.304  10.299  71.945  1.00  0.00    -0.487 C  
BRANCH   4   5
HETATM    5  C   UNL     1     -12.915  11.746  71.675  1.00  0.00    -0.467 C  
BRANCH   5   6
HETATM    6  C   UNL     1     -13.861  12.741  72.281  1.00  0.00    -0.395 C  
HETATM    7  C   UNL     1     -13.563  14.045  72.384  1.00  0.00    -0.658 C  
BRANCH   7   8
HETATM    8  C   UNL     1     -12.266  14.649  71.937  1.00  0.00    -0.390 C  
BRANCH   8   9
HETATM    9  C   UNL     1     -12.443  15.534  70.742  1.00  0.00    -0.491 C  
HETATM   10  C   UNL     1     -12.235  15.154  69.472  1.00  0.00    -0.268 C  
BRANCH  10  11
HETATM   11  C   UNL     1     -11.701  13.817  69.055  1.00  0.00    -0.372 C  
BRANCH  11  12
HETATM   12  C   UNL     1     -10.241  13.890  68.702  1.00  0.00    -0.218 C  
HETATM   13  C   UNL     1      -9.758  13.935  67.450  1.00  0.00    -0.234 C  
BRANCH  13  14
HETATM   14  C   UNL     1     -10.650  13.902  66.247  1.00  0.00    -0.289 C  
BRANCH  14  15
HETATM   15  C   UNL     1     -11.060  15.281  65.748  1.00  0.00    -0.301 C  
BRANCH  15  16
HETATM   16  C   UNL     1      -9.982  16.294  66.131  1.00  0.00    -0.355 C  
BRANCH  16  17
HETATM   17  C   UNL     1     -10.570  17.683  66.339  1.00  0.00    -0.208 C  
HETATM   18  C   UNL     1     -10.199  18.247  67.689  1.00  0.00    -0.382 C  
HETATM   19  O   UNL     1      -9.516  17.684  68.532  1.00  0.00    -0.281 OA 
HETATM   20  O   UNL     1     -10.715  19.483  67.886  1.00  0.00    -0.416 OA 
ENDBRANCH  16  17
ENDBRANCH  15  16
ENDBRANCH  14  15
ENDBRANCH  13  14
ENDBRANCH  11  12
ENDBRANCH  10  11
ENDBRANCH   8   9
ENDBRANCH   7   8
ENDBRANCH   5   6
ENDBRANCH   4   5
ENDBRANCH   3   4
ENDBRANCH   2   3
TORSDOF 12
ENDMDL
MODEL      131
REMARK 921   NORMALIZED FREE ENERGY PREDICTED BY IDOCK:   -4.02 KCAL/MOL
REMARK 922        TOTAL FREE ENERGY PREDICTED BY IDOCK:   -8.80 KCAL/MOL
REMARK 923 INTER-LIGAND FREE ENERGY PREDICTED BY IDOCK:   -7.17 KCAL/MOL
REMARK 924 INTRA-LIGAND FREE ENERGY PREDICTED BY IDOCK:   -1.63 KCAL/MOL
REMARK 927      BINDING AFFINITY PREDICTED BY RF-SCORE:    0.00 PKD
ROOT
HETATM    1  C   UNL     1     -11.869  15.108  69.282  1.00  0.00    -0.347 C  
HETATM    2  C   UNL     1     -12.059  13.925  70.214  1.00  0.00    -0.423 C  
ENDROOT
BRANCH   2   3
HETATM    3  C   UNL     1     -13.114  14.222  71.273  1.00  0.00    -0.425 C  
BRANCH   3   4
HETATM    4  C   UNL     1     -13.448  12.972  72.085  1.00  0.00    -0.638 C  
BRANCH   4   5
HETATM    5  C   UNL     1     -12.877  11.744  71.390  1.00  0.00    -0.440 C  
BRANCH   5   6
HETATM    6  C   UNL     1     -13.409  10.451  71.932  1.00  0.00    -0.469 C  
HETATM    7  C   UNL     1     -12.783   9.279  71.740  1.00  0.00    -0.462 C  
BRANCH   7   8
HETATM    8  C   UNL     1     -11.516   9.122  70.955  1.00  0.00    -0.372 C  
BRANCH   8   9
HETATM    9  C   UNL     1     -10.382   8.651  71.812  1.00  0.00    -0.386 C  
HETATM   10  C   UNL     1     -10.142   7.369  72.124  1.00  0.00    -0.223 C  
BRANCH  10  11
HETATM   11  C   UNL     1     -11.023   6.217  71.747  1.00  0.00    -0.315 C  
BRANCH  11  12
HETATM   12  C   UNL     1     -10.290   5.215  70.898  1.00  0.00    -0.282 C  
HETATM   13  C   UNL     1     -10.250   5.232  69.556  1.00  0.00    -0.338 C  
BRANCH  13  14
HETATM   14  C   UNL     1     -10.964   6.273  68.749  1.00  0.00    -0.424 C  
BRANCH  14  15
HETATM   15  C   UNL     1     -10.039   7.315  68.134  1.00  0.00    -0.201 C  
BRANCH  15  16
HETATM   16  C   UNL     1     -10.822   8.141  67.113  1.00  0.00    -0.120 C  
BRANCH  16  17
HETATM   17  C   UNL     1     -10.020   9.343  66.635  1.00  0.00    -0.326 C  
HETATM   18  C   UNL     1     -10.612  10.640  67.132  1.00  0.00    -0.260 C  
HETATM   19  O   UNL     1     -11.611  10.744  67.828  1.00  0.00    -0.521 OA 
HETATM   20  O   UNL     1      -9.907  11.717  66.714  1.00  0.00    -0.194 OA 
ENDBRANCH  16  17
ENDBRANCH  15  16
ENDBRANCH  14  15
ENDBRANCH  13  14
ENDBRANCH  11  12
ENDBRANCH  10  11
ENDBRANCH   8   9
ENDBRANCH   7   8
ENDBRANCH   5   6
ENDBRANCH   4   5
ENDBRANCH   3   4
ENDBRANCH   2   3
TORSDOF 12
ENDMDL
MODEL      132
REMARK 921   NORMALIZED FREE ENERGY PREDICTED BY IDOCK:   -4.02 KCAL/MOL
REMARK 922        TOTAL FREE ENERGY PREDICTED BY IDOCK:   -8.79 KCAL/MOL
REMARK 923 INTER-LIGAND FREE ENERGY PREDICTED BY IDOCK:   -7.40 KCAL/MOL
REMARK 924 INTRA-LIGAND FREE ENERGY PREDICTED BY IDOCK:   -1.39 KCAL/MOL
REMARK 927      BINDING AFFINITY PREDICTED BY RF-SCORE:    0.00 PKD
ROOT
HETATM    1  C   UNL     1     -10.043  18.630  66.547  1.00  0.00    -0.426 C  
HETATM    2  C   UNL     1     -10.591  17.278  66.968  1.00  0.00    -0.231 C  
ENDROOT
BRANCH   2   3
HETATM    3  C   UNL     1     -10.012  16.159  66.109  1.00  0.00    -0.357 C  
BRANCH   3   4
HETATM    4  C   UNL     1     -10.934  15.829  64.937  1.00  0.00    -0.443 C  
BRANCH   4   5
HETATM    5  C   UNL     1     -10.856  14.340  64.630  1.00  0.00    -0.384 C  
BRANCH   5   6
HETATM    6  C   UNL     1     -12.122  13.600  64.947  1.00  0.00    -0.426 C  
HETATM    7  C   UNL     1     -12.274  12.882  66.071  1.00  0.00    -0.431 C  
BRANCH   7   8
HETATM    8  C   UNL     1     -11.208  12.717  67.112  1.00  0.00    -0.336 C  
BRANCH   8   9
HETATM    9  C   UNL     1     -11.460  13.577  68.312  1.00  0.00    -0.345 C  
HETATM   10  C   UNL     1     -11.795  13.115  69.526  1.00  0.00    -0.383 C  
BRANCH  10  11
HETATM   11  C   UNL     1     -12.065  11.676  69.850  1.00  0.00    -0.373 C  
BRANCH  11  12
HETATM   12  C   UNL     1     -12.843  11.534  71.128  1.00  0.00    -0.414 C  
HETATM   13  C   UNL     1     -12.980  10.390  71.817  1.00  0.00    -0.580 C  
BRANCH  13  14
HETATM   14  C   UNL     1     -12.365   9.103  71.360  1.00  0.00    -0.404 C  
BRANCH  14  15
HETATM   15  C   UNL     1     -11.040   8.780  72.037  1.00  0.00    -0.441 C  
BRANCH  15  16
HETATM   16  C   UNL     1     -10.303   7.719  71.220  1.00  0.00    -0.222 C  
BRANCH  16  17
HETATM   17  C   UNL     1     -10.785   7.693  69.776  1.00  0.00    -0.243 C  
HETATM   18  C   UNL     1     -10.812   6.288  69.223  1.00  0.00    -0.342 C  
HETATM   19  O   UNL     1     -10.490   5.279  69.833  1.00  0.00    -0.297 OA 
HETATM   20  O   UNL     1     -11.240   6.252  67.940  1.00  0.00    -0.323 OA 
ENDBRANCH  16  17
ENDBRANCH  15  16
ENDBRANCH  14  15
ENDBRANCH  13  14
ENDBRANCH  11  12
ENDBRANCH  10  11
ENDBRANCH   8   9
ENDBRANCH   7   8
ENDBRANCH   5   6
ENDBRANCH   4   5
ENDBRANCH   3   4
ENDBRANCH   2   3
TORSDOF 12
ENDMDL
MODEL      133
REMARK 921   NORMALIZED FREE ENERGY PREDICTED BY IDOCK:   -4.02 KCAL/MOL
REMARK 922        TOTAL FREE ENERGY PREDICTED BY IDOCK:   -8.79 KCAL/MOL
REMARK 923 INTER-LIGAND FREE ENERGY PREDICTED BY IDOCK:   -7.17 KCAL/MOL
REMARK 924 INTRA-LIGAND FREE ENERGY PREDICTED BY IDOCK:   -1.62 KCAL/MOL
REMARK 927      BINDING AFFINITY PREDICTED BY RF-SCORE:    0.00 PKD
ROOT
HETATM    1  C   UNL     1     -12.693  11.122  71.100  1.00  0.00    -0.510 C  
HETATM    2  C   UNL     1     -12.520  12.608  71.357  1.00  0.00    -0.209 C  
ENDROOT
BRANCH   2   3
HETATM    3  C   UNL     1     -13.634  13.146  72.247  1.00  0.00    -0.677 C  
BRANCH   3   4
HETATM    4  C   UNL     1     -13.304  14.547  72.760  1.00  0.00    -0.600 C  
BRANCH   4   5
HETATM    5  C   UNL     1     -13.183  15.505  71.583  1.00  0.00    -0.575 C  
BRANCH   5   6
HETATM    6  C   UNL     1     -11.767  15.890  71.271  1.00  0.00    -0.504 C  
HETATM    7  C   UNL     1     -11.278  15.879  70.021  1.00  0.00    -0.354 C  
BRANCH   7   8
HETATM    8  C   UNL     1     -12.066  15.467  68.814  1.00  0.00    -0.183 C  
BRANCH   8   9
HETATM    9  C   UNL     1     -11.963  13.996  68.555  1.00  0.00    -0.383 C  
HETATM   10  C   UNL     1     -12.065  13.424  67.345  1.00  0.00    -0.338 C  
BRANCH  10  11
HETATM   11  C   UNL     1     -12.395  14.154  66.079  1.00  0.00    -0.470 C  
BRANCH  11  12
HETATM   12  C   UNL     1     -11.255  14.107  65.100  1.00  0.00    -0.337 C  
HETATM   13  C   UNL     1     -10.322  15.063  64.964  1.00  0.00    -0.390 C  
BRANCH  13  14
HETATM   14  C   UNL     1     -10.335  16.314  65.788  1.00  0.00    -0.393 C  
BRANCH  14  15
HETATM   15  C   UNL     1      -8.959  16.939  65.978  1.00  0.00    -0.198 C  
BRANCH  15  16
HETATM   16  C   UNL     1      -8.258  16.261  67.157  1.00  0.00    -0.219 C  
BRANCH  16  17
HETATM   17  C   UNL     1      -8.115  17.208  68.340  1.00  0.00    -0.255 C  
HETATM   18  C   UNL     1      -6.684  17.652  68.528  1.00  0.00    -0.208 C  
HETATM   19  O   UNL     1      -5.737  17.308  67.836  1.00  0.00    -0.113 OA 
HETATM   20  O   UNL     1      -6.544  18.495  69.577  1.00  0.00    -0.252 OA 
ENDBRANCH  16  17
ENDBRANCH  15  16
ENDBRANCH  14  15
ENDBRANCH  13  14
ENDBRANCH  11  12
ENDBRANCH  10  11
ENDBRANCH   8   9
ENDBRANCH   7   8
ENDBRANCH   5   6
ENDBRANCH   4   5
ENDBRANCH   3   4
ENDBRANCH   2   3
TORSDOF 12
ENDMDL
MODEL      134
REMARK 921   NORMALIZED FREE ENERGY PREDICTED BY IDOCK:   -4.01 KCAL/MOL
REMARK 922        TOTAL FREE ENERGY PREDICTED BY IDOCK:   -8.78 KCAL/MOL
REMARK 923 INTER-LIGAND FREE ENERGY PREDICTED BY IDOCK:   -6.29 KCAL/MOL
REMARK 924 INTRA-LIGAND FREE ENERGY PREDICTED BY IDOCK:   -2.49 KCAL/MOL
REMARK 927      BINDING AFFINITY PREDICTED BY RF-SCORE:    0.00 PKD
ROOT
HETATM    1  C   UNL     1     -11.927  15.723  70.886  1.00  0.00    -0.453 C  
HETATM    2  C   UNL     1     -11.080  15.528  69.641  1.00  0.00    -0.280 C  
ENDROOT
BRANCH   2   3
HETATM    3  C   UNL     1     -11.562  14.331  68.831  1.00  0.00    -0.340 C  
BRANCH   3   4
HETATM    4  C   UNL     1     -11.710  14.688  67.353  1.00  0.00    -0.413 C  
BRANCH   4   5
HETATM    5  C   UNL     1     -12.157  13.459  66.573  1.00  0.00    -0.444 C  
BRANCH   5   6
HETATM    6  C   UNL     1     -12.591  13.769  65.171  1.00  0.00    -0.471 C  
HETATM    7  C   UNL     1     -11.851  13.441  64.100  1.00  0.00    -0.492 C  
BRANCH   7   8
HETATM    8  C   UNL     1     -10.516  12.762  64.178  1.00  0.00    -0.437 C  
BRANCH   8   9
HETATM    9  C   UNL     1     -10.446  11.563  63.283  1.00  0.00    -0.421 C  
HETATM   10  C   UNL     1      -9.773  10.437  63.566  1.00  0.00    -0.333 C  
BRANCH  10  11
HETATM   11  C   UNL     1      -8.910  10.237  64.774  1.00  0.00    -0.217 C  
BRANCH  11  12
HETATM   12  C   UNL     1      -9.436   9.137  65.654  1.00  0.00    -0.309 C  
HETATM   13  C   UNL     1     -10.127   9.328  66.789  1.00  0.00    -0.331 C  
BRANCH  13  14
HETATM   14  C   UNL     1     -10.439  10.697  67.313  1.00  0.00    -0.293 C  
BRANCH  14  15
HETATM   15  C   UNL     1      -9.767  11.014  68.642  1.00  0.00    -0.198 C  
BRANCH  15  16
HETATM   16  C   UNL     1      -8.405  11.657  68.374  1.00  0.00    -0.157 C  
BRANCH  16  17
HETATM   17  C   UNL     1      -8.496  12.729  67.298  1.00  0.00    -0.194 C  
HETATM   18  C   UNL     1      -8.014  14.068  67.804  1.00  0.00    -0.171 C  
HETATM   19  O   UNL     1      -7.599  14.293  68.931  1.00  0.00    -0.124 OA 
HETATM   20  O   UNL     1      -8.089  15.030  66.855  1.00  0.00    -0.209 OA 
ENDBRANCH  16  17
ENDBRANCH  15  16
ENDBRANCH  14  15
ENDBRANCH  13  14
ENDBRANCH  11  12
ENDBRANCH  10  11
ENDBRANCH   8   9
ENDBRANCH   7   8
ENDBRANCH   5   6
ENDBRANCH   4   5
ENDBRANCH   3   4
ENDBRANCH   2   3
TORSDOF 12
ENDMDL
MODEL      135
REMARK 921   NORMALIZED FREE ENERGY PREDICTED BY IDOCK:   -4.01 KCAL/MOL
REMARK 922        TOTAL FREE ENERGY PREDICTED BY IDOCK:   -8.78 KCAL/MOL
REMARK 923 INTER-LIGAND FREE ENERGY PREDICTED BY IDOCK:   -7.36 KCAL/MOL
REMARK 924 INTRA-LIGAND FREE ENERGY PREDICTED BY IDOCK:   -1.42 KCAL/MOL
REMARK 927      BINDING AFFINITY PREDICTED BY RF-SCORE:    0.00 PKD
ROOT
HETATM    1  C   UNL     1      -6.185  20.059  70.009  1.00  0.00    -0.395 C  
HETATM    2  C   UNL     1      -6.720  19.614  68.659  1.00  0.00    -0.332 C  
ENDROOT
BRANCH   2   3
HETATM    3  C   UNL     1      -8.243  19.571  68.658  1.00  0.00    -0.369 C  
BRANCH   3   4
HETATM    4  C   UNL     1      -8.771  18.743  67.488  1.00  0.00    -0.292 C  
BRANCH   4   5
HETATM    5  C   UNL     1      -9.043  17.319  67.954  1.00  0.00    -0.239 C  
BRANCH   5   6
HETATM    6  C   UNL     1      -8.508  16.275  67.020  1.00  0.00    -0.232 C  
HETATM    7  C   UNL     1      -9.276  15.675  66.096  1.00  0.00    -0.378 C  
BRANCH   7   8
HETATM    8  C   UNL     1     -10.737  15.955  65.908  1.00  0.00    -0.303 C  
BRANCH   8   9
HETATM    9  C   UNL     1     -11.242  15.437  64.597  1.00  0.00    -0.374 C  
HETATM   10  C   UNL     1     -12.178  14.486  64.461  1.00  0.00    -0.483 C  
BRANCH  10  11
HETATM   11  C   UNL     1     -12.797  13.725  65.594  1.00  0.00    -0.456 C  
BRANCH  11  12
HETATM   12  C   UNL     1     -12.002  12.495  65.933  1.00  0.00    -0.472 C  
HETATM   13  C   UNL     1     -11.439  12.252  67.127  1.00  0.00    -0.419 C  
BRANCH  13  14
HETATM   14  C   UNL     1     -11.538  13.217  68.269  1.00  0.00    -0.369 C  
BRANCH  14  15
HETATM   15  C   UNL     1     -11.859  12.560  69.604  1.00  0.00    -0.382 C  
BRANCH  15  16
HETATM   16  C   UNL     1     -12.002  11.051  69.400  1.00  0.00    -0.408 C  
BRANCH  16  17
HETATM   17  C   UNL     1     -10.951  10.280  70.184  1.00  0.00    -0.377 C  
HETATM   18  C   UNL     1     -11.551   9.578  71.379  1.00  0.00    -0.395 C  
HETATM   19  O   UNL     1     -12.729   9.609  71.703  1.00  0.00    -0.348 OA 
HETATM   20  O   UNL     1     -10.626   8.887  72.084  1.00  0.00    -0.340 OA 
ENDBRANCH  16  17
ENDBRANCH  15  16
ENDBRANCH  14  15
ENDBRANCH  13  14
ENDBRANCH  11  12
ENDBRANCH  10  11
ENDBRANCH   8   9
ENDBRANCH   7   8
ENDBRANCH   5   6
ENDBRANCH   4   5
ENDBRANCH   3   4
ENDBRANCH   2   3
TORSDOF 12
ENDMDL
MODEL      136
REMARK 921   NORMALIZED FREE ENERGY PREDICTED BY IDOCK:   -4.01 KCAL/MOL
REMARK 922        TOTAL FREE ENERGY PREDICTED BY IDOCK:   -8.77 KCAL/MOL
REMARK 923 INTER-LIGAND FREE ENERGY PREDICTED BY IDOCK:   -6.55 KCAL/MOL
REMARK 924 INTRA-LIGAND FREE ENERGY PREDICTED BY IDOCK:   -2.22 KCAL/MOL
REMARK 927      BINDING AFFINITY PREDICTED BY RF-SCORE:    0.00 PKD
ROOT
HETATM    1  C   UNL     1     -12.599  11.853  63.533  1.00  0.00    -0.579 C  
HETATM    2  C   UNL     1     -11.661  13.039  63.386  1.00  0.00    -0.477 C  
ENDROOT
BRANCH   2   3
HETATM    3  C   UNL     1     -11.968  14.113  64.423  1.00  0.00    -0.478 C  
BRANCH   3   4
HETATM    4  C   UNL     1     -12.825  13.556  65.558  1.00  0.00    -0.406 C  
BRANCH   4   5
HETATM    5  C   UNL     1     -12.270  14.029  66.895  1.00  0.00    -0.415 C  
BRANCH   5   6
HETATM    6  C   UNL     1     -11.105  14.964  66.759  1.00  0.00    -0.335 C  
HETATM    7  C   UNL     1      -9.904  14.699  67.297  1.00  0.00    -0.231 C  
BRANCH   7   8
HETATM    8  C   UNL     1      -9.597  13.474  68.104  1.00  0.00    -0.215 C  
BRANCH   8   9
HETATM    9  C   UNL     1      -8.482  12.675  67.504  1.00  0.00    -0.176 C  
HETATM   10  C   UNL     1      -8.643  11.696  66.601  1.00  0.00    -0.179 C  
BRANCH  10  11
HETATM   11  C   UNL     1      -9.967  11.183  66.121  1.00  0.00    -0.273 C  
BRANCH  11  12
HETATM   12  C   UNL     1     -10.095   9.700  66.333  1.00  0.00    -0.317 C  
HETATM   13  C   UNL     1     -10.470   9.121  67.484  1.00  0.00    -0.335 C  
BRANCH  13  14
HETATM   14  C   UNL     1     -10.793   9.917  68.712  1.00  0.00    -0.240 C  
BRANCH  14  15
HETATM   15  C   UNL     1      -9.765   9.774  69.826  1.00  0.00    -0.256 C  
BRANCH  15  16
HETATM   16  C   UNL     1     -10.476   9.362  71.115  1.00  0.00    -0.392 C  
BRANCH  16  17
HETATM   17  C   UNL     1     -11.989   9.432  70.965  1.00  0.00    -0.389 C  
HETATM   18  C   UNL     1     -12.647   8.125  71.336  1.00  0.00    -0.283 C  
HETATM   19  O   UNL     1     -12.065   7.118  71.711  1.00  0.00    -0.298 OA 
HETATM   20  O   UNL     1     -13.993   8.176  71.208  1.00  0.00    -0.280 OA 
ENDBRANCH  16  17
ENDBRANCH  15  16
ENDBRANCH  14  15
ENDBRANCH  13  14
ENDBRANCH  11  12
ENDBRANCH  10  11
ENDBRANCH   8   9
ENDBRANCH   7   8
ENDBRANCH   5   6
ENDBRANCH   4   5
ENDBRANCH   3   4
ENDBRANCH   2   3
TORSDOF 12
ENDMDL
MODEL      137
REMARK 921   NORMALIZED FREE ENERGY PREDICTED BY IDOCK:   -4.00 KCAL/MOL
REMARK 922        TOTAL FREE ENERGY PREDICTED BY IDOCK:   -8.77 KCAL/MOL
REMARK 923 INTER-LIGAND FREE ENERGY PREDICTED BY IDOCK:   -7.33 KCAL/MOL
REMARK 924 INTRA-LIGAND FREE ENERGY PREDICTED BY IDOCK:   -1.43 KCAL/MOL
REMARK 927      BINDING AFFINITY PREDICTED BY RF-SCORE:    0.00 PKD
ROOT
HETATM    1  C   UNL     1     -10.743   6.689  68.727  1.00  0.00    -0.302 C  
HETATM    2  C   UNL     1     -11.385   6.000  69.918  1.00  0.00    -0.355 C  
ENDROOT
BRANCH   2   3
HETATM    3  C   UNL     1     -10.546   6.184  71.178  1.00  0.00    -0.300 C  
BRANCH   3   4
HETATM    4  C   UNL     1     -11.425   6.520  72.382  1.00  0.00    -0.306 C  
BRANCH   4   5
HETATM    5  C   UNL     1     -11.597   8.029  72.481  1.00  0.00    -0.464 C  
BRANCH   5   6
HETATM    6  C   UNL     1     -10.442   8.800  71.914  1.00  0.00    -0.423 C  
HETATM    7  C   UNL     1     -10.590   9.690  70.920  1.00  0.00    -0.386 C  
BRANCH   7   8
HETATM    8  C   UNL     1     -11.898   9.996  70.255  1.00  0.00    -0.291 C  
BRANCH   8   9
HETATM    9  C   UNL     1     -11.896  11.347  69.611  1.00  0.00    -0.431 C  
HETATM   10  C   UNL     1     -11.551  11.586  68.336  1.00  0.00    -0.375 C  
BRANCH  10  11
HETATM   11  C   UNL     1     -11.024  10.555  67.385  1.00  0.00    -0.352 C  
BRANCH  11  12
HETATM   12  C   UNL     1      -9.951  11.120  66.496  1.00  0.00    -0.252 C  
HETATM   13  C   UNL     1     -10.175  11.782  65.350  1.00  0.00    -0.301 C  
BRANCH  13  14
HETATM   14  C   UNL     1     -11.557  12.018  64.822  1.00  0.00    -0.344 C  
BRANCH  14  15
HETATM   15  C   UNL     1     -11.836  13.470  64.459  1.00  0.00    -0.442 C  
BRANCH  15  16
HETATM   16  C   UNL     1     -10.905  14.377  65.264  1.00  0.00    -0.370 C  
BRANCH  16  17
HETATM   17  C   UNL     1     -10.958  15.814  64.766  1.00  0.00    -0.410 C  
HETATM   18  C   UNL     1     -10.524  16.789  65.834  1.00  0.00    -0.301 C  
HETATM   19  O   UNL     1     -10.173  16.493  66.966  1.00  0.00    -0.277 OA 
HETATM   20  O   UNL     1     -10.565  18.072  65.402  1.00  0.00    -0.648 OA 
ENDBRANCH  16  17
ENDBRANCH  15  16
ENDBRANCH  14  15
ENDBRANCH  13  14
ENDBRANCH  11  12
ENDBRANCH  10  11
ENDBRANCH   8   9
ENDBRANCH   7   8
ENDBRANCH   5   6
ENDBRANCH   4   5
ENDBRANCH   3   4
ENDBRANCH   2   3
TORSDOF 12
ENDMDL
MODEL      138
REMARK 921   NORMALIZED FREE ENERGY PREDICTED BY IDOCK:   -3.99 KCAL/MOL
REMARK 922        TOTAL FREE ENERGY PREDICTED BY IDOCK:   -8.75 KCAL/MOL
REMARK 923 INTER-LIGAND FREE ENERGY PREDICTED BY IDOCK:   -6.90 KCAL/MOL
REMARK 924 INTRA-LIGAND FREE ENERGY PREDICTED BY IDOCK:   -1.85 KCAL/MOL
REMARK 927      BINDING AFFINITY PREDICTED BY RF-SCORE:    0.00 PKD
ROOT
HETATM    1  C   UNL     1     -11.876  14.164  69.820  1.00  0.00    -0.381 C  
HETATM    2  C   UNL     1     -11.803  14.714  68.407  1.00  0.00    -0.330 C  
ENDROOT
BRANCH   2   3
HETATM    3  C   UNL     1     -11.880  13.593  67.377  1.00  0.00    -0.429 C  
BRANCH   3   4
HETATM    4  C   UNL     1     -12.490  14.088  66.067  1.00  0.00    -0.489 C  
BRANCH   4   5
HETATM    5  C   UNL     1     -12.648  12.918  65.104  1.00  0.00    -0.536 C  
BRANCH   5   6
HETATM    6  C   UNL     1     -11.772  13.023  63.892  1.00  0.00    -0.531 C  
HETATM    7  C   UNL     1     -10.792  12.142  63.635  1.00  0.00    -0.523 C  
BRANCH   7   8
HETATM    8  C   UNL     1     -10.448  10.985  64.525  1.00  0.00    -0.411 C  
BRANCH   8   9
HETATM    9  C   UNL     1      -9.418  11.354  65.548  1.00  0.00    -0.251 C  
HETATM   10  C   UNL     1      -9.329  10.811  66.771  1.00  0.00    -0.182 C  
BRANCH  10  11
HETATM   11  C   UNL     1     -10.299   9.822  67.342  1.00  0.00    -0.297 C  
BRANCH  11  12
HETATM   12  C   UNL     1     -11.376  10.501  68.141  1.00  0.00    -0.324 C  
HETATM   13  C   UNL     1     -11.437  10.525  69.481  1.00  0.00    -0.339 C  
BRANCH  13  14
HETATM   14  C   UNL     1     -10.414   9.844  70.339  1.00  0.00    -0.347 C  
BRANCH  14  15
HETATM   15  C   UNL     1     -10.997   9.177  71.578  1.00  0.00    -0.434 C  
BRANCH  15  16
HETATM   16  C   UNL     1     -10.867   7.660  71.440  1.00  0.00    -0.250 C  
BRANCH  16  17
HETATM   17  C   UNL     1      -9.697   7.279  70.545  1.00  0.00    -0.176 C  
HETATM   18  C   UNL     1     -10.133   6.385  69.409  1.00  0.00    -0.173 C  
HETATM   19  O   UNL     1     -11.275   5.996  69.209  1.00  0.00    -0.384 OA 
HETATM   20  O   UNL     1      -9.101   6.041  68.604  1.00  0.00    -0.117 OA 
ENDBRANCH  16  17
ENDBRANCH  15  16
ENDBRANCH  14  15
ENDBRANCH  13  14
ENDBRANCH  11  12
ENDBRANCH  10  11
ENDBRANCH   8   9
ENDBRANCH   7   8
ENDBRANCH   5   6
ENDBRANCH   4   5
ENDBRANCH   3   4
ENDBRANCH   2   3
TORSDOF 12
ENDMDL
MODEL      139
REMARK 921   NORMALIZED FREE ENERGY PREDICTED BY IDOCK:   -3.98 KCAL/MOL
REMARK 922        TOTAL FREE ENERGY PREDICTED BY IDOCK:   -8.73 KCAL/MOL
REMARK 923 INTER-LIGAND FREE ENERGY PREDICTED BY IDOCK:   -7.64 KCAL/MOL
REMARK 924 INTRA-LIGAND FREE ENERGY PREDICTED BY IDOCK:   -1.09 KCAL/MOL
REMARK 927      BINDING AFFINITY PREDICTED BY RF-SCORE:    0.00 PKD
ROOT
HETATM    1  C   UNL     1     -10.793   6.723  68.433  1.00  0.00    -0.284 C  
HETATM    2  C   UNL     1     -11.630   6.395  69.657  1.00  0.00    -0.351 C  
ENDROOT
BRANCH   2   3
HETATM    3  C   UNL     1     -10.748   6.007  70.838  1.00  0.00    -0.329 C  
BRANCH   3   4
HETATM    4  C   UNL     1     -11.548   5.980  72.139  1.00  0.00    -0.348 C  
BRANCH   4   5
HETATM    5  C   UNL     1     -11.557   7.370  72.760  1.00  0.00    -0.255 C  
BRANCH   5   6
HETATM    6  C   UNL     1     -10.426   8.238  72.294  1.00  0.00    -0.392 C  
HETATM    7  C   UNL     1     -10.628   9.416  71.682  1.00  0.00    -0.248 C  
BRANCH   7   8
HETATM    8  C   UNL     1     -11.982   9.981  71.374  1.00  0.00    -0.470 C  
BRANCH   8   9
HETATM    9  C   UNL     1     -11.897  11.196  70.504  1.00  0.00    -0.448 C  
HETATM   10  C   UNL     1     -12.454  12.382  70.792  1.00  0.00    -0.356 C  
BRANCH  10  11
HETATM   11  C   UNL     1     -13.329  12.652  71.978  1.00  0.00    -0.555 C  
BRANCH  11  12
HETATM   12  C   UNL     1     -14.195  13.862  71.763  1.00  0.00    -0.331 C  
HETATM   13  C   UNL     1     -14.028  15.043  72.380  1.00  0.00    -0.593 C  
BRANCH  13  14
HETATM   14  C   UNL     1     -12.939  15.273  73.382  1.00  0.00    -0.656 C  
BRANCH  14  15
HETATM   15  C   UNL     1     -11.565  15.484  72.760  1.00  0.00    -0.472 C  
BRANCH  15  16
HETATM   16  C   UNL     1     -11.734  15.889  71.295  1.00  0.00    -0.504 C  
BRANCH  16  17
HETATM   17  C   UNL     1     -10.568  15.405  70.445  1.00  0.00    -0.274 C  
HETATM   18  C   UNL     1     -10.917  15.394  68.976  1.00  0.00    -0.252 C  
HETATM   19  O   UNL     1     -11.994  15.723  68.500  1.00  0.00    -0.314 OA 
HETATM   20  O   UNL     1      -9.888  14.967  68.209  1.00  0.00    -0.209 OA 
ENDBRANCH  16  17
ENDBRANCH  15  16
ENDBRANCH  14  15
ENDBRANCH  13  14
ENDBRANCH  11  12
ENDBRANCH  10  11
ENDBRANCH   8   9
ENDBRANCH   7   8
ENDBRANCH   5   6
ENDBRANCH   4   5
ENDBRANCH   3   4
ENDBRANCH   2   3
TORSDOF 12
ENDMDL
MODEL      140
REMARK 921   NORMALIZED FREE ENERGY PREDICTED BY IDOCK:   -3.97 KCAL/MOL
REMARK 922        TOTAL FREE ENERGY PREDICTED BY IDOCK:   -8.71 KCAL/MOL
REMARK 923 INTER-LIGAND FREE ENERGY PREDICTED BY IDOCK:   -7.02 KCAL/MOL
REMARK 924 INTRA-LIGAND FREE ENERGY PREDICTED BY IDOCK:   -1.69 KCAL/MOL
REMARK 927      BINDING AFFINITY PREDICTED BY RF-SCORE:    0.00 PKD
ROOT
HETATM    1  C   UNL     1      -9.919   5.084  68.154  1.00  0.00    -0.190 C  
HETATM    2  C   UNL     1     -10.435   5.868  66.961  1.00  0.00    -0.341 C  
ENDROOT
BRANCH   2   3
HETATM    3  C   UNL     1      -9.297   6.248  66.020  1.00  0.00    -0.068 C  
BRANCH   3   4
HETATM    4  C   UNL     1      -8.592   7.518  66.492  1.00  0.00    -0.134 C  
BRANCH   4   5
HETATM    5  C   UNL     1      -9.450   8.731  66.157  1.00  0.00    -0.315 C  
BRANCH   5   6
HETATM    6  C   UNL     1      -8.649   9.966  65.871  1.00  0.00    -0.149 C  
HETATM    7  C   UNL     1      -9.067  10.911  65.013  1.00  0.00    -0.209 C  
BRANCH   7   8
HETATM    8  C   UNL     1     -10.347  10.834  64.237  1.00  0.00    -0.401 C  
BRANCH   8   9
HETATM    9  C   UNL     1     -10.614  12.094  63.473  1.00  0.00    -0.501 C  
HETATM   10  C   UNL     1     -11.545  13.003  63.801  1.00  0.00    -0.517 C  
BRANCH  10  11
HETATM   11  C   UNL     1     -12.527  12.856  64.924  1.00  0.00    -0.540 C  
BRANCH  11  12
HETATM   12  C   UNL     1     -12.068  13.583  66.158  1.00  0.00    -0.482 C  
HETATM   13  C   UNL     1     -11.666  12.989  67.292  1.00  0.00    -0.429 C  
BRANCH  13  14
HETATM   14  C   UNL     1     -11.647  11.499  67.450  1.00  0.00    -0.307 C  
BRANCH  14  15
HETATM   15  C   UNL     1     -10.821  11.017  68.635  1.00  0.00    -0.256 C  
BRANCH  15  16
HETATM   16  C   UNL     1     -11.518  11.426  69.933  1.00  0.00    -0.353 C  
BRANCH  16  17
HETATM   17  C   UNL     1     -12.078  10.217  70.670  1.00  0.00    -0.433 C  
HETATM   18  C   UNL     1     -12.959  10.629  71.824  1.00  0.00    -0.472 C  
HETATM   19  O   UNL     1     -13.209  11.779  72.153  1.00  0.00    -0.498 OA 
HETATM   20  O   UNL     1     -13.465   9.563  72.487  1.00  0.00    -0.426 OA 
ENDBRANCH  16  17
ENDBRANCH  15  16
ENDBRANCH  14  15
ENDBRANCH  13  14
ENDBRANCH  11  12
ENDBRANCH  10  11
ENDBRANCH   8   9
ENDBRANCH   7   8
ENDBRANCH   5   6
ENDBRANCH   4   5
ENDBRANCH   3   4
ENDBRANCH   2   3
TORSDOF 12
ENDMDL
MODEL      141
REMARK 921   NORMALIZED FREE ENERGY PREDICTED BY IDOCK:   -3.97 KCAL/MOL
REMARK 922        TOTAL FREE ENERGY PREDICTED BY IDOCK:   -8.71 KCAL/MOL
REMARK 923 INTER-LIGAND FREE ENERGY PREDICTED BY IDOCK:   -7.26 KCAL/MOL
REMARK 924 INTRA-LIGAND FREE ENERGY PREDICTED BY IDOCK:   -1.45 KCAL/MOL
REMARK 927      BINDING AFFINITY PREDICTED BY RF-SCORE:    0.00 PKD
ROOT
HETATM    1  C   UNL     1      -8.305   6.195  73.022  1.00  0.00    -0.115 C  
HETATM    2  C   UNL     1      -9.064   6.927  74.116  1.00  0.00    -0.238 C  
ENDROOT
BRANCH   2   3
HETATM    3  C   UNL     1     -10.512   6.458  74.188  1.00  0.00    -0.258 C  
BRANCH   3   4
HETATM    4  C   UNL     1     -10.835   5.488  73.053  1.00  0.00    -0.316 C  
BRANCH   4   5
HETATM    5  C   UNL     1     -11.874   6.112  72.130  1.00  0.00    -0.339 C  
BRANCH   5   6
HETATM    6  C   UNL     1     -11.327   6.481  70.782  1.00  0.00    -0.399 C  
HETATM    7  C   UNL     1     -10.811   7.693  70.524  1.00  0.00    -0.249 C  
BRANCH   7   8
HETATM    8  C   UNL     1     -10.743   8.808  71.523  1.00  0.00    -0.371 C  
BRANCH   8   9
HETATM    9  C   UNL     1     -12.029   9.572  71.597  1.00  0.00    -0.474 C  
HETATM   10  C   UNL     1     -12.346  10.611  70.809  1.00  0.00    -0.472 C  
BRANCH  10  11
HETATM   11  C   UNL     1     -11.429  11.231  69.799  1.00  0.00    -0.386 C  
BRANCH  11  12
HETATM   12  C   UNL     1     -11.808  12.656  69.507  1.00  0.00    -0.376 C  
HETATM   13  C   UNL     1     -11.090  13.500  68.751  1.00  0.00    -0.298 C  
BRANCH  13  14
HETATM   14  C   UNL     1      -9.794  13.099  68.115  1.00  0.00    -0.228 C  
BRANCH  14  15
HETATM   15  C   UNL     1      -9.554  13.735  66.753  1.00  0.00    -0.283 C  
BRANCH  15  16
HETATM   16  C   UNL     1     -10.758  14.602  66.385  1.00  0.00    -0.309 C  
BRANCH  16  17
HETATM   17  C   UNL     1     -11.086  14.502  64.902  1.00  0.00    -0.401 C  
HETATM   18  C   UNL     1     -12.150  13.465  64.636  1.00  0.00    -0.410 C  
HETATM   19  O   UNL     1     -12.696  12.774  65.484  1.00  0.00    -0.595 OA 
HETATM   20  O   UNL     1     -12.451  13.367  63.320  1.00  0.00    -0.739 OA 
ENDBRANCH  16  17
ENDBRANCH  15  16
ENDBRANCH  14  15
ENDBRANCH  13  14
ENDBRANCH  11  12
ENDBRANCH  10  11
ENDBRANCH   8   9
ENDBRANCH   7   8
ENDBRANCH   5   6
ENDBRANCH   4   5
ENDBRANCH   3   4
ENDBRANCH   2   3
TORSDOF 12
ENDMDL
MODEL      142
REMARK 921   NORMALIZED FREE ENERGY PREDICTED BY IDOCK:   -3.97 KCAL/MOL
REMARK 922        TOTAL FREE ENERGY PREDICTED BY IDOCK:   -8.71 KCAL/MOL
REMARK 923 INTER-LIGAND FREE ENERGY PREDICTED BY IDOCK:   -6.92 KCAL/MOL
REMARK 924 INTRA-LIGAND FREE ENERGY PREDICTED BY IDOCK:   -1.78 KCAL/MOL
REMARK 927      BINDING AFFINITY PREDICTED BY RF-SCORE:    0.00 PKD
ROOT
HETATM    1  C   UNL     1     -11.044  15.001  64.814  1.00  0.00    -0.388 C  
HETATM    2  C   UNL     1     -11.959  13.789  64.778  1.00  0.00    -0.429 C  
ENDROOT
BRANCH   2   3
HETATM    3  C   UNL     1     -12.054  13.215  63.370  1.00  0.00    -0.558 C  
BRANCH   3   4
HETATM    4  C   UNL     1     -11.205  11.952  63.230  1.00  0.00    -0.382 C  
BRANCH   4   5
HETATM    5  C   UNL     1     -11.008  11.317  64.600  1.00  0.00    -0.281 C  
BRANCH   5   6
HETATM    6  C   UNL     1      -9.792  10.441  64.681  1.00  0.00    -0.405 C  
HETATM    7  C   UNL     1      -9.108  10.265  65.822  1.00  0.00    -0.202 C  
BRANCH   7   8
HETATM    8  C   UNL     1      -9.456  10.928  67.121  1.00  0.00    -0.178 C  
BRANCH   8   9
HETATM    9  C   UNL     1      -8.942  12.333  67.186  1.00  0.00    -0.192 C  
HETATM   10  C   UNL     1      -9.470  13.305  67.945  1.00  0.00    -0.214 C  
BRANCH  10  11
HETATM   11  C   UNL     1     -10.711  13.166  68.773  1.00  0.00    -0.253 C  
BRANCH  11  12
HETATM   12  C   UNL     1     -11.768  14.150  68.356  1.00  0.00    -0.380 C  
HETATM   13  C   UNL     1     -11.819  15.432  68.751  1.00  0.00    -0.339 C  
BRANCH  13  14
HETATM   14  C   UNL     1     -10.806  16.022  69.684  1.00  0.00    -0.329 C  
BRANCH  14  15
HETATM   15  C   UNL     1      -9.694  16.788  68.980  1.00  0.00    -0.244 C  
BRANCH  15  16
HETATM   16  C   UNL     1     -10.178  18.204  68.670  1.00  0.00    -0.382 C  
BRANCH  16  17
HETATM   17  C   UNL     1     -10.622  18.337  67.221  1.00  0.00    -0.406 C  
HETATM   18  C   UNL     1     -10.278  19.694  66.655  1.00  0.00    -0.465 C  
HETATM   19  O   UNL     1      -9.717  20.595  67.261  1.00  0.00    -0.465 OA 
HETATM   20  O   UNL     1     -10.668  19.824  65.365  1.00  0.00    -0.432 OA 
ENDBRANCH  16  17
ENDBRANCH  15  16
ENDBRANCH  14  15
ENDBRANCH  13  14
ENDBRANCH  11  12
ENDBRANCH  10  11
ENDBRANCH   8   9
ENDBRANCH   7   8
ENDBRANCH   5   6
ENDBRANCH   4   5
ENDBRANCH   3   4
ENDBRANCH   2   3
TORSDOF 12
ENDMDL
MODEL      143
REMARK 921   NORMALIZED FREE ENERGY PREDICTED BY IDOCK:   -3.97 KCAL/MOL
REMARK 922        TOTAL FREE ENERGY PREDICTED BY IDOCK:   -8.70 KCAL/MOL
REMARK 923 INTER-LIGAND FREE ENERGY PREDICTED BY IDOCK:   -6.91 KCAL/MOL
REMARK 924 INTRA-LIGAND FREE ENERGY PREDICTED BY IDOCK:   -1.79 KCAL/MOL
REMARK 927      BINDING AFFINITY PREDICTED BY RF-SCORE:    0.00 PKD
ROOT
HETATM    1  C   UNL     1     -12.662  15.085  70.558  1.00  0.00    -0.406 C  
HETATM    2  C   UNL     1     -12.534  13.635  70.988  1.00  0.00    -0.456 C  
ENDROOT
BRANCH   2   3
HETATM    3  C   UNL     1     -11.848  12.801  69.912  1.00  0.00    -0.371 C  
BRANCH   3   4
HETATM    4  C   UNL     1     -10.941  13.666  69.039  1.00  0.00    -0.271 C  
BRANCH   4   5
HETATM    5  C   UNL     1     -11.158  13.315  67.573  1.00  0.00    -0.292 C  
BRANCH   5   6
HETATM    6  C   UNL     1     -11.992  14.322  66.837  1.00  0.00    -0.467 C  
HETATM    7  C   UNL     1     -12.601  14.039  65.675  1.00  0.00    -0.542 C  
BRANCH   7   8
HETATM    8  C   UNL     1     -12.502  12.716  64.975  1.00  0.00    -0.556 C  
BRANCH   8   9
HETATM    9  C   UNL     1     -11.628  12.790  63.762  1.00  0.00    -0.548 C  
HETATM   10  C   UNL     1     -10.728  11.858  63.411  1.00  0.00    -0.476 C  
BRANCH  10  11
HETATM   11  C   UNL     1     -10.389  10.647  64.224  1.00  0.00    -0.325 C  
BRANCH  11  12
HETATM   12  C   UNL     1      -9.329  10.947  65.248  1.00  0.00    -0.246 C  
HETATM   13  C   UNL     1      -9.337  10.498  66.513  1.00  0.00    -0.189 C  
BRANCH  13  14
HETATM   14  C   UNL     1     -10.442   9.641  67.049  1.00  0.00    -0.302 C  
BRANCH  14  15
HETATM   15  C   UNL     1     -10.109   8.155  67.076  1.00  0.00    -0.350 C  
BRANCH  15  16
HETATM   16  C   UNL     1      -9.790   7.738  68.512  1.00  0.00    -0.181 C  
BRANCH  16  17
HETATM   17  C   UNL     1     -10.881   8.179  69.477  1.00  0.00    -0.128 C  
HETATM   18  C   UNL     1     -11.156   7.128  70.525  1.00  0.00    -0.271 C  
HETATM   19  O   UNL     1     -10.591   6.047  70.613  1.00  0.00    -0.229 OA 
HETATM   20  O   UNL     1     -12.124   7.509  71.390  1.00  0.00    -0.303 OA 
ENDBRANCH  16  17
ENDBRANCH  15  16
ENDBRANCH  14  15
ENDBRANCH  13  14
ENDBRANCH  11  12
ENDBRANCH  10  11
ENDBRANCH   8   9
ENDBRANCH   7   8
ENDBRANCH   5   6
ENDBRANCH   4   5
ENDBRANCH   3   4
ENDBRANCH   2   3
TORSDOF 12
ENDMDL
MODEL      144
REMARK 921   NORMALIZED FREE ENERGY PREDICTED BY IDOCK:   -3.96 KCAL/MOL
REMARK 922        TOTAL FREE ENERGY PREDICTED BY IDOCK:   -8.70 KCAL/MOL
REMARK 923 INTER-LIGAND FREE ENERGY PREDICTED BY IDOCK:   -6.80 KCAL/MOL
REMARK 924 INTRA-LIGAND FREE ENERGY PREDICTED BY IDOCK:   -1.91 KCAL/MOL
REMARK 927      BINDING AFFINITY PREDICTED BY RF-SCORE:    0.00 PKD
ROOT
HETATM    1  C   UNL     1      -6.694  19.427  69.516  1.00  0.00    -0.327 C  
HETATM    2  C   UNL     1      -7.606  19.140  68.336  1.00  0.00    -0.347 C  
ENDROOT
BRANCH   2   3
HETATM    3  C   UNL     1      -9.072  19.281  68.727  1.00  0.00    -0.409 C  
BRANCH   3   4
HETATM    4  C   UNL     1      -9.963  18.394  67.859  1.00  0.00    -0.370 C  
BRANCH   4   5
HETATM    5  C   UNL     1     -10.037  16.999  68.462  1.00  0.00    -0.303 C  
BRANCH   5   6
HETATM    6  C   UNL     1      -9.215  15.985  67.722  1.00  0.00    -0.205 C  
HETATM    7  C   UNL     1      -9.760  15.102  66.871  1.00  0.00    -0.248 C  
BRANCH   7   8
HETATM    8  C   UNL     1     -11.229  15.008  66.583  1.00  0.00    -0.311 C  
BRANCH   8   9
HETATM    9  C   UNL     1     -11.534  15.269  65.141  1.00  0.00    -0.260 C  
HETATM   10  C   UNL     1     -12.196  14.425  64.335  1.00  0.00    -0.481 C  
BRANCH  10  11
HETATM   11  C   UNL     1     -12.649  13.050  64.722  1.00  0.00    -0.460 C  
BRANCH  11  12
HETATM   12  C   UNL     1     -11.985  11.993  63.884  1.00  0.00    -0.542 C  
HETATM   13  C   UNL     1     -10.853  11.353  64.215  1.00  0.00    -0.416 C  
BRANCH  13  14
HETATM   14  C   UNL     1     -10.109  11.647  65.481  1.00  0.00    -0.285 C  
BRANCH  14  15
HETATM   15  C   UNL     1     -10.581  10.829  66.676  1.00  0.00    -0.291 C  
BRANCH  15  16
HETATM   16  C   UNL     1     -10.324  11.620  67.959  1.00  0.00    -0.208 C  
BRANCH  16  17
HETATM   17  C   UNL     1     -11.594  11.772  68.784  1.00  0.00    -0.367 C  
HETATM   18  C   UNL     1     -11.577  10.879  70.002  1.00  0.00    -0.341 C  
HETATM   19  O   UNL     1     -10.673  10.117  70.311  1.00  0.00    -0.284 OA 
HETATM   20  O   UNL     1     -12.701  11.005  70.745  1.00  0.00    -0.341 OA 
ENDBRANCH  16  17
ENDBRANCH  15  16
ENDBRANCH  14  15
ENDBRANCH  13  14
ENDBRANCH  11  12
ENDBRANCH  10  11
ENDBRANCH   8   9
ENDBRANCH   7   8
ENDBRANCH   5   6
ENDBRANCH   4   5
ENDBRANCH   3   4
ENDBRANCH   2   3
TORSDOF 12
ENDMDL
MODEL      145
REMARK 921   NORMALIZED FREE ENERGY PREDICTED BY IDOCK:   -3.95 KCAL/MOL
REMARK 922        TOTAL FREE ENERGY PREDICTED BY IDOCK:   -8.68 KCAL/MOL
REMARK 923 INTER-LIGAND FREE ENERGY PREDICTED BY IDOCK:   -6.80 KCAL/MOL
REMARK 924 INTRA-LIGAND FREE ENERGY PREDICTED BY IDOCK:   -1.88 KCAL/MOL
REMARK 927      BINDING AFFINITY PREDICTED BY RF-SCORE:    0.00 PKD
ROOT
HETATM    1  C   UNL     1      -9.584  11.191  65.738  1.00  0.00    -0.255 C  
HETATM    2  C   UNL     1     -10.066   9.754  65.646  1.00  0.00    -0.282 C  
ENDROOT
BRANCH   2   3
HETATM    3  C   UNL     1      -9.498   8.910  66.781  1.00  0.00    -0.243 C  
BRANCH   3   4
HETATM    4  C   UNL     1     -10.478   7.815  67.199  1.00  0.00    -0.413 C  
BRANCH   4   5
HETATM    5  C   UNL     1     -10.243   7.451  68.659  1.00  0.00    -0.203 C  
BRANCH   5   6
HETATM    6  C   UNL     1     -11.229   6.453  69.189  1.00  0.00    -0.421 C  
HETATM    7  C   UNL     1     -11.680   6.490  70.453  1.00  0.00    -0.439 C  
BRANCH   7   8
HETATM    8  C   UNL     1     -11.241   7.498  71.472  1.00  0.00    -0.271 C  
BRANCH   8   9
HETATM    9  C   UNL     1     -12.372   8.373  71.916  1.00  0.00    -0.395 C  
HETATM   10  C   UNL     1     -12.513   9.666  71.584  1.00  0.00    -0.494 C  
BRANCH  10  11
HETATM   11  C   UNL     1     -11.516  10.462  70.799  1.00  0.00    -0.422 C  
BRANCH  11  12
HETATM   12  C   UNL     1     -11.926  10.598  69.359  1.00  0.00    -0.298 C  
HETATM   13  C   UNL     1     -11.800  11.717  68.630  1.00  0.00    -0.369 C  
BRANCH  13  14
HETATM   14  C   UNL     1     -11.232  12.982  69.198  1.00  0.00    -0.297 C  
BRANCH  14  15
HETATM   15  C   UNL     1     -10.114  13.586  68.359  1.00  0.00    -0.240 C  
BRANCH  15  16
HETATM   16  C   UNL     1     -10.325  15.097  68.255  1.00  0.00    -0.231 C  
BRANCH  16  17
HETATM   17  C   UNL     1     -10.478  15.541  66.807  1.00  0.00    -0.295 C  
HETATM   18  C   UNL     1     -10.491  17.045  66.684  1.00  0.00    -0.253 C  
HETATM   19  O   UNL     1     -10.397  17.835  67.613  1.00  0.00    -0.342 OA 
HETATM   20  O   UNL     1     -10.625  17.453  65.401  1.00  0.00    -0.638 OA 
ENDBRANCH  16  17
ENDBRANCH  15  16
ENDBRANCH  14  15
ENDBRANCH  13  14
ENDBRANCH  11  12
ENDBRANCH  10  11
ENDBRANCH   8   9
ENDBRANCH   7   8
ENDBRANCH   5   6
ENDBRANCH   4   5
ENDBRANCH   3   4
ENDBRANCH   2   3
TORSDOF 12
ENDMDL
MODEL      146
REMARK 921   NORMALIZED FREE ENERGY PREDICTED BY IDOCK:   -3.95 KCAL/MOL
REMARK 922        TOTAL FREE ENERGY PREDICTED BY IDOCK:   -8.68 KCAL/MOL
REMARK 923 INTER-LIGAND FREE ENERGY PREDICTED BY IDOCK:   -7.17 KCAL/MOL
REMARK 924 INTRA-LIGAND FREE ENERGY PREDICTED BY IDOCK:   -1.51 KCAL/MOL
REMARK 927      BINDING AFFINITY PREDICTED BY RF-SCORE:    0.00 PKD
ROOT
HETATM    1  C   UNL     1      -7.433  15.873  67.229  1.00  0.00    -0.244 C  
HETATM    2  C   UNL     1      -6.946  17.274  67.556  1.00  0.00    -0.178 C  
ENDROOT
BRANCH   2   3
HETATM    3  C   UNL     1      -7.205  18.230  66.396  1.00  0.00    -0.279 C  
BRANCH   3   4
HETATM    4  C   UNL     1      -7.566  19.625  66.902  1.00  0.00    -0.278 C  
BRANCH   4   5
HETATM    5  C   UNL     1      -8.772  19.536  67.827  1.00  0.00    -0.364 C  
BRANCH   5   6
HETATM    6  C   UNL     1     -10.032  19.123  67.126  1.00  0.00    -0.435 C  
HETATM    7  C   UNL     1     -10.786  18.096  67.549  1.00  0.00    -0.264 C  
BRANCH   7   8
HETATM    8  C   UNL     1     -10.453  17.241  68.734  1.00  0.00    -0.340 C  
BRANCH   8   9
HETATM    9  C   UNL     1     -10.912  15.828  68.551  1.00  0.00    -0.312 C  
HETATM   10  C   UNL     1     -11.184  14.977  69.553  1.00  0.00    -0.294 C  
BRANCH  10  11
HETATM   11  C   UNL     1     -10.980  15.274  71.007  1.00  0.00    -0.274 C  
BRANCH  11  12
HETATM   12  C   UNL     1     -12.116  16.082  71.571  1.00  0.00    -0.513 C  
HETATM   13  C   UNL     1     -13.027  15.618  72.441  1.00  0.00    -0.532 C  
BRANCH  13  14
HETATM   14  C   UNL     1     -13.011  14.206  72.939  1.00  0.00    -0.498 C  
BRANCH  14  15
HETATM   15  C   UNL     1     -13.659  13.210  71.987  1.00  0.00    -0.554 C  
BRANCH  15  16
HETATM   16  C   UNL     1     -12.704  12.037  71.761  1.00  0.00    -0.273 C  
BRANCH  16  17
HETATM   17  C   UNL     1     -13.407  10.701  71.954  1.00  0.00    -0.454 C  
HETATM   18  C   UNL     1     -12.443   9.544  71.845  1.00  0.00    -0.384 C  
HETATM   19  O   UNL     1     -11.245   9.636  71.626  1.00  0.00    -0.367 OA 
HETATM   20  O   UNL     1     -13.057   8.350  72.016  1.00  0.00    -0.335 OA 
ENDBRANCH  16  17
ENDBRANCH  15  16
ENDBRANCH  14  15
ENDBRANCH  13  14
ENDBRANCH  11  12
ENDBRANCH  10  11
ENDBRANCH   8   9
ENDBRANCH   7   8
ENDBRANCH   5   6
ENDBRANCH   4   5
ENDBRANCH   3   4
ENDBRANCH   2   3
TORSDOF 12
ENDMDL
MODEL      147
REMARK 921   NORMALIZED FREE ENERGY PREDICTED BY IDOCK:   -3.95 KCAL/MOL
REMARK 922        TOTAL FREE ENERGY PREDICTED BY IDOCK:   -8.68 KCAL/MOL
REMARK 923 INTER-LIGAND FREE ENERGY PREDICTED BY IDOCK:   -6.75 KCAL/MOL
REMARK 924 INTRA-LIGAND FREE ENERGY PREDICTED BY IDOCK:   -1.93 KCAL/MOL
REMARK 927      BINDING AFFINITY PREDICTED BY RF-SCORE:    0.00 PKD
ROOT
HETATM    1  C   UNL     1     -12.512  13.889  71.029  1.00  0.00    -0.452 C  
HETATM    2  C   UNL     1     -13.292  13.171  72.117  1.00  0.00    -0.621 C  
ENDROOT
BRANCH   2   3
HETATM    3  C   UNL     1     -13.227  11.659  71.934  1.00  0.00    -0.475 C  
BRANCH   3   4
HETATM    4  C   UNL     1     -12.408  11.288  70.698  1.00  0.00    -0.477 C  
BRANCH   4   5
HETATM    5  C   UNL     1     -11.539  10.077  71.008  1.00  0.00    -0.476 C  
BRANCH   5   6
HETATM    6  C   UNL     1     -12.265   8.999  71.757  1.00  0.00    -0.434 C  
HETATM    7  C   UNL     1     -11.634   8.146  72.580  1.00  0.00    -0.468 C  
BRANCH   7   8
HETATM    8  C   UNL     1     -10.155   8.153  72.824  1.00  0.00    -0.367 C  
BRANCH   8   9
HETATM    9  C   UNL     1      -9.577   6.773  72.797  1.00  0.00    -0.161 C  
HETATM   10  C   UNL     1      -9.167   6.137  71.689  1.00  0.00    -0.150 C  
BRANCH  10  11
HETATM   11  C   UNL     1      -9.312   6.668  70.295  1.00  0.00    -0.160 C  
BRANCH  11  12
HETATM   12  C   UNL     1     -10.554   6.145  69.630  1.00  0.00    -0.347 C  
HETATM   13  C   UNL     1     -11.015   6.555  68.437  1.00  0.00    -0.358 C  
BRANCH  13  14
HETATM   14  C   UNL     1     -10.324   7.615  67.635  1.00  0.00    -0.303 C  
BRANCH  14  15
HETATM   15  C   UNL     1     -10.784   9.030  67.961  1.00  0.00    -0.184 C  
BRANCH  15  16
HETATM   16  C   UNL     1      -9.979  10.024  67.124  1.00  0.00    -0.251 C  
BRANCH  16  17
HETATM   17  C   UNL     1     -10.852  11.163  66.618  1.00  0.00    -0.308 C  
HETATM   18  C   UNL     1     -10.728  12.390  67.488  1.00  0.00    -0.228 C  
HETATM   19  O   UNL     1     -10.024  12.486  68.484  1.00  0.00    -0.219 OA 
HETATM   20  O   UNL     1     -11.499  13.411  67.047  1.00  0.00    -0.307 OA 
ENDBRANCH  16  17
ENDBRANCH  15  16
ENDBRANCH  14  15
ENDBRANCH  13  14
ENDBRANCH  11  12
ENDBRANCH  10  11
ENDBRANCH   8   9
ENDBRANCH   7   8
ENDBRANCH   5   6
ENDBRANCH   4   5
ENDBRANCH   3   4
ENDBRANCH   2   3
TORSDOF 12
ENDMDL
MODEL      148
REMARK 921   NORMALIZED FREE ENERGY PREDICTED BY IDOCK:   -3.95 KCAL/MOL
REMARK 922        TOTAL FREE ENERGY PREDICTED BY IDOCK:   -8.68 KCAL/MOL
REMARK 923 INTER-LIGAND FREE ENERGY PREDICTED BY IDOCK:   -6.35 KCAL/MOL
REMARK 924 INTRA-LIGAND FREE ENERGY PREDICTED BY IDOCK:   -2.33 KCAL/MOL
REMARK 927      BINDING AFFINITY PREDICTED BY RF-SCORE:    0.00 PKD
ROOT
HETATM    1  C   UNL     1      -9.658   4.914  70.062  1.00  0.00    -0.261 C  
HETATM    2  C   UNL     1     -10.866   5.751  70.443  1.00  0.00    -0.360 C  
ENDROOT
BRANCH   2   3
HETATM    3  C   UNL     1     -11.439   6.474  69.230  1.00  0.00    -0.307 C  
BRANCH   3   4
HETATM    4  C   UNL     1     -10.775   5.997  67.939  1.00  0.00    -0.363 C  
BRANCH   4   5
HETATM    5  C   UNL     1     -10.495   7.192  67.039  1.00  0.00    -0.392 C  
BRANCH   5   6
HETATM    6  C   UNL     1      -9.117   7.183  66.447  1.00  0.00    -0.189 C  
HETATM    7  C   UNL     1      -8.184   8.087  66.783  1.00  0.00    -0.111 C  
BRANCH   7   8
HETATM    8  C   UNL     1      -8.411   9.208  67.752  1.00  0.00    -0.117 C  
BRANCH   8   9
HETATM    9  C   UNL     1      -8.483   8.720  69.166  1.00  0.00    -0.123 C  
HETATM   10  C   UNL     1      -9.304   9.215  70.105  1.00  0.00    -0.235 C  
BRANCH  10  11
HETATM   11  C   UNL     1     -10.207  10.396  69.915  1.00  0.00    -0.190 C  
BRANCH  11  12
HETATM   12  C   UNL     1     -11.283  10.114  68.905  1.00  0.00    -0.220 C  
HETATM   13  C   UNL     1     -11.653  10.953  67.925  1.00  0.00    -0.270 C  
BRANCH  13  14
HETATM   14  C   UNL     1     -11.021  12.299  67.745  1.00  0.00    -0.274 C  
BRANCH  14  15
HETATM   15  C   UNL     1     -10.077  12.381  66.553  1.00  0.00    -0.246 C  
BRANCH  15  16
HETATM   16  C   UNL     1     -10.592  11.466  65.441  1.00  0.00    -0.333 C  
BRANCH  16  17
HETATM   17  C   UNL     1     -10.846  12.240  64.155  1.00  0.00    -0.412 C  
HETATM   18  C   UNL     1     -12.253  12.784  64.101  1.00  0.00    -0.429 C  
HETATM   19  O   UNL     1     -13.106  12.635  64.965  1.00  0.00    -0.808 OA 
HETATM   20  O   UNL     1     -12.491  13.475  62.962  1.00  0.00    -0.709 OA 
ENDBRANCH  16  17
ENDBRANCH  15  16
ENDBRANCH  14  15
ENDBRANCH  13  14
ENDBRANCH  11  12
ENDBRANCH  10  11
ENDBRANCH   8   9
ENDBRANCH   7   8
ENDBRANCH   5   6
ENDBRANCH   4   5
ENDBRANCH   3   4
ENDBRANCH   2   3
TORSDOF 12
ENDMDL
MODEL      149
REMARK 921   NORMALIZED FREE ENERGY PREDICTED BY IDOCK:   -3.94 KCAL/MOL
REMARK 922        TOTAL FREE ENERGY PREDICTED BY IDOCK:   -8.66 KCAL/MOL
REMARK 923 INTER-LIGAND FREE ENERGY PREDICTED BY IDOCK:   -7.07 KCAL/MOL
REMARK 924 INTRA-LIGAND FREE ENERGY PREDICTED BY IDOCK:   -1.59 KCAL/MOL
REMARK 927      BINDING AFFINITY PREDICTED BY RF-SCORE:    0.00 PKD
ROOT
HETATM    1  C   UNL     1      -8.963   5.782  68.142  1.00  0.00    -0.114 C  
HETATM    2  C   UNL     1      -9.322   4.993  69.389  1.00  0.00    -0.179 C  
ENDROOT
BRANCH   2   3
HETATM    3  C   UNL     1     -10.585   5.544  70.042  1.00  0.00    -0.384 C  
BRANCH   3   4
HETATM    4  C   UNL     1     -10.552   5.350  71.557  1.00  0.00    -0.285 C  
BRANCH   4   5
HETATM    5  C   UNL     1     -11.469   6.368  72.221  1.00  0.00    -0.339 C  
BRANCH   5   6
HETATM    6  C   UNL     1     -12.338   7.110  71.249  1.00  0.00    -0.418 C  
HETATM    7  C   UNL     1     -12.150   8.407  70.961  1.00  0.00    -0.218 C  
BRANCH   7   8
HETATM    8  C   UNL     1     -11.085   9.260  71.582  1.00  0.00    -0.438 C  
BRANCH   8   9
HETATM    9  C   UNL     1      -9.727   8.944  71.036  1.00  0.00    -0.320 C  
HETATM   10  C   UNL     1      -9.266   9.360  69.846  1.00  0.00    -0.226 C  
BRANCH  10  11
HETATM   11  C   UNL     1     -10.069  10.122  68.836  1.00  0.00    -0.211 C  
BRANCH  11  12
HETATM   12  C   UNL     1     -10.602   9.221  67.758  1.00  0.00    -0.307 C  
HETATM   13  C   UNL     1     -10.142   9.179  66.498  1.00  0.00    -0.357 C  
BRANCH  13  14
HETATM   14  C   UNL     1      -9.029  10.063  66.024  1.00  0.00    -0.174 C  
BRANCH  14  15
HETATM   15  C   UNL     1      -9.499  11.407  65.483  1.00  0.00    -0.251 C  
BRANCH  15  16
HETATM   16  C   UNL     1     -10.560  11.172  64.407  1.00  0.00    -0.411 C  
BRANCH  16  17
HETATM   17  C   UNL     1     -10.941  12.468  63.707  1.00  0.00    -0.496 C  
HETATM   18  C   UNL     1     -12.279  12.984  64.181  1.00  0.00    -0.401 C  
HETATM   19  O   UNL     1     -12.991  12.449  65.017  1.00  0.00    -0.705 OA 
HETATM   20  O   UNL     1     -12.628  14.138  63.566  1.00  0.00    -0.834 OA 
ENDBRANCH  16  17
ENDBRANCH  15  16
ENDBRANCH  14  15
ENDBRANCH  13  14
ENDBRANCH  11  12
ENDBRANCH  10  11
ENDBRANCH   8   9
ENDBRANCH   7   8
ENDBRANCH   5   6
ENDBRANCH   4   5
ENDBRANCH   3   4
ENDBRANCH   2   3
TORSDOF 12
ENDMDL
MODEL      150
REMARK 921   NORMALIZED FREE ENERGY PREDICTED BY IDOCK:   -3.94 KCAL/MOL
REMARK 922        TOTAL FREE ENERGY PREDICTED BY IDOCK:   -8.65 KCAL/MOL
REMARK 923 INTER-LIGAND FREE ENERGY PREDICTED BY IDOCK:   -7.63 KCAL/MOL
REMARK 924 INTRA-LIGAND FREE ENERGY PREDICTED BY IDOCK:   -1.02 KCAL/MOL
REMARK 927      BINDING AFFINITY PREDICTED BY RF-SCORE:    0.00 PKD
ROOT
HETATM    1  C   UNL     1     -10.675   6.239  68.800  1.00  0.00    -0.352 C  
HETATM    2  C   UNL     1     -10.573   5.226  69.926  1.00  0.00    -0.292 C  
ENDROOT
BRANCH   2   3
HETATM    3  C   UNL     1     -10.249   5.907  71.251  1.00  0.00    -0.262 C  
BRANCH   3   4
HETATM    4  C   UNL     1     -11.496   6.032  72.125  1.00  0.00    -0.356 C  
BRANCH   4   5
HETATM    5  C   UNL     1     -11.996   7.470  72.097  1.00  0.00    -0.323 C  
BRANCH   5   6
HETATM    6  C   UNL     1     -10.898   8.479  71.934  1.00  0.00    -0.392 C  
HETATM    7  C   UNL     1     -11.108   9.690  71.394  1.00  0.00    -0.397 C  
BRANCH   7   8
HETATM    8  C   UNL     1     -12.435  10.159  70.876  1.00  0.00    -0.455 C  
BRANCH   8   9
HETATM    9  C   UNL     1     -13.196  10.933  71.908  1.00  0.00    -0.508 C  
HETATM   10  C   UNL     1     -13.253  12.272  71.971  1.00  0.00    -0.508 C  
BRANCH  10  11
HETATM   11  C   UNL     1     -12.488  13.204  71.081  1.00  0.00    -0.378 C  
BRANCH  11  12
HETATM   12  C   UNL     1     -12.655  14.636  71.506  1.00  0.00    -0.410 C  
HETATM   13  C   UNL     1     -12.334  15.700  70.754  1.00  0.00    -0.466 C  
BRANCH  13  14
HETATM   14  C   UNL     1     -11.746  15.562  69.383  1.00  0.00    -0.382 C  
BRANCH  14  15
HETATM   15  C   UNL     1     -10.563  16.485  69.125  1.00  0.00    -0.319 C  
BRANCH  15  16
HETATM   16  C   UNL     1     -10.877  17.381  67.926  1.00  0.00    -0.270 C  
BRANCH  16  17
HETATM   17  C   UNL     1     -10.203  18.739  68.054  1.00  0.00    -0.438 C  
HETATM   18  C   UNL     1      -9.219  18.980  66.935  1.00  0.00    -0.303 C  
HETATM   19  O   UNL     1      -8.970  18.199  66.028  1.00  0.00    -0.503 OA 
HETATM   20  O   UNL     1      -8.613  20.186  67.037  1.00  0.00    -0.319 OA 
ENDBRANCH  16  17
ENDBRANCH  15  16
ENDBRANCH  14  15
ENDBRANCH  13  14
ENDBRANCH  11  12
ENDBRANCH  10  11
ENDBRANCH   8   9
ENDBRANCH   7   8
ENDBRANCH   5   6
ENDBRANCH   4   5
ENDBRANCH   3   4
ENDBRANCH   2   3
TORSDOF 12
ENDMDL
MODEL      151
REMARK 921   NORMALIZED FREE ENERGY PREDICTED BY IDOCK:   -3.94 KCAL/MOL
REMARK 922        TOTAL FREE ENERGY PREDICTED BY IDOCK:   -8.65 KCAL/MOL
REMARK 923 INTER-LIGAND FREE ENERGY PREDICTED BY IDOCK:   -7.40 KCAL/MOL
REMARK 924 INTRA-LIGAND FREE ENERGY PREDICTED BY IDOCK:   -1.25 KCAL/MOL
REMARK 927      BINDING AFFINITY PREDICTED BY RF-SCORE:    0.00 PKD
ROOT
HETATM    1  C   UNL     1     -11.222  10.248  69.628  1.00  0.00    -0.322 C  
HETATM    2  C   UNL     1     -12.035   9.746  70.807  1.00  0.00    -0.382 C  
ENDROOT
BRANCH   2   3
HETATM    3  C   UNL     1     -12.721  10.898  71.532  1.00  0.00    -0.533 C  
BRANCH   3   4
HETATM    4  C   UNL     1     -12.395  12.237  70.873  1.00  0.00    -0.363 C  
BRANCH   4   5
HETATM    5  C   UNL     1     -13.536  13.216  71.117  1.00  0.00     0.120 C  
BRANCH   5   6
HETATM    6  C   UNL     1     -13.625  13.683  72.540  1.00  0.00    -0.675 C  
HETATM    7  C   UNL     1     -13.253  14.916  72.916  1.00  0.00    -0.590 C  
BRANCH   7   8
HETATM    8  C   UNL     1     -12.691  15.946  71.983  1.00  0.00    -0.495 C  
BRANCH   8   9
HETATM    9  C   UNL     1     -11.288  15.622  71.572  1.00  0.00    -0.454 C  
HETATM   10  C   UNL     1     -10.840  15.635  70.308  1.00  0.00    -0.366 C  
BRANCH  10  11
HETATM   11  C   UNL     1     -11.692  15.881  69.100  1.00  0.00    -0.369 C  
BRANCH  11  12
HETATM   12  C   UNL     1     -10.915  15.694  67.827  1.00  0.00    -0.316 C  
HETATM   13  C   UNL     1     -10.404  16.691  67.088  1.00  0.00    -0.300 C  
BRANCH  13  14
HETATM   14  C   UNL     1     -10.574  18.131  67.462  1.00  0.00    -0.419 C  
BRANCH  14  15
HETATM   15  C   UNL     1      -9.510  19.049  66.876  1.00  0.00    -0.355 C  
BRANCH  15  16
HETATM   16  C   UNL     1      -8.778  19.760  68.015  1.00  0.00    -0.353 C  
BRANCH  16  17
HETATM   17  C   UNL     1      -7.819  18.821  68.733  1.00  0.00    -0.344 C  
HETATM   18  C   UNL     1      -6.529  19.516  69.098  1.00  0.00    -0.321 C  
HETATM   19  O   UNL     1      -6.258  20.683  68.857  1.00  0.00    -0.332 OA 
HETATM   20  O   UNL     1      -5.668  18.691  69.738  1.00  0.00    -0.227 OA 
ENDBRANCH  16  17
ENDBRANCH  15  16
ENDBRANCH  14  15
ENDBRANCH  13  14
ENDBRANCH  11  12
ENDBRANCH  10  11
ENDBRANCH   8   9
ENDBRANCH   7   8
ENDBRANCH   5   6
ENDBRANCH   4   5
ENDBRANCH   3   4
ENDBRANCH   2   3
TORSDOF 12
ENDMDL
MODEL      152
REMARK 921   NORMALIZED FREE ENERGY PREDICTED BY IDOCK:   -3.93 KCAL/MOL
REMARK 922        TOTAL FREE ENERGY PREDICTED BY IDOCK:   -8.65 KCAL/MOL
REMARK 923 INTER-LIGAND FREE ENERGY PREDICTED BY IDOCK:   -6.97 KCAL/MOL
REMARK 924 INTRA-LIGAND FREE ENERGY PREDICTED BY IDOCK:   -1.68 KCAL/MOL
REMARK 927      BINDING AFFINITY PREDICTED BY RF-SCORE:    0.00 PKD
ROOT
HETATM    1  C   UNL     1     -11.682  15.769  69.452  1.00  0.00    -0.379 C  
HETATM    2  C   UNL     1     -11.776  15.157  70.839  1.00  0.00    -0.378 C  
ENDROOT
BRANCH   2   3
HETATM    3  C   UNL     1     -13.220  15.117  71.325  1.00  0.00    -0.536 C  
BRANCH   3   4
HETATM    4  C   UNL     1     -13.591  13.728  71.840  1.00  0.00    -0.514 C  
BRANCH   4   5
HETATM    5  C   UNL     1     -12.704  12.684  71.175  1.00  0.00    -0.347 C  
BRANCH   5   6
HETATM    6  C   UNL     1     -13.118  11.273  71.473  1.00  0.00    -0.459 C  
HETATM    7  C   UNL     1     -12.428  10.212  71.026  1.00  0.00    -0.474 C  
BRANCH   7   8
HETATM    8  C   UNL     1     -11.201  10.308  70.170  1.00  0.00    -0.387 C  
BRANCH   8   9
HETATM    9  C   UNL     1     -11.459   9.850  68.768  1.00  0.00     0.039 C  
HETATM   10  C   UNL     1     -11.257  10.595  67.671  1.00  0.00    -0.361 C  
BRANCH  10  11
HETATM   11  C   UNL     1     -10.832  12.033  67.679  1.00  0.00    -0.273 C  
BRANCH  11  12
HETATM   12  C   UNL     1     -11.968  12.947  67.313  1.00  0.00    -0.371 C  
HETATM   13  C   UNL     1     -12.133  13.519  66.110  1.00  0.00    -0.482 C  
BRANCH  13  14
HETATM   14  C   UNL     1     -11.166  13.309  64.986  1.00  0.00    -0.325 C  
BRANCH  14  15
HETATM   15  C   UNL     1     -11.789  12.676  63.749  1.00  0.00    -0.574 C  
BRANCH  15  16
HETATM   16  C   UNL     1     -11.073  11.359  63.445  1.00  0.00    -0.308 C  
BRANCH  16  17
HETATM   17  C   UNL     1     -10.035  11.030  64.507  1.00  0.00    -0.366 C  
HETATM   18  C   UNL     1      -8.736  10.568  63.891  1.00  0.00    -0.171 C  
HETATM   19  O   UNL     1      -8.516  10.459  62.694  1.00  0.00    -0.154 OA 
HETATM   20  O   UNL     1      -7.803  10.273  64.827  1.00  0.00    -0.149 OA 
ENDBRANCH  16  17
ENDBRANCH  15  16
ENDBRANCH  14  15
ENDBRANCH  13  14
ENDBRANCH  11  12
ENDBRANCH  10  11
ENDBRANCH   8   9
ENDBRANCH   7   8
ENDBRANCH   5   6
ENDBRANCH   4   5
ENDBRANCH   3   4
ENDBRANCH   2   3
TORSDOF 12
ENDMDL
MODEL      153
REMARK 921   NORMALIZED FREE ENERGY PREDICTED BY IDOCK:   -3.92 KCAL/MOL
REMARK 922        TOTAL FREE ENERGY PREDICTED BY IDOCK:   -8.63 KCAL/MOL
REMARK 923 INTER-LIGAND FREE ENERGY PREDICTED BY IDOCK:   -7.27 KCAL/MOL
REMARK 924 INTRA-LIGAND FREE ENERGY PREDICTED BY IDOCK:   -1.36 KCAL/MOL
REMARK 927      BINDING AFFINITY PREDICTED BY RF-SCORE:    0.00 PKD
ROOT
HETATM    1  C   UNL     1     -10.403   5.135  72.571  1.00  0.00    -0.254 C  
HETATM    2  C   UNL     1     -11.270   6.381  72.536  1.00  0.00    -0.307 C  
ENDROOT
BRANCH   2   3
HETATM    3  C   UNL     1     -11.903   6.571  71.163  1.00  0.00    -0.383 C  
BRANCH   3   4
HETATM    4  C   UNL     1     -11.106   7.565  70.320  1.00  0.00    -0.263 C  
BRANCH   4   5
HETATM    5  C   UNL     1     -10.915   8.858  71.101  1.00  0.00    -0.356 C  
BRANCH   5   6
HETATM    6  C   UNL     1     -12.078   9.799  70.987  1.00  0.00    -0.434 C  
HETATM    7  C   UNL     1     -12.079  10.842  70.143  1.00  0.00    -0.431 C  
BRANCH   7   8
HETATM    8  C   UNL     1     -10.930  11.200  69.248  1.00  0.00    -0.300 C  
BRANCH   8   9
HETATM    9  C   UNL     1     -11.041  10.544  67.906  1.00  0.00    -0.367 C  
HETATM   10  C   UNL     1     -10.789  11.151  66.737  1.00  0.00    -0.322 C  
BRANCH  10  11
HETATM   11  C   UNL     1     -10.451  12.603  66.581  1.00  0.00    -0.261 C  
BRANCH  11  12
HETATM   12  C   UNL     1     -11.682  13.436  66.358  1.00  0.00    -0.409 C  
HETATM   13  C   UNL     1     -12.142  14.366  67.210  1.00  0.00    -0.358 C  
BRANCH  13  14
HETATM   14  C   UNL     1     -11.462  14.664  68.512  1.00  0.00    -0.327 C  
BRANCH  14  15
HETATM   15  C   UNL     1     -11.042  16.119  68.667  1.00  0.00    -0.356 C  
BRANCH  15  16
HETATM   16  C   UNL     1     -10.755  16.709  67.287  1.00  0.00    -0.227 C  
BRANCH  16  17
HETATM   17  C   UNL     1     -10.502  18.208  67.362  1.00  0.00    -0.414 C  
HETATM   18  C   UNL     1     -10.656  18.867  66.013  1.00  0.00    -0.403 C  
HETATM   19  O   UNL     1     -10.944  18.296  64.972  1.00  0.00    -0.684 OA 
HETATM   20  O   UNL     1     -10.435  20.201  66.067  1.00  0.00    -0.418 OA 
ENDBRANCH  16  17
ENDBRANCH  15  16
ENDBRANCH  14  15
ENDBRANCH  13  14
ENDBRANCH  11  12
ENDBRANCH  10  11
ENDBRANCH   8   9
ENDBRANCH   7   8
ENDBRANCH   5   6
ENDBRANCH   4   5
ENDBRANCH   3   4
ENDBRANCH   2   3
TORSDOF 12
ENDMDL
MODEL      154
REMARK 921   NORMALIZED FREE ENERGY PREDICTED BY IDOCK:   -3.92 KCAL/MOL
REMARK 922        TOTAL FREE ENERGY PREDICTED BY IDOCK:   -8.62 KCAL/MOL
REMARK 923 INTER-LIGAND FREE ENERGY PREDICTED BY IDOCK:   -6.22 KCAL/MOL
REMARK 924 INTRA-LIGAND FREE ENERGY PREDICTED BY IDOCK:   -2.40 KCAL/MOL
REMARK 927      BINDING AFFINITY PREDICTED BY RF-SCORE:    0.00 PKD
ROOT
HETATM    1  C   UNL     1      -7.785  14.244  68.136  1.00  0.00    -0.141 C  
HETATM    2  C   UNL     1      -7.708  12.737  68.299  1.00  0.00    -0.136 C  
ENDROOT
BRANCH   2   3
HETATM    3  C   UNL     1      -8.569  12.027  67.260  1.00  0.00    -0.177 C  
BRANCH   3   4
HETATM    4  C   UNL     1      -9.306  10.838  67.873  1.00  0.00    -0.154 C  
BRANCH   4   5
HETATM    5  C   UNL     1     -10.076  10.100  66.786  1.00  0.00    -0.277 C  
BRANCH   5   6
HETATM    6  C   UNL     1      -9.262   9.833  65.556  1.00  0.00    -0.270 C  
HETATM    7  C   UNL     1      -9.601  10.315  64.350  1.00  0.00    -0.378 C  
BRANCH   7   8
HETATM    8  C   UNL     1     -10.825  11.141  64.090  1.00  0.00    -0.355 C  
BRANCH   8   9
HETATM    9  C   UNL     1     -10.481  12.552  63.725  1.00  0.00    -0.451 C  
HETATM   10  C   UNL     1     -10.722  13.621  64.497  1.00  0.00    -0.420 C  
BRANCH  10  11
HETATM   11  C   UNL     1     -11.459  13.587  65.802  1.00  0.00    -0.331 C  
BRANCH  11  12
HETATM   12  C   UNL     1     -11.160  14.799  66.639  1.00  0.00    -0.333 C  
HETATM   13  C   UNL     1     -11.392  14.895  67.957  1.00  0.00    -0.337 C  
BRANCH  13  14
HETATM   14  C   UNL     1     -12.002  13.777  68.745  1.00  0.00    -0.400 C  
BRANCH  14  15
HETATM   15  C   UNL     1     -12.660  14.226  70.043  1.00  0.00    -0.277 C  
BRANCH  15  16
HETATM   16  C   UNL     1     -12.733  13.040  71.005  1.00  0.00    -0.347 C  
BRANCH  16  17
HETATM   17  C   UNL     1     -12.023  11.819  70.441  1.00  0.00    -0.422 C  
HETATM   18  C   UNL     1     -12.283  10.588  71.276  1.00  0.00    -0.368 C  
HETATM   19  O   UNL     1     -12.970  10.547  72.286  1.00  0.00    -0.370 OA 
HETATM   20  O   UNL     1     -11.657   9.494  70.783  1.00  0.00    -0.275 OA 
ENDBRANCH  16  17
ENDBRANCH  15  16
ENDBRANCH  14  15
ENDBRANCH  13  14
ENDBRANCH  11  12
ENDBRANCH  10  11
ENDBRANCH   8   9
ENDBRANCH   7   8
ENDBRANCH   5   6
ENDBRANCH   4   5
ENDBRANCH   3   4
ENDBRANCH   2   3
TORSDOF 12
ENDMDL
MODEL      155
REMARK 921   NORMALIZED FREE ENERGY PREDICTED BY IDOCK:   -3.91 KCAL/MOL
REMARK 922        TOTAL FREE ENERGY PREDICTED BY IDOCK:   -8.61 KCAL/MOL
REMARK 923 INTER-LIGAND FREE ENERGY PREDICTED BY IDOCK:   -7.44 KCAL/MOL
REMARK 924 INTRA-LIGAND FREE ENERGY PREDICTED BY IDOCK:   -1.18 KCAL/MOL
REMARK 927      BINDING AFFINITY PREDICTED BY RF-SCORE:    0.00 PKD
ROOT
HETATM    1  C   UNL     1      -9.360  10.702  64.642  1.00  0.00    -0.280 C  
HETATM    2  C   UNL     1     -10.157  11.097  63.411  1.00  0.00    -0.439 C  
ENDROOT
BRANCH   2   3
HETATM    3  C   UNL     1     -10.783  12.475  63.581  1.00  0.00    -0.469 C  
BRANCH   3   4
HETATM    4  C   UNL     1     -12.270  12.368  63.916  1.00  0.00    -0.603 C  
BRANCH   4   5
HETATM    5  C   UNL     1     -12.543  13.055  65.247  1.00  0.00    -0.516 C  
BRANCH   5   6
HETATM    6  C   UNL     1     -11.315  13.642  65.878  1.00  0.00    -0.317 C  
HETATM    7  C   UNL     1     -10.923  13.323  67.121  1.00  0.00    -0.288 C  
BRANCH   7   8
HETATM    8  C   UNL     1     -11.665  12.380  68.020  1.00  0.00    -0.414 C  
BRANCH   8   9
HETATM    9  C   UNL     1     -11.850  12.945  69.394  1.00  0.00    -0.371 C  
HETATM   10  C   UNL     1     -12.079  12.215  70.496  1.00  0.00    -0.383 C  
BRANCH  10  11
HETATM   11  C   UNL     1     -12.282  10.730  70.512  1.00  0.00    -0.457 C  
BRANCH  11  12
HETATM   12  C   UNL     1     -13.208  10.310  71.619  1.00  0.00    -0.509 C  
HETATM   13  C   UNL     1     -13.060   9.202  72.363  1.00  0.00    -0.493 C  
BRANCH  13  14
HETATM   14  C   UNL     1     -11.933   8.240  72.147  1.00  0.00    -0.429 C  
BRANCH  14  15
HETATM   15  C   UNL     1     -12.363   6.917  71.527  1.00  0.00    -0.420 C  
BRANCH  15  16
HETATM   16  C   UNL     1     -11.178   6.303  70.781  1.00  0.00    -0.387 C  
BRANCH  16  17
HETATM   17  C   UNL     1     -10.483   5.239  71.619  1.00  0.00    -0.280 C  
HETATM   18  C   UNL     1      -9.169   5.737  72.170  1.00  0.00    -0.146 C  
HETATM   19  O   UNL     1      -8.694   6.848  71.983  1.00  0.00    -0.125 OA 
HETATM   20  O   UNL     1      -8.540   4.800  72.918  1.00  0.00    -0.110 OA 
ENDBRANCH  16  17
ENDBRANCH  15  16
ENDBRANCH  14  15
ENDBRANCH  13  14
ENDBRANCH  11  12
ENDBRANCH  10  11
ENDBRANCH   8   9
ENDBRANCH   7   8
ENDBRANCH   5   6
ENDBRANCH   4   5
ENDBRANCH   3   4
ENDBRANCH   2   3
TORSDOF 12
ENDMDL
MODEL      156
REMARK 921   NORMALIZED FREE ENERGY PREDICTED BY IDOCK:   -3.90 KCAL/MOL
REMARK 922        TOTAL FREE ENERGY PREDICTED BY IDOCK:   -8.60 KCAL/MOL
REMARK 923 INTER-LIGAND FREE ENERGY PREDICTED BY IDOCK:   -6.87 KCAL/MOL
REMARK 924 INTRA-LIGAND FREE ENERGY PREDICTED BY IDOCK:   -1.73 KCAL/MOL
REMARK 927      BINDING AFFINITY PREDICTED BY RF-SCORE:    0.00 PKD
ROOT
HETATM    1  C   UNL     1      -9.161   5.025  70.690  1.00  0.00    -0.174 C  
HETATM    2  C   UNL     1     -10.552   5.400  70.210  1.00  0.00    -0.329 C  
ENDROOT
BRANCH   2   3
HETATM    3  C   UNL     1     -11.351   6.078  71.316  1.00  0.00    -0.296 C  
BRANCH   3   4
HETATM    4  C   UNL     1     -12.120   7.285  70.782  1.00  0.00    -0.284 C  
BRANCH   4   5
HETATM    5  C   UNL     1     -11.557   8.560  71.394  1.00  0.00    -0.344 C  
BRANCH   5   6
HETATM    6  C   UNL     1     -10.217   8.368  72.042  1.00  0.00    -0.364 C  
HETATM    7  C   UNL     1      -9.080   8.815  71.486  1.00  0.00    -0.322 C  
BRANCH   7   8
HETATM    8  C   UNL     1      -9.011   9.522  70.166  1.00  0.00    -0.269 C  
BRANCH   8   9
HETATM    9  C   UNL     1      -8.920   8.562  69.021  1.00  0.00    -0.146 C  
HETATM   10  C   UNL     1      -9.398   8.795  67.789  1.00  0.00    -0.157 C  
BRANCH  10  11
HETATM   11  C   UNL     1     -10.180  10.009  67.390  1.00  0.00    -0.269 C  
BRANCH  11  12
HETATM   12  C   UNL     1     -11.374  10.215  68.279  1.00  0.00    -0.183 C  
HETATM   13  C   UNL     1     -11.787  11.405  68.743  1.00  0.00    -0.388 C  
BRANCH  13  14
HETATM   14  C   UNL     1     -11.069  12.680  68.422  1.00  0.00    -0.297 C  
BRANCH  14  15
HETATM   15  C   UNL     1     -11.862  13.623  67.526  1.00  0.00    -0.416 C  
BRANCH  15  16
HETATM   16  C   UNL     1     -11.193  13.691  66.153  1.00  0.00    -0.309 C  
BRANCH  16  17
HETATM   17  C   UNL     1     -11.941  14.625  65.213  1.00  0.00    -0.302 C  
HETATM   18  C   UNL     1     -11.130  15.856  64.889  1.00  0.00    -0.389 C  
HETATM   19  O   UNL     1     -10.011  16.102  65.315  1.00  0.00    -0.487 OA 
HETATM   20  O   UNL     1     -11.785  16.695  64.053  1.00  0.00    -1.143 OA 
ENDBRANCH  16  17
ENDBRANCH  15  16
ENDBRANCH  14  15
ENDBRANCH  13  14
ENDBRANCH  11  12
ENDBRANCH  10  11
ENDBRANCH   8   9
ENDBRANCH   7   8
ENDBRANCH   5   6
ENDBRANCH   4   5
ENDBRANCH   3   4
ENDBRANCH   2   3
TORSDOF 12
ENDMDL
MODEL      157
REMARK 921   NORMALIZED FREE ENERGY PREDICTED BY IDOCK:   -3.90 KCAL/MOL
REMARK 922        TOTAL FREE ENERGY PREDICTED BY IDOCK:   -8.60 KCAL/MOL
REMARK 923 INTER-LIGAND FREE ENERGY PREDICTED BY IDOCK:   -6.70 KCAL/MOL
REMARK 924 INTRA-LIGAND FREE ENERGY PREDICTED BY IDOCK:   -1.90 KCAL/MOL
REMARK 927      BINDING AFFINITY PREDICTED BY RF-SCORE:    0.00 PKD
ROOT
HETATM    1  C   UNL     1      -7.279   9.181  71.071  1.00  0.00    -0.113 C  
HETATM    2  C   UNL     1      -8.632   8.769  70.521  1.00  0.00    -0.187 C  
ENDROOT
BRANCH   2   3
HETATM    3  C   UNL     1      -9.702   8.810  71.606  1.00  0.00    -0.366 C  
BRANCH   3   4
HETATM    4  C   UNL     1     -10.956   8.053  71.174  1.00  0.00    -0.271 C  
BRANCH   4   5
HETATM    5  C   UNL     1     -10.564   6.684  70.634  1.00  0.00    -0.268 C  
BRANCH   5   6
HETATM    6  C   UNL     1     -11.387   6.250  69.457  1.00  0.00    -0.475 C  
HETATM    7  C   UNL     1     -10.914   6.278  68.201  1.00  0.00    -0.412 C  
BRANCH   7   8
HETATM    8  C   UNL     1      -9.543   6.759  67.830  1.00  0.00    -0.133 C  
BRANCH   8   9
HETATM    9  C   UNL     1      -9.549   7.525  66.543  1.00  0.00    -0.239 C  
HETATM   10  C   UNL     1     -10.020   8.773  66.399  1.00  0.00    -0.346 C  
BRANCH  10  11
HETATM   11  C   UNL     1     -10.699   9.562  67.477  1.00  0.00    -0.311 C  
BRANCH  11  12
HETATM   12  C   UNL     1      -9.854  10.719  67.932  1.00  0.00    -0.185 C  
HETATM   13  C   UNL     1     -10.318  11.793  68.590  1.00  0.00    -0.228 C  
BRANCH  13  14
HETATM   14  C   UNL     1     -11.767  11.957  68.933  1.00  0.00    -0.381 C  
BRANCH  14  15
HETATM   15  C   UNL     1     -12.228  11.077  70.087  1.00  0.00    -0.424 C  
BRANCH  15  16
HETATM   16  C   UNL     1     -12.578  11.961  71.284  1.00  0.00    -0.383 C  
BRANCH  16  17
HETATM   17  C   UNL     1     -12.485  13.439  70.932  1.00  0.00    -0.439 C  
HETATM   18  C   UNL     1     -13.523  14.253  71.666  1.00  0.00    -0.376 C  
HETATM   19  O   UNL     1     -14.350  13.809  72.449  1.00  0.00    -0.664 OA 
HETATM   20  O   UNL     1     -13.450  15.569  71.362  1.00  0.00    -0.496 OA 
ENDBRANCH  16  17
ENDBRANCH  15  16
ENDBRANCH  14  15
ENDBRANCH  13  14
ENDBRANCH  11  12
ENDBRANCH  10  11
ENDBRANCH   8   9
ENDBRANCH   7   8
ENDBRANCH   5   6
ENDBRANCH   4   5
ENDBRANCH   3   4
ENDBRANCH   2   3
TORSDOF 12
ENDMDL
MODEL      158
REMARK 921   NORMALIZED FREE ENERGY PREDICTED BY IDOCK:   -3.89 KCAL/MOL
REMARK 922        TOTAL FREE ENERGY PREDICTED BY IDOCK:   -8.58 KCAL/MOL
REMARK 923 INTER-LIGAND FREE ENERGY PREDICTED BY IDOCK:   -6.71 KCAL/MOL
REMARK 924 INTRA-LIGAND FREE ENERGY PREDICTED BY IDOCK:   -1.87 KCAL/MOL
REMARK 927      BINDING AFFINITY PREDICTED BY RF-SCORE:    0.00 PKD
ROOT
HETATM    1  C   UNL     1      -9.744  11.755  64.708  1.00  0.00    -0.184 C  
HETATM    2  C   UNL     1     -10.695  11.468  63.560  1.00  0.00    -0.483 C  
ENDROOT
BRANCH   2   3
HETATM    3  C   UNL     1     -11.931  12.357  63.635  1.00  0.00    -0.626 C  
BRANCH   3   4
HETATM    4  C   UNL     1     -12.513  12.375  65.047  1.00  0.00    -0.393 C  
BRANCH   4   5
HETATM    5  C   UNL     1     -12.819  13.810  65.454  1.00  0.00    -0.455 C  
BRANCH   5   6
HETATM    6  C   UNL     1     -12.281  14.829  64.493  1.00  0.00    -0.443 C  
HETATM    7  C   UNL     1     -11.075  15.396  64.647  1.00  0.00    -0.361 C  
BRANCH   7   8
HETATM    8  C   UNL     1     -10.149  15.104  65.790  1.00  0.00    -0.373 C  
BRANCH   8   9
HETATM    9  C   UNL     1     -10.641  15.696  67.074  1.00  0.00    -0.311 C  
HETATM   10  C   UNL     1     -10.711  15.038  68.241  1.00  0.00    -0.253 C  
BRANCH  10  11
HETATM   11  C   UNL     1     -10.401  13.583  68.424  1.00  0.00    -0.249 C  
BRANCH  11  12
HETATM   12  C   UNL     1     -11.648  12.775  68.648  1.00  0.00    -0.352 C  
HETATM   13  C   UNL     1     -11.702  11.434  68.644  1.00  0.00    -0.394 C  
BRANCH  13  14
HETATM   14  C   UNL     1     -10.493  10.586  68.394  1.00  0.00    -0.212 C  
BRANCH  14  15
HETATM   15  C   UNL     1      -9.974   9.875  69.637  1.00  0.00    -0.255 C  
BRANCH  15  16
HETATM   16  C   UNL     1     -11.131   9.143  70.317  1.00  0.00    -0.272 C  
BRANCH  16  17
HETATM   17  C   UNL     1     -10.975   9.138  71.831  1.00  0.00    -0.372 C  
HETATM   18  C   UNL     1     -10.387   7.838  72.326  1.00  0.00    -0.237 C  
HETATM   19  O   UNL     1     -10.069   6.889  71.623  1.00  0.00    -0.190 OA 
HETATM   20  O   UNL     1     -10.243   7.821  73.671  1.00  0.00    -0.290 OA 
ENDBRANCH  16  17
ENDBRANCH  15  16
ENDBRANCH  14  15
ENDBRANCH  13  14
ENDBRANCH  11  12
ENDBRANCH  10  11
ENDBRANCH   8   9
ENDBRANCH   7   8
ENDBRANCH   5   6
ENDBRANCH   4   5
ENDBRANCH   3   4
ENDBRANCH   2   3
TORSDOF 12
ENDMDL
MODEL      159
REMARK 921   NORMALIZED FREE ENERGY PREDICTED BY IDOCK:   -3.89 KCAL/MOL
REMARK 922        TOTAL FREE ENERGY PREDICTED BY IDOCK:   -8.57 KCAL/MOL
REMARK 923 INTER-LIGAND FREE ENERGY PREDICTED BY IDOCK:   -7.70 KCAL/MOL
REMARK 924 INTRA-LIGAND FREE ENERGY PREDICTED BY IDOCK:   -0.87 KCAL/MOL
REMARK 927      BINDING AFFINITY PREDICTED BY RF-SCORE:    0.00 PKD
ROOT
HETATM    1  C   UNL     1     -13.756   7.387  71.581  1.00  0.00    -0.468 C  
HETATM    2  C   UNL     1     -12.921   8.636  71.796  1.00  0.00    -0.394 C  
ENDROOT
BRANCH   2   3
HETATM    3  C   UNL     1     -13.475   9.812  71.001  1.00  0.00    -0.243 C  
BRANCH   3   4
HETATM    4  C   UNL     1     -12.916  11.138  71.514  1.00  0.00    -0.542 C  
BRANCH   4   5
HETATM    5  C   UNL     1     -12.282  11.904  70.360  1.00  0.00    -0.399 C  
BRANCH   5   6
HETATM    6  C   UNL     1     -11.274  11.100  69.594  1.00  0.00    -0.333 C  
HETATM    7  C   UNL     1     -11.039  11.298  68.288  1.00  0.00    -0.297 C  
BRANCH   7   8
HETATM    8  C   UNL     1     -11.761  12.310  67.449  1.00  0.00    -0.405 C  
BRANCH   8   9
HETATM    9  C   UNL     1     -11.242  12.345  66.045  1.00  0.00    -0.374 C  
HETATM   10  C   UNL     1     -10.344  13.229  65.584  1.00  0.00    -0.292 C  
BRANCH  10  11
HETATM   11  C   UNL     1      -9.791  14.377  66.372  1.00  0.00    -0.309 C  
BRANCH  11  12
HETATM   12  C   UNL     1     -10.005  15.687  65.665  1.00  0.00    -0.388 C  
HETATM   13  C   UNL     1     -10.332  16.839  66.271  1.00  0.00    -0.316 C  
BRANCH  13  14
HETATM   14  C   UNL     1     -10.535  16.934  67.752  1.00  0.00    -0.340 C  
BRANCH  14  15
HETATM   15  C   UNL     1     -10.305  18.330  68.316  1.00  0.00    -0.379 C  
BRANCH  15  16
HETATM   16  C   UNL     1     -10.515  19.360  67.207  1.00  0.00    -0.579 C  
BRANCH  16  17
HETATM   17  C   UNL     1      -9.645  20.591  67.416  1.00  0.00    -0.578 C  
HETATM   18  C   UNL     1      -8.181  20.277  67.218  1.00  0.00    -0.343 C  
HETATM   19  O   UNL     1      -7.722  19.182  66.928  1.00  0.00    -0.230 OA 
HETATM   20  O   UNL     1      -7.396  21.365  67.400  1.00  0.00    -0.493 OA 
ENDBRANCH  16  17
ENDBRANCH  15  16
ENDBRANCH  14  15
ENDBRANCH  13  14
ENDBRANCH  11  12
ENDBRANCH  10  11
ENDBRANCH   8   9
ENDBRANCH   7   8
ENDBRANCH   5   6
ENDBRANCH   4   5
ENDBRANCH   3   4
ENDBRANCH   2   3
TORSDOF 12
ENDMDL
MODEL      160
REMARK 921   NORMALIZED FREE ENERGY PREDICTED BY IDOCK:   -3.89 KCAL/MOL
REMARK 922        TOTAL FREE ENERGY PREDICTED BY IDOCK:   -8.57 KCAL/MOL
REMARK 923 INTER-LIGAND FREE ENERGY PREDICTED BY IDOCK:   -7.23 KCAL/MOL
REMARK 924 INTRA-LIGAND FREE ENERGY PREDICTED BY IDOCK:   -1.34 KCAL/MOL
REMARK 927      BINDING AFFINITY PREDICTED BY RF-SCORE:    0.00 PKD
ROOT
HETATM    1  C   UNL     1      -9.449  11.296  65.068  1.00  0.00    -0.237 C  
HETATM    2  C   UNL     1     -10.495  11.038  63.998  1.00  0.00    -0.433 C  
ENDROOT
BRANCH   2   3
HETATM    3  C   UNL     1     -10.946  12.339  63.346  1.00  0.00    -0.467 C  
BRANCH   3   4
HETATM    4  C   UNL     1     -12.375  12.695  63.755  1.00  0.00    -0.568 C  
BRANCH   4   5
HETATM    5  C   UNL     1     -12.409  14.115  64.304  1.00  0.00    -0.398 C  
BRANCH   5   6
HETATM    6  C   UNL     1     -11.094  14.569  64.864  1.00  0.00    -0.401 C  
HETATM    7  C   UNL     1     -10.868  14.660  66.184  1.00  0.00    -0.321 C  
BRANCH   7   8
HETATM    8  C   UNL     1     -11.891  14.348  67.235  1.00  0.00    -0.434 C  
BRANCH   8   9
HETATM    9  C   UNL     1     -11.653  15.123  68.494  1.00  0.00    -0.354 C  
HETATM   10  C   UNL     1     -11.614  14.588  69.724  1.00  0.00    -0.345 C  
BRANCH  10  11
HETATM   11  C   UNL     1     -11.896  13.151  70.042  1.00  0.00    -0.360 C  
BRANCH  11  12
HETATM   12  C   UNL     1     -12.632  13.007  71.344  1.00  0.00    -0.329 C  
HETATM   13  C   UNL     1     -13.128  11.854  71.821  1.00  0.00    -0.465 C  
BRANCH  13  14
HETATM   14  C   UNL     1     -13.004  10.562  71.073  1.00  0.00    -0.475 C  
BRANCH  14  15
HETATM   15  C   UNL     1     -11.927   9.634  71.622  1.00  0.00    -0.470 C  
BRANCH  15  16
HETATM   16  C   UNL     1     -10.681   9.737  70.743  1.00  0.00    -0.393 C  
BRANCH  16  17
HETATM   17  C   UNL     1      -9.482   9.063  71.394  1.00  0.00    -0.334 C  
HETATM   18  C   UNL     1      -9.327   7.634  70.931  1.00  0.00    -0.157 C  
HETATM   19  O   UNL     1     -10.059   7.062  70.136  1.00  0.00    -0.185 OA 
HETATM   20  O   UNL     1      -8.263   7.024  71.502  1.00  0.00    -0.107 OA 
ENDBRANCH  16  17
ENDBRANCH  15  16
ENDBRANCH  14  15
ENDBRANCH  13  14
ENDBRANCH  11  12
ENDBRANCH  10  11
ENDBRANCH   8   9
ENDBRANCH   7   8
ENDBRANCH   5   6
ENDBRANCH   4   5
ENDBRANCH   3   4
ENDBRANCH   2   3
TORSDOF 12
ENDMDL
MODEL      161
REMARK 921   NORMALIZED FREE ENERGY PREDICTED BY IDOCK:   -3.88 KCAL/MOL
REMARK 922        TOTAL FREE ENERGY PREDICTED BY IDOCK:   -8.56 KCAL/MOL
REMARK 923 INTER-LIGAND FREE ENERGY PREDICTED BY IDOCK:   -7.38 KCAL/MOL
REMARK 924 INTRA-LIGAND FREE ENERGY PREDICTED BY IDOCK:   -1.18 KCAL/MOL
REMARK 927      BINDING AFFINITY PREDICTED BY RF-SCORE:    0.00 PKD
ROOT
HETATM    1  C   UNL     1      -9.787   5.815  69.441  1.00  0.00    -0.219 C  
HETATM    2  C   UNL     1     -11.251   6.048  69.768  1.00  0.00    -0.440 C  
ENDROOT
BRANCH   2   3
HETATM    3  C   UNL     1     -11.416   6.627  71.168  1.00  0.00    -0.370 C  
BRANCH   3   4
HETATM    4  C   UNL     1     -12.601   7.590  71.232  1.00  0.00    -0.345 C  
BRANCH   4   5
HETATM    5  C   UNL     1     -12.106   8.983  71.598  1.00  0.00    -0.422 C  
BRANCH   5   6
HETATM    6  C   UNL     1     -10.651   9.196  71.302  1.00  0.00    -0.399 C  
HETATM    7  C   UNL     1     -10.226   9.761  70.161  1.00  0.00    -0.328 C  
BRANCH   7   8
HETATM    8  C   UNL     1     -11.134  10.216  69.059  1.00  0.00    -0.249 C  
BRANCH   8   9
HETATM    9  C   UNL     1     -10.482  10.106  67.715  1.00  0.00    -0.277 C  
HETATM   10  C   UNL     1     -10.594  11.015  66.735  1.00  0.00    -0.317 C  
BRANCH  10  11
HETATM   11  C   UNL     1     -11.463  12.235  66.794  1.00  0.00    -0.421 C  
BRANCH  11  12
HETATM   12  C   UNL     1     -12.083  12.537  65.458  1.00  0.00    -0.481 C  
HETATM   13  C   UNL     1     -11.624  13.453  64.591  1.00  0.00    -0.386 C  
BRANCH  13  14
HETATM   14  C   UNL     1     -10.422  14.299  64.883  1.00  0.00    -0.454 C  
BRANCH  14  15
HETATM   15  C   UNL     1     -10.749  15.764  65.139  1.00  0.00    -0.455 C  
BRANCH  15  16
HETATM   16  C   UNL     1      -9.792  16.315  66.197  1.00  0.00    -0.358 C  
BRANCH  16  17
HETATM   17  C   UNL     1     -10.446  17.414  67.022  1.00  0.00    -0.284 C  
HETATM   18  C   UNL     1      -9.957  18.783  66.611  1.00  0.00    -0.365 C  
HETATM   19  O   UNL     1      -9.138  19.010  65.733  1.00  0.00    -0.384 OA 
HETATM   20  O   UNL     1     -10.532  19.770  67.336  1.00  0.00    -0.427 OA 
ENDBRANCH  16  17
ENDBRANCH  15  16
ENDBRANCH  14  15
ENDBRANCH  13  14
ENDBRANCH  11  12
ENDBRANCH  10  11
ENDBRANCH   8   9
ENDBRANCH   7   8
ENDBRANCH   5   6
ENDBRANCH   4   5
ENDBRANCH   3   4
ENDBRANCH   2   3
TORSDOF 12
ENDMDL
MODEL      162
REMARK 921   NORMALIZED FREE ENERGY PREDICTED BY IDOCK:   -3.88 KCAL/MOL
REMARK 922        TOTAL FREE ENERGY PREDICTED BY IDOCK:   -8.56 KCAL/MOL
REMARK 923 INTER-LIGAND FREE ENERGY PREDICTED BY IDOCK:   -6.43 KCAL/MOL
REMARK 924 INTRA-LIGAND FREE ENERGY PREDICTED BY IDOCK:   -2.14 KCAL/MOL
REMARK 927      BINDING AFFINITY PREDICTED BY RF-SCORE:    0.00 PKD
ROOT
HETATM    1  C   UNL     1     -13.776   8.674  71.992  1.00  0.00    -0.470 C  
HETATM    2  C   UNL     1     -13.631   7.247  71.495  1.00  0.00    -0.442 C  
ENDROOT
BRANCH   2   3
HETATM    3  C   UNL     1     -12.194   6.759  71.635  1.00  0.00    -0.410 C  
BRANCH   3   4
HETATM    4  C   UNL     1     -11.435   7.572  72.682  1.00  0.00    -0.369 C  
BRANCH   4   5
HETATM    5  C   UNL     1     -10.073   7.970  72.130  1.00  0.00    -0.298 C  
BRANCH   5   6
HETATM    6  C   UNL     1     -10.088   9.276  71.392  1.00  0.00    -0.348 C  
HETATM    7  C   UNL     1      -9.804   9.365  70.083  1.00  0.00    -0.272 C  
BRANCH   7   8
HETATM    8  C   UNL     1      -9.420   8.197  69.225  1.00  0.00    -0.159 C  
BRANCH   8   9
HETATM    9  C   UNL     1     -10.465   7.890  68.198  1.00  0.00    -0.227 C  
HETATM   10  C   UNL     1     -10.464   8.364  66.942  1.00  0.00    -0.359 C  
BRANCH  10  11
HETATM   11  C   UNL     1      -9.473   9.349  66.400  1.00  0.00    -0.259 C  
BRANCH  11  12
HETATM   12  C   UNL     1     -10.138  10.382  65.534  1.00  0.00    -0.352 C  
HETATM   13  C   UNL     1     -10.596  11.567  65.970  1.00  0.00    -0.310 C  
BRANCH  13  14
HETATM   14  C   UNL     1     -10.499  11.981  67.407  1.00  0.00    -0.239 C  
BRANCH  14  15
HETATM   15  C   UNL     1     -11.751  11.678  68.219  1.00  0.00    -0.374 C  
BRANCH  15  16
HETATM   16  C   UNL     1     -11.897  12.725  69.325  1.00  0.00    -0.358 C  
BRANCH  16  17
HETATM   17  C   UNL     1     -11.142  14.002  68.987  1.00  0.00    -0.296 C  
HETATM   18  C   UNL     1     -11.528  15.136  69.905  1.00  0.00    -0.288 C  
HETATM   19  O   UNL     1     -12.343  15.069  70.813  1.00  0.00    -0.295 OA 
HETATM   20  O   UNL     1     -10.862  16.278  69.615  1.00  0.00    -0.303 OA 
ENDBRANCH  16  17
ENDBRANCH  15  16
ENDBRANCH  14  15
ENDBRANCH  13  14
ENDBRANCH  11  12
ENDBRANCH  10  11
ENDBRANCH   8   9
ENDBRANCH   7   8
ENDBRANCH   5   6
ENDBRANCH   4   5
ENDBRANCH   3   4
ENDBRANCH   2   3
TORSDOF 12
ENDMDL
MODEL      163
REMARK 921   NORMALIZED FREE ENERGY PREDICTED BY IDOCK:   -3.88 KCAL/MOL
REMARK 922        TOTAL FREE ENERGY PREDICTED BY IDOCK:   -8.56 KCAL/MOL
REMARK 923 INTER-LIGAND FREE ENERGY PREDICTED BY IDOCK:   -6.33 KCAL/MOL
REMARK 924 INTRA-LIGAND FREE ENERGY PREDICTED BY IDOCK:   -2.23 KCAL/MOL
REMARK 927      BINDING AFFINITY PREDICTED BY RF-SCORE:    0.00 PKD
ROOT
HETATM    1  C   UNL     1     -13.469   7.179  71.266  1.00  0.00    -0.309 C  
HETATM    2  C   UNL     1     -14.132   8.430  71.816  1.00  0.00    -0.509 C  
ENDROOT
BRANCH   2   3
HETATM    3  C   UNL     1     -13.098   9.401  72.373  1.00  0.00    -0.458 C  
BRANCH   3   4
HETATM    4  C   UNL     1     -13.375  10.829  71.908  1.00  0.00    -0.445 C  
BRANCH   4   5
HETATM    5  C   UNL     1     -12.207  11.328  71.069  1.00  0.00    -0.417 C  
BRANCH   5   6
HETATM    6  C   UNL     1     -12.118  10.672  69.723  1.00  0.00    -0.343 C  
HETATM    7  C   UNL     1     -11.029   9.996  69.323  1.00  0.00    -0.264 C  
BRANCH   7   8
HETATM    8  C   UNL     1      -9.788   9.840  70.148  1.00  0.00    -0.306 C  
BRANCH   8   9
HETATM    9  C   UNL     1      -9.976   8.857  71.262  1.00  0.00    -0.358 C  
HETATM   10  C   UNL     1      -9.737   7.540  71.168  1.00  0.00    -0.168 C  
BRANCH  10  11
HETATM   11  C   UNL     1      -9.336   6.831  69.910  1.00  0.00    -0.157 C  
BRANCH  11  12
HETATM   12  C   UNL     1     -10.435   5.938  69.404  1.00  0.00    -0.343 C  
HETATM   13  C   UNL     1     -11.092   6.113  68.247  1.00  0.00    -0.336 C  
BRANCH  13  14
HETATM   14  C   UNL     1     -10.796   7.256  67.324  1.00  0.00    -0.354 C  
BRANCH  14  15
HETATM   15  C   UNL     1      -9.489   7.104  66.558  1.00  0.00    -0.208 C  
BRANCH  15  16
HETATM   16  C   UNL     1      -8.941   8.491  66.221  1.00  0.00    -0.207 C  
BRANCH  16  17
HETATM   17  C   UNL     1     -10.061   9.470  65.897  1.00  0.00    -0.284 C  
HETATM   18  C   UNL     1      -9.715  10.341  64.714  1.00  0.00    -0.332 C  
HETATM   19  O   UNL     1      -8.674  10.292  64.076  1.00  0.00    -0.176 OA 
HETATM   20  O   UNL     1     -10.705  11.215  64.416  1.00  0.00    -0.350 OA 
ENDBRANCH  16  17
ENDBRANCH  15  16
ENDBRANCH  14  15
ENDBRANCH  13  14
ENDBRANCH  11  12
ENDBRANCH  10  11
ENDBRANCH   8   9
ENDBRANCH   7   8
ENDBRANCH   5   6
ENDBRANCH   4   5
ENDBRANCH   3   4
ENDBRANCH   2   3
TORSDOF 12
ENDMDL
MODEL      164
REMARK 921   NORMALIZED FREE ENERGY PREDICTED BY IDOCK:   -3.88 KCAL/MOL
REMARK 922        TOTAL FREE ENERGY PREDICTED BY IDOCK:   -8.55 KCAL/MOL
REMARK 923 INTER-LIGAND FREE ENERGY PREDICTED BY IDOCK:   -6.93 KCAL/MOL
REMARK 924 INTRA-LIGAND FREE ENERGY PREDICTED BY IDOCK:   -1.62 KCAL/MOL
REMARK 927      BINDING AFFINITY PREDICTED BY RF-SCORE:    0.00 PKD
ROOT
HETATM    1  C   UNL     1     -10.312   5.258  73.434  1.00  0.00    -0.242 C  
HETATM    2  C   UNL     1     -10.081   6.672  73.934  1.00  0.00    -0.349 C  
ENDROOT
BRANCH   2   3
HETATM    3  C   UNL     1     -10.878   7.682  73.117  1.00  0.00    -0.440 C  
BRANCH   3   4
HETATM    4  C   UNL     1     -10.025   8.288  72.004  1.00  0.00    -0.327 C  
BRANCH   4   5
HETATM    5  C   UNL     1     -10.834   8.343  70.715  1.00  0.00    -0.255 C  
BRANCH   5   6
HETATM    6  C   UNL     1     -11.726   7.153  70.520  1.00  0.00    -0.314 C  
HETATM    7  C   UNL     1     -11.330   6.060  69.848  1.00  0.00    -0.355 C  
BRANCH   7   8
HETATM    8  C   UNL     1      -9.985   5.912  69.203  1.00  0.00    -0.214 C  
BRANCH   8   9
HETATM    9  C   UNL     1     -10.092   5.732  67.721  1.00  0.00    -0.196 C  
HETATM   10  C   UNL     1     -10.276   6.728  66.841  1.00  0.00    -0.300 C  
BRANCH  10  11
HETATM   11  C   UNL     1     -10.499   8.164  67.209  1.00  0.00    -0.379 C  
BRANCH  11  12
HETATM   12  C   UNL     1      -9.228   8.962  67.118  1.00  0.00    -0.169 C  
HETATM   13  C   UNL     1      -8.841   9.666  66.043  1.00  0.00    -0.178 C  
BRANCH  13  14
HETATM   14  C   UNL     1      -9.655   9.718  64.786  1.00  0.00    -0.284 C  
BRANCH  14  15
HETATM   15  C   UNL     1      -9.898  11.129  64.268  1.00  0.00    -0.335 C  
BRANCH  15  16
HETATM   16  C   UNL     1     -10.643  11.933  65.334  1.00  0.00    -0.315 C  
BRANCH  16  17
HETATM   17  C   UNL     1     -10.928  13.352  64.863  1.00  0.00    -0.353 C  
HETATM   18  C   UNL     1     -12.331  13.487  64.320  1.00  0.00    -0.335 C  
HETATM   19  O   UNL     1     -13.156  12.588  64.251  1.00  0.00    -0.759 OA 
HETATM   20  O   UNL     1     -12.597  14.745  63.900  1.00  0.00    -0.834 OA 
ENDBRANCH  16  17
ENDBRANCH  15  16
ENDBRANCH  14  15
ENDBRANCH  13  14
ENDBRANCH  11  12
ENDBRANCH  10  11
ENDBRANCH   8   9
ENDBRANCH   7   8
ENDBRANCH   5   6
ENDBRANCH   4   5
ENDBRANCH   3   4
ENDBRANCH   2   3
TORSDOF 12
ENDMDL
MODEL      165
REMARK 921   NORMALIZED FREE ENERGY PREDICTED BY IDOCK:   -3.87 KCAL/MOL
REMARK 922        TOTAL FREE ENERGY PREDICTED BY IDOCK:   -8.54 KCAL/MOL
REMARK 923 INTER-LIGAND FREE ENERGY PREDICTED BY IDOCK:   -7.05 KCAL/MOL
REMARK 924 INTRA-LIGAND FREE ENERGY PREDICTED BY IDOCK:   -1.49 KCAL/MOL
REMARK 927      BINDING AFFINITY PREDICTED BY RF-SCORE:    0.00 PKD
ROOT
HETATM    1  C   UNL     1      -8.234  10.251  63.003  1.00  0.00    -0.162 C  
HETATM    2  C   UNL     1      -8.820   9.127  63.840  1.00  0.00    -0.104 C  
ENDROOT
BRANCH   2   3
HETATM    3  C   UNL     1      -9.084   9.587  65.269  1.00  0.00    -0.276 C  
BRANCH   3   4
HETATM    4  C   UNL     1      -8.832  11.086  65.422  1.00  0.00    -0.157 C  
BRANCH   4   5
HETATM    5  C   UNL     1     -10.031  11.738  66.096  1.00  0.00    -0.254 C  
BRANCH   5   6
HETATM    6  C   UNL     1     -11.317  11.534  65.351  1.00  0.00    -0.147 C  
HETATM    7  C   UNL     1     -12.243  12.499  65.236  1.00  0.00    -0.493 C  
BRANCH   7   8
HETATM    8  C   UNL     1     -12.115  13.862  65.847  1.00  0.00    -0.459 C  
BRANCH   8   9
HETATM    9  C   UNL     1     -11.505  14.846  64.898  1.00  0.00    -0.407 C  
HETATM   10  C   UNL     1     -10.483  15.663  65.197  1.00  0.00    -0.417 C  
BRANCH  10  11
HETATM   11  C   UNL     1      -9.856  15.789  66.552  1.00  0.00    -0.286 C  
BRANCH  11  12
HETATM   12  C   UNL     1     -10.304  17.040  67.255  1.00  0.00    -0.311 C  
HETATM   13  C   UNL     1     -10.528  17.139  68.575  1.00  0.00    -0.377 C  
BRANCH  13  14
HETATM   14  C   UNL     1     -10.363  15.975  69.502  1.00  0.00    -0.278 C  
BRANCH  14  15
HETATM   15  C   UNL     1     -11.576  15.055  69.557  1.00  0.00    -0.337 C  
BRANCH  15  16
HETATM   16  C   UNL     1     -12.525  15.540  70.652  1.00  0.00    -0.483 C  
BRANCH  16  17
HETATM   17  C   UNL     1     -11.817  15.652  71.995  1.00  0.00    -0.548 C  
HETATM   18  C   UNL     1     -12.590  14.958  73.091  1.00  0.00    -0.452 C  
HETATM   19  O   UNL     1     -13.655  14.375  72.950  1.00  0.00    -0.586 OA 
HETATM   20  O   UNL     1     -11.970  15.050  74.290  1.00  0.00    -0.517 OA 
ENDBRANCH  16  17
ENDBRANCH  15  16
ENDBRANCH  14  15
ENDBRANCH  13  14
ENDBRANCH  11  12
ENDBRANCH  10  11
ENDBRANCH   8   9
ENDBRANCH   7   8
ENDBRANCH   5   6
ENDBRANCH   4   5
ENDBRANCH   3   4
ENDBRANCH   2   3
TORSDOF 12
ENDMDL
MODEL      166
REMARK 921   NORMALIZED FREE ENERGY PREDICTED BY IDOCK:   -3.87 KCAL/MOL
REMARK 922        TOTAL FREE ENERGY PREDICTED BY IDOCK:   -8.54 KCAL/MOL
REMARK 923 INTER-LIGAND FREE ENERGY PREDICTED BY IDOCK:   -6.14 KCAL/MOL
REMARK 924 INTRA-LIGAND FREE ENERGY PREDICTED BY IDOCK:   -2.40 KCAL/MOL
REMARK 927      BINDING AFFINITY PREDICTED BY RF-SCORE:    0.00 PKD
ROOT
HETATM    1  C   UNL     1     -10.524  11.493  63.753  1.00  0.00    -0.459 C  
HETATM    2  C   UNL     1     -11.939  12.004  63.550  1.00  0.00    -0.605 C  
ENDROOT
BRANCH   2   3
HETATM    3  C   UNL     1     -12.493  12.613  64.833  1.00  0.00    -0.564 C  
BRANCH   3   4
HETATM    4  C   UNL     1     -12.272  14.124  64.867  1.00  0.00    -0.451 C  
BRANCH   4   5
HETATM    5  C   UNL     1     -11.570  14.508  66.163  1.00  0.00    -0.366 C  
BRANCH   5   6
HETATM    6  C   UNL     1     -11.844  13.559  67.292  1.00  0.00    -0.427 C  
HETATM    7  C   UNL     1     -11.887  13.959  68.572  1.00  0.00    -0.401 C  
BRANCH   7   8
HETATM    8  C   UNL     1     -11.645  15.369  69.020  1.00  0.00    -0.361 C  
BRANCH   8   9
HETATM    9  C   UNL     1     -10.412  15.486  69.862  1.00  0.00    -0.323 C  
HETATM   10  C   UNL     1      -9.168  15.621  69.379  1.00  0.00    -0.279 C  
BRANCH  10  11
HETATM   11  C   UNL     1      -8.805  15.579  67.925  1.00  0.00    -0.171 C  
BRANCH  11  12
HETATM   12  C   UNL     1      -7.416  15.043  67.717  1.00  0.00    -0.175 C  
HETATM   13  C   UNL     1      -7.120  13.756  67.474  1.00  0.00    -0.172 C  
BRANCH  13  14
HETATM   14  C   UNL     1      -8.175  12.695  67.398  1.00  0.00    -0.184 C  
BRANCH  14  15
HETATM   15  C   UNL     1      -8.126  11.696  68.546  1.00  0.00    -0.145 C  
BRANCH  15  16
HETATM   16  C   UNL     1      -9.514  11.086  68.740  1.00  0.00    -0.190 C  
BRANCH  16  17
HETATM   17  C   UNL     1      -9.993  10.377  67.481  1.00  0.00    -0.215 C  
HETATM   18  C   UNL     1     -10.136   8.890  67.699  1.00  0.00    -0.218 C  
HETATM   19  O   UNL     1      -9.902   8.300  68.744  1.00  0.00    -0.165 OA 
HETATM   20  O   UNL     1     -10.562   8.248  66.587  1.00  0.00    -0.268 OA 
ENDBRANCH  16  17
ENDBRANCH  15  16
ENDBRANCH  14  15
ENDBRANCH  13  14
ENDBRANCH  11  12
ENDBRANCH  10  11
ENDBRANCH   8   9
ENDBRANCH   7   8
ENDBRANCH   5   6
ENDBRANCH   4   5
ENDBRANCH   3   4
ENDBRANCH   2   3
TORSDOF 12
ENDMDL
MODEL      167
REMARK 921   NORMALIZED FREE ENERGY PREDICTED BY IDOCK:   -3.87 KCAL/MOL
REMARK 922        TOTAL FREE ENERGY PREDICTED BY IDOCK:   -8.54 KCAL/MOL
REMARK 923 INTER-LIGAND FREE ENERGY PREDICTED BY IDOCK:   -7.37 KCAL/MOL
REMARK 924 INTRA-LIGAND FREE ENERGY PREDICTED BY IDOCK:   -1.17 KCAL/MOL
REMARK 927      BINDING AFFINITY PREDICTED BY RF-SCORE:    0.00 PKD
ROOT
HETATM    1  C   UNL     1     -14.298   7.930  71.549  1.00  0.00    -0.563 C  
HETATM    2  C   UNL     1     -13.252   8.933  72.002  1.00  0.00    -0.459 C  
ENDROOT
BRANCH   2   3
HETATM    3  C   UNL     1     -13.467  10.289  71.340  1.00  0.00    -0.303 C  
BRANCH   3   4
HETATM    4  C   UNL     1     -12.138  10.920  70.931  1.00  0.00    -0.455 C  
BRANCH   4   5
HETATM    5  C   UNL     1     -11.538  10.138  69.771  1.00  0.00    -0.245 C  
BRANCH   5   6
HETATM    6  C   UNL     1     -10.328   9.338  70.155  1.00  0.00    -0.258 C  
HETATM    7  C   UNL     1      -9.659   8.578  69.274  1.00  0.00    -0.170 C  
BRANCH   7   8
HETATM    8  C   UNL     1     -10.048   8.421  67.834  1.00  0.00    -0.254 C  
BRANCH   8   9
HETATM    9  C   UNL     1      -8.852   8.331  66.938  1.00  0.00    -0.155 C  
HETATM   10  C   UNL     1      -8.690   9.034  65.807  1.00  0.00    -0.197 C  
BRANCH  10  11
HETATM   11  C   UNL     1      -9.719   9.948  65.212  1.00  0.00    -0.383 C  
BRANCH  11  12
HETATM   12  C   UNL     1      -9.522  10.113  63.731  1.00  0.00    -0.330 C  
HETATM   13  C   UNL     1      -9.910  11.184  63.022  1.00  0.00    -0.368 C  
BRANCH  13  14
HETATM   14  C   UNL     1     -10.611  12.349  63.652  1.00  0.00    -0.481 C  
BRANCH  14  15
HETATM   15  C   UNL     1     -12.102  12.405  63.350  1.00  0.00    -0.620 C  
BRANCH  15  16
HETATM   16  C   UNL     1     -12.878  12.486  64.665  1.00  0.00    -0.325 C  
BRANCH  16  17
HETATM   17  C   UNL     1     -12.583  13.781  65.408  1.00  0.00    -0.534 C  
HETATM   18  C   UNL     1     -12.075  13.519  66.805  1.00  0.00    -0.375 C  
HETATM   19  O   UNL     1     -11.914  12.416  67.307  1.00  0.00    -0.516 OA 
HETATM   20  O   UNL     1     -11.808  14.663  67.476  1.00  0.00    -0.380 OA 
ENDBRANCH  16  17
ENDBRANCH  15  16
ENDBRANCH  14  15
ENDBRANCH  13  14
ENDBRANCH  11  12
ENDBRANCH  10  11
ENDBRANCH   8   9
ENDBRANCH   7   8
ENDBRANCH   5   6
ENDBRANCH   4   5
ENDBRANCH   3   4
ENDBRANCH   2   3
TORSDOF 12
ENDMDL
MODEL      168
REMARK 921   NORMALIZED FREE ENERGY PREDICTED BY IDOCK:   -3.85 KCAL/MOL
REMARK 922        TOTAL FREE ENERGY PREDICTED BY IDOCK:   -8.51 KCAL/MOL
REMARK 923 INTER-LIGAND FREE ENERGY PREDICTED BY IDOCK:   -7.12 KCAL/MOL
REMARK 924 INTRA-LIGAND FREE ENERGY PREDICTED BY IDOCK:   -1.39 KCAL/MOL
REMARK 927      BINDING AFFINITY PREDICTED BY RF-SCORE:    0.00 PKD
ROOT
HETATM    1  C   UNL     1      -8.006   4.049  71.721  1.00  0.00    -0.071 C  
HETATM    2  C   UNL     1      -9.449   3.833  71.301  1.00  0.00    -0.229 C  
ENDROOT
BRANCH   2   3
HETATM    3  C   UNL     1     -10.393   4.727  72.096  1.00  0.00    -0.256 C  
BRANCH   3   4
HETATM    4  C   UNL     1      -9.902   6.174  72.109  1.00  0.00    -0.174 C  
BRANCH   4   5
HETATM    5  C   UNL     1     -10.555   6.944  70.969  1.00  0.00    -0.244 C  
BRANCH   5   6
HETATM    6  C   UNL     1     -12.049   6.808  70.938  1.00  0.00    -0.421 C  
HETATM    7  C   UNL     1     -12.866   7.738  71.457  1.00  0.00    -0.357 C  
BRANCH   7   8
HETATM    8  C   UNL     1     -12.393   8.987  72.138  1.00  0.00    -0.442 C  
BRANCH   8   9
HETATM    9  C   UNL     1     -12.921  10.221  71.474  1.00  0.00    -0.556 C  
HETATM   10  C   UNL     1     -12.257  10.936  70.553  1.00  0.00    -0.459 C  
BRANCH  10  11
HETATM   11  C   UNL     1     -10.849  10.671  70.115  1.00  0.00    -0.224 C  
BRANCH  11  12
HETATM   12  C   UNL     1     -10.798   9.673  68.991  1.00  0.00    -0.206 C  
HETATM   13  C   UNL     1     -10.966   9.972  67.693  1.00  0.00    -0.297 C  
BRANCH  13  14
HETATM   14  C   UNL     1     -11.242  11.368  67.224  1.00  0.00    -0.370 C  
BRANCH  14  15
HETATM   15  C   UNL     1     -10.052  12.036  66.548  1.00  0.00    -0.224 C  
BRANCH  15  16
HETATM   16  C   UNL     1     -10.250  11.999  65.032  1.00  0.00    -0.308 C  
BRANCH  16  17
HETATM   17  C   UNL     1     -10.824  13.309  64.513  1.00  0.00    -0.409 C  
HETATM   18  C   UNL     1     -12.068  13.084  63.688  1.00  0.00    -0.531 C  
HETATM   19  O   UNL     1     -12.573  11.998  63.446  1.00  0.00    -0.627 OA 
HETATM   20  O   UNL     1     -12.588  14.243  63.221  1.00  0.00    -0.716 OA 
ENDBRANCH  16  17
ENDBRANCH  15  16
ENDBRANCH  14  15
ENDBRANCH  13  14
ENDBRANCH  11  12
ENDBRANCH  10  11
ENDBRANCH   8   9
ENDBRANCH   7   8
ENDBRANCH   5   6
ENDBRANCH   4   5
ENDBRANCH   3   4
ENDBRANCH   2   3
TORSDOF 12
ENDMDL
MODEL      169
REMARK 921   NORMALIZED FREE ENERGY PREDICTED BY IDOCK:   -3.85 KCAL/MOL
REMARK 922        TOTAL FREE ENERGY PREDICTED BY IDOCK:   -8.51 KCAL/MOL
REMARK 923 INTER-LIGAND FREE ENERGY PREDICTED BY IDOCK:   -6.92 KCAL/MOL
REMARK 924 INTRA-LIGAND FREE ENERGY PREDICTED BY IDOCK:   -1.59 KCAL/MOL
REMARK 927      BINDING AFFINITY PREDICTED BY RF-SCORE:    0.00 PKD
ROOT
HETATM    1  C   UNL     1      -8.626  11.954  67.183  1.00  0.00    -0.172 C  
HETATM    2  C   UNL     1     -10.038  11.400  67.111  1.00  0.00    -0.226 C  
ENDROOT
BRANCH   2   3
HETATM    3  C   UNL     1     -10.035   9.877  67.177  1.00  0.00    -0.252 C  
BRANCH   3   4
HETATM    4  C   UNL     1     -10.803   9.376  68.399  1.00  0.00    -0.156 C  
BRANCH   4   5
HETATM    5  C   UNL     1     -10.054   8.211  69.030  1.00  0.00    -0.211 C  
BRANCH   5   6
HETATM    6  C   UNL     1     -10.727   6.887  68.823  1.00  0.00    -0.255 C  
HETATM    7  C   UNL     1     -11.520   6.331  69.752  1.00  0.00    -0.449 C  
BRANCH   7   8
HETATM    8  C   UNL     1     -11.803   6.943  71.091  1.00  0.00    -0.395 C  
BRANCH   8   9
HETATM    9  C   UNL     1     -13.243   7.329  71.237  1.00  0.00    -0.352 C  
HETATM   10  C   UNL     1     -13.673   8.510  71.705  1.00  0.00    -0.444 C  
BRANCH  10  11
HETATM   11  C   UNL     1     -12.787   9.592  72.244  1.00  0.00    -0.426 C  
BRANCH  11  12
HETATM   12  C   UNL     1     -12.404  10.577  71.175  1.00  0.00    -0.510 C  
HETATM   13  C   UNL     1     -12.772  11.868  71.156  1.00  0.00    -0.384 C  
BRANCH  13  14
HETATM   14  C   UNL     1     -13.638  12.468  72.221  1.00  0.00    -0.443 C  
BRANCH  14  15
HETATM   15  C   UNL     1     -13.649  13.991  72.219  1.00  0.00    -0.622 C  
BRANCH  15  16
HETATM   16  C   UNL     1     -12.333  14.501  71.631  1.00  0.00    -0.420 C  
BRANCH  16  17
HETATM   17  C   UNL     1     -12.575  15.494  70.503  1.00  0.00    -0.462 C  
HETATM   18  C   UNL     1     -11.718  15.187  69.298  1.00  0.00    -0.329 C  
HETATM   19  O   UNL     1     -10.919  14.267  69.211  1.00  0.00    -0.252 OA 
HETATM   20  O   UNL     1     -11.925  16.063  68.287  1.00  0.00    -0.163 OA 
ENDBRANCH  16  17
ENDBRANCH  15  16
ENDBRANCH  14  15
ENDBRANCH  13  14
ENDBRANCH  11  12
ENDBRANCH  10  11
ENDBRANCH   8   9
ENDBRANCH   7   8
ENDBRANCH   5   6
ENDBRANCH   4   5
ENDBRANCH   3   4
ENDBRANCH   2   3
TORSDOF 12
ENDMDL
MODEL      170
REMARK 921   NORMALIZED FREE ENERGY PREDICTED BY IDOCK:   -3.85 KCAL/MOL
REMARK 922        TOTAL FREE ENERGY PREDICTED BY IDOCK:   -8.51 KCAL/MOL
REMARK 923 INTER-LIGAND FREE ENERGY PREDICTED BY IDOCK:   -6.83 KCAL/MOL
REMARK 924 INTRA-LIGAND FREE ENERGY PREDICTED BY IDOCK:   -1.69 KCAL/MOL
REMARK 927      BINDING AFFINITY PREDICTED BY RF-SCORE:    0.00 PKD
ROOT
HETATM    1  C   UNL     1     -10.680   7.658  66.882  1.00  0.00    -0.271 C  
HETATM    2  C   UNL     1      -9.233   7.993  66.566  1.00  0.00    -0.236 C  
ENDROOT
BRANCH   2   3
HETATM    3  C   UNL     1      -9.052   9.489  66.339  1.00  0.00    -0.195 C  
BRANCH   3   4
HETATM    4  C   UNL     1     -10.171  10.288  67.003  1.00  0.00    -0.282 C  
BRANCH   4   5
HETATM    5  C   UNL     1      -9.635  10.976  68.251  1.00  0.00    -0.172 C  
BRANCH   5   6
HETATM    6  C   UNL     1      -9.751  10.137  69.490  1.00  0.00    -0.251 C  
HETATM    7  C   UNL     1     -10.894  10.040  70.187  1.00  0.00    -0.365 C  
BRANCH   7   8
HETATM    8  C   UNL     1     -12.158  10.763  69.833  1.00  0.00    -0.410 C  
BRANCH   8   9
HETATM    9  C   UNL     1     -12.513  11.802  70.852  1.00  0.00    -0.416 C  
HETATM   10  C   UNL     1     -12.249  13.111  70.731  1.00  0.00    -0.375 C  
BRANCH  10  11
HETATM   11  C   UNL     1     -11.474  13.728  69.606  1.00  0.00    -0.300 C  
BRANCH  11  12
HETATM   12  C   UNL     1     -12.193  13.582  68.294  1.00  0.00    -0.148 C  
HETATM   13  C   UNL     1     -11.899  14.268  67.179  1.00  0.00    -0.454 C  
BRANCH  13  14
HETATM   14  C   UNL     1     -10.803  15.289  67.135  1.00  0.00    -0.322 C  
BRANCH  14  15
HETATM   15  C   UNL     1      -9.958  15.229  65.869  1.00  0.00    -0.368 C  
BRANCH  15  16
HETATM   16  C   UNL     1     -10.815  14.701  64.718  1.00  0.00    -0.402 C  
BRANCH  16  17
HETATM   17  C   UNL     1     -10.441  13.272  64.353  1.00  0.00    -0.424 C  
HETATM   18  C   UNL     1     -11.551  12.580  63.600  1.00  0.00    -0.504 C  
HETATM   19  O   UNL     1     -12.629  13.078  63.308  1.00  0.00    -0.696 OA 
HETATM   20  O   UNL     1     -11.229  11.308  63.269  1.00  0.00    -0.238 OA 
ENDBRANCH  16  17
ENDBRANCH  15  16
ENDBRANCH  14  15
ENDBRANCH  13  14
ENDBRANCH  11  12
ENDBRANCH  10  11
ENDBRANCH   8   9
ENDBRANCH   7   8
ENDBRANCH   5   6
ENDBRANCH   4   5
ENDBRANCH   3   4
ENDBRANCH   2   3
TORSDOF 12
ENDMDL
MODEL      171
REMARK 921   NORMALIZED FREE ENERGY PREDICTED BY IDOCK:   -3.84 KCAL/MOL
REMARK 922        TOTAL FREE ENERGY PREDICTED BY IDOCK:   -8.50 KCAL/MOL
REMARK 923 INTER-LIGAND FREE ENERGY PREDICTED BY IDOCK:   -6.46 KCAL/MOL
REMARK 924 INTRA-LIGAND FREE ENERGY PREDICTED BY IDOCK:   -2.03 KCAL/MOL
REMARK 927      BINDING AFFINITY PREDICTED BY RF-SCORE:    0.00 PKD
ROOT
HETATM    1  C   UNL     1     -11.010  11.911  63.506  1.00  0.00    -0.505 C  
HETATM    2  C   UNL     1     -11.819  13.157  63.819  1.00  0.00    -0.546 C  
ENDROOT
BRANCH   2   3
HETATM    3  C   UNL     1     -12.710  12.942  65.037  1.00  0.00    -0.474 C  
BRANCH   3   4
HETATM    4  C   UNL     1     -12.372  13.932  66.150  1.00  0.00    -0.504 C  
BRANCH   4   5
HETATM    5  C   UNL     1     -11.367  13.302  67.104  1.00  0.00    -0.351 C  
BRANCH   5   6
HETATM    6  C   UNL     1     -11.857  12.030  67.731  1.00  0.00    -0.308 C  
HETATM    7  C   UNL     1     -11.173  10.878  67.648  1.00  0.00    -0.379 C  
BRANCH   7   8
HETATM    8  C   UNL     1      -9.876  10.722  66.911  1.00  0.00    -0.224 C  
BRANCH   8   9
HETATM    9  C   UNL     1      -8.708  10.649  67.845  1.00  0.00    -0.127 C  
HETATM   10  C   UNL     1      -7.923  11.687  68.170  1.00  0.00    -0.141 C  
BRANCH  10  11
HETATM   11  C   UNL     1      -8.030  13.059  67.578  1.00  0.00    -0.177 C  
BRANCH  11  12
HETATM   12  C   UNL     1      -6.762  13.844  67.766  1.00  0.00    -0.186 C  
HETATM   13  C   UNL     1      -6.654  14.960  68.503  1.00  0.00    -0.093 C  
BRANCH  13  14
HETATM   14  C   UNL     1      -7.824  15.560  69.221  1.00  0.00    -0.227 C  
BRANCH  14  15
HETATM   15  C   UNL     1      -8.410  16.783  68.527  1.00  0.00    -0.243 C  
BRANCH  15  16
HETATM   16  C   UNL     1      -9.824  16.459  68.047  1.00  0.00    -0.238 C  
BRANCH  16  17
HETATM   17  C   UNL     1     -10.402  17.590  67.208  1.00  0.00    -0.337 C  
HETATM   18  C   UNL     1     -10.415  17.242  65.739  1.00  0.00    -0.229 C  
HETATM   19  O   UNL     1     -10.016  16.194  65.253  1.00  0.00    -0.487 OA 
HETATM   20  O   UNL     1     -10.927  18.240  64.982  1.00  0.00    -0.684 OA 
ENDBRANCH  16  17
ENDBRANCH  15  16
ENDBRANCH  14  15
ENDBRANCH  13  14
ENDBRANCH  11  12
ENDBRANCH  10  11
ENDBRANCH   8   9
ENDBRANCH   7   8
ENDBRANCH   5   6
ENDBRANCH   4   5
ENDBRANCH   3   4
ENDBRANCH   2   3
TORSDOF 12
ENDMDL
MODEL      172
REMARK 921   NORMALIZED FREE ENERGY PREDICTED BY IDOCK:   -3.84 KCAL/MOL
REMARK 922        TOTAL FREE ENERGY PREDICTED BY IDOCK:   -8.49 KCAL/MOL
REMARK 923 INTER-LIGAND FREE ENERGY PREDICTED BY IDOCK:   -5.98 KCAL/MOL
REMARK 924 INTRA-LIGAND FREE ENERGY PREDICTED BY IDOCK:   -2.52 KCAL/MOL
REMARK 927      BINDING AFFINITY PREDICTED BY RF-SCORE:    0.00 PKD
ROOT
HETATM    1  C   UNL     1     -10.195   8.941  71.044  1.00  0.00    -0.322 C  
HETATM    2  C   UNL     1     -10.134  10.174  70.160  1.00  0.00    -0.197 C  
ENDROOT
BRANCH   2   3
HETATM    3  C   UNL     1     -11.525  10.750  69.923  1.00  0.00    -0.398 C  
BRANCH   3   4
HETATM    4  C   UNL     1     -11.720  11.137  68.458  1.00  0.00    -0.368 C  
BRANCH   4   5
HETATM    5  C   UNL     1     -10.435  10.873  67.686  1.00  0.00    -0.244 C  
BRANCH   5   6
HETATM    6  C   UNL     1     -10.628   9.977  66.498  1.00  0.00    -0.165 C  
HETATM    7  C   UNL     1      -9.721   9.886  65.513  1.00  0.00    -0.370 C  
BRANCH   7   8
HETATM    8  C   UNL     1      -8.444  10.671  65.470  1.00  0.00    -0.177 C  
BRANCH   8   9
HETATM    9  C   UNL     1      -7.366  10.030  66.288  1.00  0.00    -0.106 C  
HETATM   10  C   UNL     1      -6.510  10.695  67.078  1.00  0.00    -0.079 C  
BRANCH  10  11
HETATM   11  C   UNL     1      -6.435  12.187  67.195  1.00  0.00    -0.135 C  
BRANCH  11  12
HETATM   12  C   UNL     1      -7.246  12.693  68.356  1.00  0.00    -0.111 C  
HETATM   13  C   UNL     1      -8.246  13.583  68.262  1.00  0.00    -0.157 C  
BRANCH  13  14
HETATM   14  C   UNL     1      -8.657  14.188  66.954  1.00  0.00    -0.157 C  
BRANCH  14  15
HETATM   15  C   UNL     1     -10.152  14.102  66.680  1.00  0.00    -0.275 C  
BRANCH  15  16
HETATM   16  C   UNL     1     -10.409  14.394  65.201  1.00  0.00    -0.447 C  
BRANCH  16  17
HETATM   17  C   UNL     1     -11.027  13.196  64.495  1.00  0.00    -0.392 C  
HETATM   18  C   UNL     1     -12.530  13.181  64.636  1.00  0.00    -0.373 C  
HETATM   19  O   UNL     1     -13.195  14.011  65.239  1.00  0.00    -0.782 OA 
HETATM   20  O   UNL     1     -13.092  12.120  64.011  1.00  0.00    -0.723 OA 
ENDBRANCH  16  17
ENDBRANCH  15  16
ENDBRANCH  14  15
ENDBRANCH  13  14
ENDBRANCH  11  12
ENDBRANCH  10  11
ENDBRANCH   8   9
ENDBRANCH   7   8
ENDBRANCH   5   6
ENDBRANCH   4   5
ENDBRANCH   3   4
ENDBRANCH   2   3
TORSDOF 12
ENDMDL
MODEL      173
REMARK 921   NORMALIZED FREE ENERGY PREDICTED BY IDOCK:   -3.83 KCAL/MOL
REMARK 922        TOTAL FREE ENERGY PREDICTED BY IDOCK:   -8.48 KCAL/MOL
REMARK 923 INTER-LIGAND FREE ENERGY PREDICTED BY IDOCK:   -6.62 KCAL/MOL
REMARK 924 INTRA-LIGAND FREE ENERGY PREDICTED BY IDOCK:   -1.86 KCAL/MOL
REMARK 927      BINDING AFFINITY PREDICTED BY RF-SCORE:    0.00 PKD
ROOT
HETATM    1  C   UNL     1      -6.712   6.870  71.319  1.00  0.00    -0.057 C  
HETATM    2  C   UNL     1      -7.221   8.231  70.877  1.00  0.00    -0.058 C  
ENDROOT
BRANCH   2   3
HETATM    3  C   UNL     1      -8.436   8.655  71.694  1.00  0.00    -0.230 C  
BRANCH   3   4
HETATM    4  C   UNL     1      -8.494   7.908  73.025  1.00  0.00    -0.233 C  
BRANCH   4   5
HETATM    5  C   UNL     1      -9.919   7.439  73.285  1.00  0.00    -0.341 C  
BRANCH   5   6
HETATM    6  C   UNL     1     -10.215   6.086  72.710  1.00  0.00    -0.209 C  
HETATM    7  C   UNL     1     -10.967   5.920  71.611  1.00  0.00    -0.327 C  
BRANCH   7   8
HETATM    8  C   UNL     1     -11.609   7.045  70.855  1.00  0.00    -0.370 C  
BRANCH   8   9
HETATM    9  C   UNL     1     -13.010   7.301  71.315  1.00  0.00    -0.377 C  
HETATM   10  C   UNL     1     -13.417   8.416  71.940  1.00  0.00    -0.385 C  
BRANCH  10  11
HETATM   11  C   UNL     1     -12.518   9.539  72.360  1.00  0.00    -0.196 C  
BRANCH  11  12
HETATM   12  C   UNL     1     -12.987  10.858  71.812  1.00  0.00    -0.557 C  
HETATM   13  C   UNL     1     -12.494  11.449  70.713  1.00  0.00    -0.460 C  
BRANCH  13  14
HETATM   14  C   UNL     1     -11.386  10.842  69.907  1.00  0.00    -0.385 C  
BRANCH  14  15
HETATM   15  C   UNL     1     -10.693  11.826  68.975  1.00  0.00    -0.209 C  
BRANCH  15  16
HETATM   16  C   UNL     1     -11.267  11.672  67.566  1.00  0.00    -0.355 C  
BRANCH  16  17
HETATM   17  C   UNL     1     -12.035  12.914  67.137  1.00  0.00    -0.374 C  
HETATM   18  C   UNL     1     -12.199  12.978  65.638  1.00  0.00    -0.466 C  
HETATM   19  O   UNL     1     -11.776  12.153  64.841  1.00  0.00    -0.346 OA 
HETATM   20  O   UNL     1     -12.881  14.078  65.244  1.00  0.00    -0.686 OA 
ENDBRANCH  16  17
ENDBRANCH  15  16
ENDBRANCH  14  15
ENDBRANCH  13  14
ENDBRANCH  11  12
ENDBRANCH  10  11
ENDBRANCH   8   9
ENDBRANCH   7   8
ENDBRANCH   5   6
ENDBRANCH   4   5
ENDBRANCH   3   4
ENDBRANCH   2   3
TORSDOF 12
ENDMDL
MODEL      174
REMARK 921   NORMALIZED FREE ENERGY PREDICTED BY IDOCK:   -3.83 KCAL/MOL
REMARK 922        TOTAL FREE ENERGY PREDICTED BY IDOCK:   -8.48 KCAL/MOL
REMARK 923 INTER-LIGAND FREE ENERGY PREDICTED BY IDOCK:   -7.65 KCAL/MOL
REMARK 924 INTRA-LIGAND FREE ENERGY PREDICTED BY IDOCK:   -0.82 KCAL/MOL
REMARK 927      BINDING AFFINITY PREDICTED BY RF-SCORE:    0.00 PKD
ROOT
HETATM    1  C   UNL     1      -9.868   7.037  69.296  1.00  0.00    -0.159 C  
HETATM    2  C   UNL     1     -11.050   6.178  69.709  1.00  0.00    -0.486 C  
ENDROOT
BRANCH   2   3
HETATM    3  C   UNL     1     -11.283   6.252  71.214  1.00  0.00    -0.355 C  
BRANCH   3   4
HETATM    4  C   UNL     1     -12.652   6.852  71.531  1.00  0.00    -0.412 C  
BRANCH   4   5
HETATM    5  C   UNL     1     -12.473   8.149  72.308  1.00  0.00    -0.345 C  
BRANCH   5   6
HETATM    6  C   UNL     1     -13.397   9.243  71.862  1.00  0.00    -0.498 C  
HETATM    7  C   UNL     1     -12.991  10.248  71.070  1.00  0.00    -0.488 C  
BRANCH   7   8
HETATM    8  C   UNL     1     -11.587  10.408  70.569  1.00  0.00    -0.433 C  
BRANCH   8   9
HETATM    9  C   UNL     1     -11.551  10.917  69.161  1.00  0.00    -0.389 C  
HETATM   10  C   UNL     1     -11.701  12.203  68.809  1.00  0.00    -0.374 C  
BRANCH  10  11
HETATM   11  C   UNL     1     -12.024  13.318  69.757  1.00  0.00    -0.391 C  
BRANCH  11  12
HETATM   12  C   UNL     1     -11.342  14.597  69.360  1.00  0.00    -0.314 C  
HETATM   13  C   UNL     1     -11.344  15.112  68.120  1.00  0.00    -0.345 C  
BRANCH  13  14
HETATM   14  C   UNL     1     -12.034  14.437  66.975  1.00  0.00    -0.424 C  
BRANCH  14  15
HETATM   15  C   UNL     1     -11.371  14.684  65.626  1.00  0.00    -0.338 C  
BRANCH  15  16
HETATM   16  C   UNL     1     -11.863  13.637  64.626  1.00  0.00    -0.427 C  
BRANCH  16  17
HETATM   17  C   UNL     1     -11.512  12.226  65.077  1.00  0.00    -0.386 C  
HETATM   18  C   UNL     1     -10.448  11.610  64.201  1.00  0.00    -0.351 C  
HETATM   19  O   UNL     1      -9.918  12.150  63.242  1.00  0.00    -0.396 OA 
HETATM   20  O   UNL     1     -10.126  10.356  64.593  1.00  0.00    -0.345 OA 
ENDBRANCH  16  17
ENDBRANCH  15  16
ENDBRANCH  14  15
ENDBRANCH  13  14
ENDBRANCH  11  12
ENDBRANCH  10  11
ENDBRANCH   8   9
ENDBRANCH   7   8
ENDBRANCH   5   6
ENDBRANCH   4   5
ENDBRANCH   3   4
ENDBRANCH   2   3
TORSDOF 12
ENDMDL
MODEL      175
REMARK 921   NORMALIZED FREE ENERGY PREDICTED BY IDOCK:   -3.83 KCAL/MOL
REMARK 922        TOTAL FREE ENERGY PREDICTED BY IDOCK:   -8.48 KCAL/MOL
REMARK 923 INTER-LIGAND FREE ENERGY PREDICTED BY IDOCK:   -6.89 KCAL/MOL
REMARK 924 INTRA-LIGAND FREE ENERGY PREDICTED BY IDOCK:   -1.59 KCAL/MOL
REMARK 927      BINDING AFFINITY PREDICTED BY RF-SCORE:    0.00 PKD
ROOT
HETATM    1  C   UNL     1     -10.266   7.711  72.997  1.00  0.00    -0.379 C  
HETATM    2  C   UNL     1     -11.569   8.248  72.432  1.00  0.00    -0.464 C  
ENDROOT
BRANCH   2   3
HETATM    3  C   UNL     1     -11.369   8.815  71.031  1.00  0.00    -0.332 C  
BRANCH   3   4
HETATM    4  C   UNL     1      -9.986   9.448  70.885  1.00  0.00    -0.353 C  
BRANCH   4   5
HETATM    5  C   UNL     1      -9.589   9.472  69.415  1.00  0.00    -0.186 C  
BRANCH   5   6
HETATM    6  C   UNL     1     -10.424   8.567  68.558  1.00  0.00    -0.205 C  
HETATM    7  C   UNL     1     -10.288   8.513  67.224  1.00  0.00    -0.372 C  
BRANCH   7   8
HETATM    8  C   UNL     1      -9.321   9.352  66.444  1.00  0.00    -0.241 C  
BRANCH   8   9
HETATM    9  C   UNL     1     -10.015  10.216  65.437  1.00  0.00    -0.377 C  
HETATM   10  C   UNL     1     -10.284  11.519  65.604  1.00  0.00    -0.292 C  
BRANCH  10  11
HETATM   11  C   UNL     1     -10.019  12.294  66.859  1.00  0.00    -0.223 C  
BRANCH  11  12
HETATM   12  C   UNL     1     -11.219  12.310  67.763  1.00  0.00    -0.331 C  
HETATM   13  C   UNL     1     -12.013  13.374  67.964  1.00  0.00    -0.357 C  
BRANCH  13  14
HETATM   14  C   UNL     1     -11.764  14.693  67.299  1.00  0.00    -0.406 C  
BRANCH  14  15
HETATM   15  C   UNL     1     -11.065  15.710  68.192  1.00  0.00    -0.330 C  
BRANCH  15  16
HETATM   16  C   UNL     1     -10.101  16.541  67.346  1.00  0.00    -0.279 C  
BRANCH  16  17
HETATM   17  C   UNL     1     -10.103  18.002  67.772  1.00  0.00    -0.359 C  
HETATM   18  C   UNL     1     -10.408  18.920  66.612  1.00  0.00    -0.417 C  
HETATM   19  O   UNL     1     -10.626  18.564  65.463  1.00  0.00    -0.621 OA 
HETATM   20  O   UNL     1     -10.413  20.223  66.979  1.00  0.00    -0.363 OA 
ENDBRANCH  16  17
ENDBRANCH  15  16
ENDBRANCH  14  15
ENDBRANCH  13  14
ENDBRANCH  11  12
ENDBRANCH  10  11
ENDBRANCH   8   9
ENDBRANCH   7   8
ENDBRANCH   5   6
ENDBRANCH   4   5
ENDBRANCH   3   4
ENDBRANCH   2   3
TORSDOF 12
ENDMDL
MODEL      176
REMARK 921   NORMALIZED FREE ENERGY PREDICTED BY IDOCK:   -3.82 KCAL/MOL
REMARK 922        TOTAL FREE ENERGY PREDICTED BY IDOCK:   -8.46 KCAL/MOL
REMARK 923 INTER-LIGAND FREE ENERGY PREDICTED BY IDOCK:   -6.66 KCAL/MOL
REMARK 924 INTRA-LIGAND FREE ENERGY PREDICTED BY IDOCK:   -1.80 KCAL/MOL
REMARK 927      BINDING AFFINITY PREDICTED BY RF-SCORE:    0.00 PKD
ROOT
HETATM    1  C   UNL     1     -12.273  12.211  63.457  1.00  0.00    -0.670 C  
HETATM    2  C   UNL     1     -10.780  12.297  63.718  1.00  0.00    -0.494 C  
ENDROOT
BRANCH   2   3
HETATM    3  C   UNL     1     -10.121  10.928  63.599  1.00  0.00    -0.414 C  
BRANCH   3   4
HETATM    4  C   UNL     1      -9.262  10.620  64.824  1.00  0.00    -0.255 C  
BRANCH   4   5
HETATM    5  C   UNL     1      -9.459  11.707  65.871  1.00  0.00    -0.246 C  
BRANCH   5   6
HETATM    6  C   UNL     1      -9.681  11.168  67.254  1.00  0.00    -0.186 C  
HETATM    7  C   UNL     1     -10.788  11.440  67.962  1.00  0.00    -0.264 C  
BRANCH   7   8
HETATM    8  C   UNL     1     -11.903  12.317  67.475  1.00  0.00    -0.331 C  
BRANCH   8   9
HETATM    9  C   UNL     1     -11.852  13.680  68.092  1.00  0.00    -0.407 C  
HETATM   10  C   UNL     1     -11.588  14.812  67.422  1.00  0.00    -0.377 C  
BRANCH  10  11
HETATM   11  C   UNL     1     -11.208  14.882  65.974  1.00  0.00    -0.327 C  
BRANCH  11  12
HETATM   12  C   UNL     1     -10.487  16.161  65.652  1.00  0.00    -0.402 C  
HETATM   13  C   UNL     1      -9.219  16.433  65.998  1.00  0.00    -0.328 C  
BRANCH  13  14
HETATM   14  C   UNL     1      -8.377  15.467  66.773  1.00  0.00    -0.285 C  
BRANCH  14  15
HETATM   15  C   UNL     1      -7.040  16.041  67.224  1.00  0.00    -0.238 C  
BRANCH  15  16
HETATM   16  C   UNL     1      -7.035  17.550  66.982  1.00  0.00    -0.207 C  
BRANCH  16  17
HETATM   17  C   UNL     1      -6.302  18.290  68.092  1.00  0.00    -0.188 C  
HETATM   18  C   UNL     1      -7.172  19.350  68.724  1.00  0.00    -0.355 C  
HETATM   19  O   UNL     1      -8.323  19.607  68.404  1.00  0.00    -0.335 OA 
HETATM   20  O   UNL     1      -6.531  20.015  69.713  1.00  0.00    -0.349 OA 
ENDBRANCH  16  17
ENDBRANCH  15  16
ENDBRANCH  14  15
ENDBRANCH  13  14
ENDBRANCH  11  12
ENDBRANCH  10  11
ENDBRANCH   8   9
ENDBRANCH   7   8
ENDBRANCH   5   6
ENDBRANCH   4   5
ENDBRANCH   3   4
ENDBRANCH   2   3
TORSDOF 12
ENDMDL
MODEL      177
REMARK 921   NORMALIZED FREE ENERGY PREDICTED BY IDOCK:   -3.82 KCAL/MOL
REMARK 922        TOTAL FREE ENERGY PREDICTED BY IDOCK:   -8.46 KCAL/MOL
REMARK 923 INTER-LIGAND FREE ENERGY PREDICTED BY IDOCK:   -7.31 KCAL/MOL
REMARK 924 INTRA-LIGAND FREE ENERGY PREDICTED BY IDOCK:   -1.15 KCAL/MOL
REMARK 927      BINDING AFFINITY PREDICTED BY RF-SCORE:    0.00 PKD
ROOT
HETATM    1  C   UNL     1     -10.976  15.199  66.814  1.00  0.00    -0.321 C  
HETATM    2  C   UNL     1     -11.837  14.106  66.207  1.00  0.00    -0.427 C  
ENDROOT
BRANCH   2   3
HETATM    3  C   UNL     1     -12.234  14.451  64.776  1.00  0.00    -0.458 C  
BRANCH   3   4
HETATM    4  C   UNL     1     -12.374  13.191  63.923  1.00  0.00    -0.439 C  
BRANCH   4   5
HETATM    5  C   UNL     1     -11.585  12.055  64.559  1.00  0.00    -0.387 C  
BRANCH   5   6
HETATM    6  C   UNL     1     -10.532  11.484  63.656  1.00  0.00    -0.483 C  
HETATM    7  C   UNL     1      -9.593  10.631  64.096  1.00  0.00    -0.353 C  
BRANCH   7   8
HETATM    8  C   UNL     1      -9.472  10.177  65.520  1.00  0.00    -0.286 C  
BRANCH   8   9
HETATM    9  C   UNL     1      -8.900   8.797  65.619  1.00  0.00    -0.239 C  
HETATM   10  C   UNL     1      -9.467   7.781  66.288  1.00  0.00    -0.201 C  
BRANCH  10  11
HETATM   11  C   UNL     1     -10.710   7.891  67.118  1.00  0.00    -0.306 C  
BRANCH  11  12
HETATM   12  C   UNL     1     -10.960   6.636  67.907  1.00  0.00    -0.342 C  
HETATM   13  C   UNL     1     -11.098   6.586  69.241  1.00  0.00    -0.393 C  
BRANCH  13  14
HETATM   14  C   UNL     1     -10.998   7.808  70.102  1.00  0.00    -0.246 C  
BRANCH  14  15
HETATM   15  C   UNL     1     -11.679   7.663  71.456  1.00  0.00    -0.310 C  
BRANCH  15  16
HETATM   16  C   UNL     1     -12.361   8.983  71.818  1.00  0.00    -0.438 C  
BRANCH  16  17
HETATM   17  C   UNL     1     -11.900  10.116  70.914  1.00  0.00    -0.468 C  
HETATM   18  C   UNL     1     -12.577  11.419  71.264  1.00  0.00    -0.374 C  
HETATM   19  O   UNL     1     -13.400  11.575  72.154  1.00  0.00    -0.477 OA 
HETATM   20  O   UNL     1     -12.174  12.435  70.466  1.00  0.00    -0.361 OA 
ENDBRANCH  16  17
ENDBRANCH  15  16
ENDBRANCH  14  15
ENDBRANCH  13  14
ENDBRANCH  11  12
ENDBRANCH  10  11
ENDBRANCH   8   9
ENDBRANCH   7   8
ENDBRANCH   5   6
ENDBRANCH   4   5
ENDBRANCH   3   4
ENDBRANCH   2   3
TORSDOF 12
ENDMDL
MODEL      178
REMARK 921   NORMALIZED FREE ENERGY PREDICTED BY IDOCK:   -3.82 KCAL/MOL
REMARK 922        TOTAL FREE ENERGY PREDICTED BY IDOCK:   -8.45 KCAL/MOL
REMARK 923 INTER-LIGAND FREE ENERGY PREDICTED BY IDOCK:   -6.94 KCAL/MOL
REMARK 924 INTRA-LIGAND FREE ENERGY PREDICTED BY IDOCK:   -1.51 KCAL/MOL
REMARK 927      BINDING AFFINITY PREDICTED BY RF-SCORE:    0.00 PKD
ROOT
HETATM    1  C   UNL     1     -12.384  12.103  63.507  1.00  0.00    -0.682 C  
HETATM    2  C   UNL     1     -11.113  11.494  64.071  1.00  0.00    -0.441 C  
ENDROOT
BRANCH   2   3
HETATM    3  C   UNL     1     -10.139  11.126  62.958  1.00  0.00    -0.311 C  
BRANCH   3   4
HETATM    4  C   UNL     1      -9.280   9.926  63.351  1.00  0.00    -0.278 C  
BRANCH   4   5
HETATM    5  C   UNL     1      -8.944  10.003  64.834  1.00  0.00    -0.241 C  
BRANCH   5   6
HETATM    6  C   UNL     1      -8.961   8.668  65.519  1.00  0.00    -0.209 C  
HETATM    7  C   UNL     1      -9.688   8.436  66.623  1.00  0.00    -0.320 C  
BRANCH   7   8
HETATM    8  C   UNL     1     -10.533   9.470  67.305  1.00  0.00    -0.328 C  
BRANCH   8   9
HETATM    9  C   UNL     1      -9.710  10.596  67.848  1.00  0.00    -0.177 C  
HETATM   10  C   UNL     1     -10.196  11.794  68.206  1.00  0.00    -0.209 C  
BRANCH  10  11
HETATM   11  C   UNL     1     -11.620  12.228  68.031  1.00  0.00    -0.408 C  
BRANCH  11  12
HETATM   12  C   UNL     1     -11.793  13.691  68.329  1.00  0.00    -0.404 C  
HETATM   13  C   UNL     1     -11.891  14.655  67.400  1.00  0.00    -0.374 C  
BRANCH  13  14
HETATM   14  C   UNL     1     -11.821  14.362  65.933  1.00  0.00    -0.371 C  
BRANCH  14  15
HETATM   15  C   UNL     1     -10.568  14.903  65.257  1.00  0.00    -0.421 C  
BRANCH  15  16
HETATM   16  C   UNL     1     -10.055  16.109  66.043  1.00  0.00    -0.372 C  
BRANCH  16  17
HETATM   17  C   UNL     1      -8.575  15.973  66.371  1.00  0.00    -0.369 C  
HETATM   18  C   UNL     1      -7.845  17.284  66.205  1.00  0.00    -0.309 C  
HETATM   19  O   UNL     1      -8.350  18.339  65.851  1.00  0.00    -0.506 OA 
HETATM   20  O   UNL     1      -6.527  17.176  66.495  1.00  0.00    -0.208 OA 
ENDBRANCH  16  17
ENDBRANCH  15  16
ENDBRANCH  14  15
ENDBRANCH  13  14
ENDBRANCH  11  12
ENDBRANCH  10  11
ENDBRANCH   8   9
ENDBRANCH   7   8
ENDBRANCH   5   6
ENDBRANCH   4   5
ENDBRANCH   3   4
ENDBRANCH   2   3
TORSDOF 12
ENDMDL
MODEL      179
REMARK 921   NORMALIZED FREE ENERGY PREDICTED BY IDOCK:   -3.81 KCAL/MOL
REMARK 922        TOTAL FREE ENERGY PREDICTED BY IDOCK:   -8.43 KCAL/MOL
REMARK 923 INTER-LIGAND FREE ENERGY PREDICTED BY IDOCK:   -6.04 KCAL/MOL
REMARK 924 INTRA-LIGAND FREE ENERGY PREDICTED BY IDOCK:   -2.40 KCAL/MOL
REMARK 927      BINDING AFFINITY PREDICTED BY RF-SCORE:    0.00 PKD
ROOT
HETATM    1  C   UNL     1     -10.725  14.317  64.896  1.00  0.00    -0.448 C  
HETATM    2  C   UNL     1     -11.151  15.774  64.850  1.00  0.00    -0.411 C  
ENDROOT
BRANCH   2   3
HETATM    3  C   UNL     1     -10.347  16.614  65.835  1.00  0.00    -0.355 C  
BRANCH   3   4
HETATM    4  C   UNL     1     -10.763  16.323  67.276  1.00  0.00    -0.265 C  
BRANCH   4   5
HETATM    5  C   UNL     1     -10.572  17.573  68.123  1.00  0.00    -0.366 C  
BRANCH   5   6
HETATM    6  C   UNL     1     -10.633  18.845  67.331  1.00  0.00    -0.534 C  
HETATM    7  C   UNL     1      -9.559  19.628  67.143  1.00  0.00    -0.459 C  
BRANCH   7   8
HETATM    8  C   UNL     1      -8.202  19.342  67.713  1.00  0.00    -0.324 C  
BRANCH   8   9
HETATM    9  C   UNL     1      -7.299  18.695  66.710  1.00  0.00    -0.234 C  
HETATM   10  C   UNL     1      -6.827  17.443  66.803  1.00  0.00    -0.247 C  
BRANCH  10  11
HETATM   11  C   UNL     1      -7.049  16.528  67.969  1.00  0.00    -0.152 C  
BRANCH  11  12
HETATM   12  C   UNL     1      -6.146  15.328  67.911  1.00  0.00    -0.169 C  
HETATM   13  C   UNL     1      -6.549  14.079  67.627  1.00  0.00    -0.175 C  
BRANCH  13  14
HETATM   14  C   UNL     1      -7.983  13.747  67.346  1.00  0.00    -0.175 C  
BRANCH  14  15
HETATM   15  C   UNL     1      -8.216  12.285  66.989  1.00  0.00    -0.155 C  
BRANCH  15  16
HETATM   16  C   UNL     1      -9.635  11.889  67.399  1.00  0.00    -0.176 C  
BRANCH  16  17
HETATM   17  C   UNL     1     -10.241  12.902  68.359  1.00  0.00    -0.238 C  
HETATM   18  C   UNL     1     -11.638  12.507  68.776  1.00  0.00    -0.322 C  
HETATM   19  O   UNL     1     -12.234  11.507  68.403  1.00  0.00    -0.540 OA 
HETATM   20  O   UNL     1     -12.188  13.400  69.631  1.00  0.00    -0.291 OA 
ENDBRANCH  16  17
ENDBRANCH  15  16
ENDBRANCH  14  15
ENDBRANCH  13  14
ENDBRANCH  11  12
ENDBRANCH  10  11
ENDBRANCH   8   9
ENDBRANCH   7   8
ENDBRANCH   5   6
ENDBRANCH   4   5
ENDBRANCH   3   4
ENDBRANCH   2   3
TORSDOF 12
ENDMDL
MODEL      180
REMARK 921   NORMALIZED FREE ENERGY PREDICTED BY IDOCK:   -3.80 KCAL/MOL
REMARK 922        TOTAL FREE ENERGY PREDICTED BY IDOCK:   -8.42 KCAL/MOL
REMARK 923 INTER-LIGAND FREE ENERGY PREDICTED BY IDOCK:   -5.70 KCAL/MOL
REMARK 924 INTRA-LIGAND FREE ENERGY PREDICTED BY IDOCK:   -2.72 KCAL/MOL
REMARK 927      BINDING AFFINITY PREDICTED BY RF-SCORE:    0.00 PKD
ROOT
HETATM    1  C   UNL     1     -10.600  12.185  63.458  1.00  0.00    -0.501 C  
HETATM    2  C   UNL     1     -12.036  12.420  63.889  1.00  0.00    -0.587 C  
ENDROOT
BRANCH   2   3
HETATM    3  C   UNL     1     -12.115  13.480  64.982  1.00  0.00    -0.428 C  
BRANCH   3   4
HETATM    4  C   UNL     1     -10.912  14.419  64.928  1.00  0.00    -0.416 C  
BRANCH   4   5
HETATM    5  C   UNL     1     -10.668  15.015  66.307  1.00  0.00    -0.322 C  
BRANCH   5   6
HETATM    6  C   UNL     1      -9.295  15.597  66.471  1.00  0.00    -0.305 C  
HETATM    7  C   UNL     1      -8.295  14.924  67.061  1.00  0.00    -0.246 C  
BRANCH   7   8
HETATM    8  C   UNL     1      -8.435  13.547  67.637  1.00  0.00    -0.184 C  
BRANCH   8   9
HETATM    9  C   UNL     1      -8.251  12.484  66.599  1.00  0.00     0.090 C  
HETATM   10  C   UNL     1      -8.732  11.235  66.691  1.00  0.00    -0.174 C  
BRANCH  10  11
HETATM   11  C   UNL     1      -9.444  10.678  67.886  1.00  0.00    -0.168 C  
BRANCH  11  12
HETATM   12  C   UNL     1     -10.899  10.432  67.597  1.00  0.00    -0.361 C  
HETATM   13  C   UNL     1     -11.893  11.286  67.890  1.00  0.00    -0.209 C  
BRANCH  13  14
HETATM   14  C   UNL     1     -11.644  12.600  68.565  1.00  0.00    -0.363 C  
BRANCH  14  15
HETATM   15  C   UNL     1     -11.710  12.533  70.085  1.00  0.00    -0.255 C  
BRANCH  15  16
HETATM   16  C   UNL     1     -12.438  13.771  70.610  1.00  0.00    -0.429 C  
BRANCH  16  17
HETATM   17  C   UNL     1     -12.196  14.981  69.719  1.00  0.00    -0.324 C  
HETATM   18  C   UNL     1     -11.107  15.869  70.270  1.00  0.00    -0.373 C  
HETATM   19  O   UNL     1     -10.482  15.670  71.301  1.00  0.00     0.158 OA 
HETATM   20  O   UNL     1     -10.882  16.948  69.485  1.00  0.00    -0.303 OA 
ENDBRANCH  16  17
ENDBRANCH  15  16
ENDBRANCH  14  15
ENDBRANCH  13  14
ENDBRANCH  11  12
ENDBRANCH  10  11
ENDBRANCH   8   9
ENDBRANCH   7   8
ENDBRANCH   5   6
ENDBRANCH   4   5
ENDBRANCH   3   4
ENDBRANCH   2   3
TORSDOF 12
ENDMDL
MODEL      181
REMARK 921   NORMALIZED FREE ENERGY PREDICTED BY IDOCK:   -3.80 KCAL/MOL
REMARK 922        TOTAL FREE ENERGY PREDICTED BY IDOCK:   -8.42 KCAL/MOL
REMARK 923 INTER-LIGAND FREE ENERGY PREDICTED BY IDOCK:   -6.99 KCAL/MOL
REMARK 924 INTRA-LIGAND FREE ENERGY PREDICTED BY IDOCK:   -1.43 KCAL/MOL
REMARK 927      BINDING AFFINITY PREDICTED BY RF-SCORE:    0.00 PKD
ROOT
HETATM    1  C   UNL     1     -12.646  11.251  71.198  1.00  0.00    -0.501 C  
HETATM    2  C   UNL     1     -12.568  12.728  70.856  1.00  0.00    -0.342 C  
ENDROOT
BRANCH   2   3
HETATM    3  C   UNL     1     -13.183  13.582  71.958  1.00  0.00    -0.529 C  
BRANCH   3   4
HETATM    4  C   UNL     1     -13.214  15.057  71.563  1.00  0.00    -0.484 C  
BRANCH   4   5
HETATM    5  C   UNL     1     -12.468  15.248  70.249  1.00  0.00    -0.405 C  
BRANCH   5   6
HETATM    6  C   UNL     1     -11.101  15.841  70.420  1.00  0.00    -0.380 C  
HETATM    7  C   UNL     1     -10.505  16.563  69.458  1.00  0.00    -0.298 C  
BRANCH   7   8
HETATM    8  C   UNL     1     -11.111  16.835  68.115  1.00  0.00    -0.254 C  
BRANCH   8   9
HETATM    9  C   UNL     1     -10.358  16.157  67.013  1.00  0.00    -0.290 C  
HETATM   10  C   UNL     1     -10.764  15.046  66.380  1.00  0.00    -0.322 C  
BRANCH  10  11
HETATM   11  C   UNL     1     -11.985  14.255  66.739  1.00  0.00    -0.462 C  
BRANCH  11  12
HETATM   12  C   UNL     1     -12.295  13.214  65.699  1.00  0.00    -0.519 C  
HETATM   13  C   UNL     1     -11.703  12.012  65.619  1.00  0.00    -0.312 C  
BRANCH  13  14
HETATM   14  C   UNL     1     -10.635  11.581  66.576  1.00  0.00    -0.301 C  
BRANCH  14  15
HETATM   15  C   UNL     1     -11.127  10.633  67.661  1.00  0.00    -0.385 C  
BRANCH  15  16
HETATM   16  C   UNL     1      -9.999   9.674  68.040  1.00  0.00    -0.190 C  
BRANCH  16  17
HETATM   17  C   UNL     1     -10.500   8.547  68.931  1.00  0.00    -0.207 C  
HETATM   18  C   UNL     1     -10.780   7.293  68.137  1.00  0.00    -0.134 C  
HETATM   19  O   UNL     1     -10.635   7.169  66.930  1.00  0.00    -0.305 OA 
HETATM   20  O   UNL     1     -11.226   6.282  68.919  1.00  0.00    -0.370 OA 
ENDBRANCH  16  17
ENDBRANCH  15  16
ENDBRANCH  14  15
ENDBRANCH  13  14
ENDBRANCH  11  12
ENDBRANCH  10  11
ENDBRANCH   8   9
ENDBRANCH   7   8
ENDBRANCH   5   6
ENDBRANCH   4   5
ENDBRANCH   3   4
ENDBRANCH   2   3
TORSDOF 12
ENDMDL
MODEL      182
REMARK 921   NORMALIZED FREE ENERGY PREDICTED BY IDOCK:   -3.80 KCAL/MOL
REMARK 922        TOTAL FREE ENERGY PREDICTED BY IDOCK:   -8.42 KCAL/MOL
REMARK 923 INTER-LIGAND FREE ENERGY PREDICTED BY IDOCK:   -6.57 KCAL/MOL
REMARK 924 INTRA-LIGAND FREE ENERGY PREDICTED BY IDOCK:   -1.85 KCAL/MOL
REMARK 927      BINDING AFFINITY PREDICTED BY RF-SCORE:    0.00 PKD
ROOT
HETATM    1  C   UNL     1     -11.707  13.291  67.793  1.00  0.00    -0.398 C  
HETATM    2  C   UNL     1     -11.884  12.453  69.046  1.00  0.00    -0.349 C  
ENDROOT
BRANCH   2   3
HETATM    3  C   UNL     1     -12.130  13.333  70.266  1.00  0.00    -0.405 C  
BRANCH   3   4
HETATM    4  C   UNL     1     -12.790  12.542  71.394  1.00  0.00    -0.359 C  
BRANCH   4   5
HETATM    5  C   UNL     1     -12.588  11.051  71.157  1.00  0.00    -0.522 C  
BRANCH   5   6
HETATM    6  C   UNL     1     -13.626  10.196  71.822  1.00  0.00    -0.304 C  
HETATM    7  C   UNL     1     -13.462   8.876  72.002  1.00  0.00    -0.482 C  
BRANCH   7   8
HETATM    8  C   UNL     1     -12.256   8.110  71.546  1.00  0.00    -0.332 C  
BRANCH   8   9
HETATM    9  C   UNL     1     -11.139   8.181  72.541  1.00  0.00    -0.446 C  
HETATM   10  C   UNL     1      -9.840   8.288  72.223  1.00  0.00    -0.364 C  
BRANCH  10  11
HETATM   11  C   UNL     1      -9.294   8.255  70.828  1.00  0.00    -0.183 C  
BRANCH  11  12
HETATM   12  C   UNL     1      -9.209   9.634  70.235  1.00  0.00    -0.285 C  
HETATM   13  C   UNL     1      -9.403   9.923  68.939  1.00  0.00    -0.170 C  
BRANCH  13  14
HETATM   14  C   UNL     1      -9.720   8.868  67.923  1.00  0.00    -0.190 C  
BRANCH  14  15
HETATM   15  C   UNL     1     -10.784   9.283  66.917  1.00  0.00    -0.164 C  
BRANCH  15  16
HETATM   16  C   UNL     1     -10.304  10.521  66.159  1.00  0.00    -0.276 C  
BRANCH  16  17
HETATM   17  C   UNL     1      -9.681  10.149  64.821  1.00  0.00    -0.389 C  
HETATM   18  C   UNL     1      -9.766  11.287  63.832  1.00  0.00    -0.277 C  
HETATM   19  O   UNL     1     -10.269  12.380  64.048  1.00  0.00    -0.366 OA 
HETATM   20  O   UNL     1      -9.214  10.969  62.638  1.00  0.00    -0.304 OA 
ENDBRANCH  16  17
ENDBRANCH  15  16
ENDBRANCH  14  15
ENDBRANCH  13  14
ENDBRANCH  11  12
ENDBRANCH  10  11
ENDBRANCH   8   9
ENDBRANCH   7   8
ENDBRANCH   5   6
ENDBRANCH   4   5
ENDBRANCH   3   4
ENDBRANCH   2   3
TORSDOF 12
ENDMDL
MODEL      183
REMARK 921   NORMALIZED FREE ENERGY PREDICTED BY IDOCK:   -3.80 KCAL/MOL
REMARK 922        TOTAL FREE ENERGY PREDICTED BY IDOCK:   -8.42 KCAL/MOL
REMARK 923 INTER-LIGAND FREE ENERGY PREDICTED BY IDOCK:   -7.43 KCAL/MOL
REMARK 924 INTRA-LIGAND FREE ENERGY PREDICTED BY IDOCK:   -0.99 KCAL/MOL
REMARK 927      BINDING AFFINITY PREDICTED BY RF-SCORE:    0.00 PKD
ROOT
HETATM    1  C   UNL     1     -10.346  12.039  63.796  1.00  0.00    -0.457 C  
HETATM    2  C   UNL     1     -11.706  12.696  63.639  1.00  0.00    -0.597 C  
ENDROOT
BRANCH   2   3
HETATM    3  C   UNL     1     -12.565  12.486  64.880  1.00  0.00    -0.469 C  
BRANCH   3   4
HETATM    4  C   UNL     1     -12.317  13.583  65.915  1.00  0.00    -0.507 C  
BRANCH   4   5
HETATM    5  C   UNL     1     -11.839  12.957  67.218  1.00  0.00    -0.416 C  
BRANCH   5   6
HETATM    6  C   UNL     1     -11.954  13.876  68.397  1.00  0.00    -0.391 C  
HETATM    7  C   UNL     1     -11.980  13.424  69.661  1.00  0.00    -0.386 C  
BRANCH   7   8
HETATM    8  C   UNL     1     -11.924  11.973  70.035  1.00  0.00    -0.400 C  
BRANCH   8   9
HETATM    9  C   UNL     1     -12.807  11.663  71.204  1.00  0.00    -0.392 C  
HETATM   10  C   UNL     1     -12.903  10.460  71.790  1.00  0.00    -0.561 C  
BRANCH  10  11
HETATM   11  C   UNL     1     -12.218   9.216  71.311  1.00  0.00    -0.395 C  
BRANCH  11  12
HETATM   12  C   UNL     1     -11.923   8.275  72.445  1.00  0.00    -0.447 C  
HETATM   13  C   UNL     1     -11.118   7.204  72.361  1.00  0.00    -0.302 C  
BRANCH  13  14
HETATM   14  C   UNL     1     -10.425   6.823  71.089  1.00  0.00    -0.239 C  
BRANCH  14  15
HETATM   15  C   UNL     1     -10.528   5.341  70.753  1.00  0.00    -0.298 C  
BRANCH  15  16
HETATM   16  C   UNL     1     -10.418   5.160  69.239  1.00  0.00    -0.193 C  
BRANCH  16  17
HETATM   17  C   UNL     1     -10.971   6.366  68.492  1.00  0.00    -0.396 C  
HETATM   18  C   UNL     1      -9.990   6.884  67.469  1.00  0.00    -0.149 C  
HETATM   19  O   UNL     1      -8.882   6.418  67.247  1.00  0.00    -0.110 OA 
HETATM   20  O   UNL     1     -10.471   7.956  66.797  1.00  0.00    -0.327 OA 
ENDBRANCH  16  17
ENDBRANCH  15  16
ENDBRANCH  14  15
ENDBRANCH  13  14
ENDBRANCH  11  12
ENDBRANCH  10  11
ENDBRANCH   8   9
ENDBRANCH   7   8
ENDBRANCH   5   6
ENDBRANCH   4   5
ENDBRANCH   3   4
ENDBRANCH   2   3
TORSDOF 12
ENDMDL
MODEL      184
REMARK 921   NORMALIZED FREE ENERGY PREDICTED BY IDOCK:   -3.79 KCAL/MOL
REMARK 922        TOTAL FREE ENERGY PREDICTED BY IDOCK:   -8.41 KCAL/MOL
REMARK 923 INTER-LIGAND FREE ENERGY PREDICTED BY IDOCK:   -6.49 KCAL/MOL
REMARK 924 INTRA-LIGAND FREE ENERGY PREDICTED BY IDOCK:   -1.92 KCAL/MOL
REMARK 927      BINDING AFFINITY PREDICTED BY RF-SCORE:    0.00 PKD
ROOT
HETATM    1  C   UNL     1     -11.726  10.418  70.727  1.00  0.00    -0.464 C  
HETATM    2  C   UNL     1     -12.902  10.526  71.682  1.00  0.00    -0.581 C  
ENDROOT
BRANCH   2   3
HETATM    3  C   UNL     1     -13.258  11.982  71.953  1.00  0.00    -0.469 C  
BRANCH   3   4
HETATM    4  C   UNL     1     -12.600  12.911  70.934  1.00  0.00    -0.355 C  
BRANCH   4   5
HETATM    5  C   UNL     1     -13.284  14.270  70.965  1.00  0.00    -0.367 C  
BRANCH   5   6
HETATM    6  C   UNL     1     -12.632  15.244  71.901  1.00  0.00    -0.428 C  
HETATM    7  C   UNL     1     -11.711  16.129  71.489  1.00  0.00    -0.533 C  
BRANCH   7   8
HETATM    8  C   UNL     1     -11.215  16.231  70.078  1.00  0.00    -0.324 C  
BRANCH   8   9
HETATM    9  C   UNL     1     -10.042  15.333  69.831  1.00  0.00    -0.204 C  
HETATM   10  C   UNL     1      -9.627  14.935  68.619  1.00  0.00    -0.222 C  
BRANCH  10  11
HETATM   11  C   UNL     1     -10.324  15.247  67.330  1.00  0.00    -0.264 C  
BRANCH  11  12
HETATM   12  C   UNL     1     -11.778  14.870  67.382  1.00  0.00    -0.311 C  
HETATM   13  C   UNL     1     -12.283  13.705  66.947  1.00  0.00    -0.398 C  
BRANCH  13  14
HETATM   14  C   UNL     1     -11.424  12.640  66.335  1.00  0.00    -0.409 C  
BRANCH  14  15
HETATM   15  C   UNL     1     -11.385  11.346  67.136  1.00  0.00    -0.327 C  
BRANCH  15  16
HETATM   16  C   UNL     1     -10.039  10.656  66.909  1.00  0.00    -0.260 C  
BRANCH  16  17
HETATM   17  C   UNL     1      -8.878  11.621  67.101  1.00  0.00    -0.172 C  
HETATM   18  C   UNL     1      -8.176  11.392  68.418  1.00  0.00    -0.151 C  
HETATM   19  O   UNL     1      -8.480  10.547  69.248  1.00  0.00    -0.157 OA 
HETATM   20  O   UNL     1      -7.140  12.244  68.600  1.00  0.00    -0.093 OA 
ENDBRANCH  16  17
ENDBRANCH  15  16
ENDBRANCH  14  15
ENDBRANCH  13  14
ENDBRANCH  11  12
ENDBRANCH  10  11
ENDBRANCH   8   9
ENDBRANCH   7   8
ENDBRANCH   5   6
ENDBRANCH   4   5
ENDBRANCH   3   4
ENDBRANCH   2   3
TORSDOF 12
ENDMDL
MODEL      185
REMARK 921   NORMALIZED FREE ENERGY PREDICTED BY IDOCK:   -3.78 KCAL/MOL
REMARK 922        TOTAL FREE ENERGY PREDICTED BY IDOCK:   -8.39 KCAL/MOL
REMARK 923 INTER-LIGAND FREE ENERGY PREDICTED BY IDOCK:   -6.53 KCAL/MOL
REMARK 924 INTRA-LIGAND FREE ENERGY PREDICTED BY IDOCK:   -1.86 KCAL/MOL
REMARK 927      BINDING AFFINITY PREDICTED BY RF-SCORE:    0.00 PKD
ROOT
HETATM    1  C   UNL     1     -12.080   6.534  71.925  1.00  0.00    -0.388 C  
HETATM    2  C   UNL     1     -12.875   7.784  71.590  1.00  0.00    -0.365 C  
ENDROOT
BRANCH   2   3
HETATM    3  C   UNL     1     -12.050   9.042  71.836  1.00  0.00    -0.448 C  
BRANCH   3   4
HETATM    4  C   UNL     1     -12.541  10.201  70.971  1.00  0.00    -0.478 C  
BRANCH   4   5
HETATM    5  C   UNL     1     -11.381  10.754  70.154  1.00  0.00    -0.390 C  
BRANCH   5   6
HETATM    6  C   UNL     1     -10.757   9.738  69.243  1.00  0.00    -0.246 C  
HETATM    7  C   UNL     1      -9.535   9.903  68.712  1.00  0.00    -0.157 C  
BRANCH   7   8
HETATM    8  C   UNL     1      -8.676  11.110  68.942  1.00  0.00    -0.086 C  
BRANCH   8   9
HETATM    9  C   UNL     1      -8.407  11.855  67.671  1.00  0.00    -0.152 C  
HETATM   10  C   UNL     1      -8.907  13.064  67.374  1.00  0.00    -0.203 C  
BRANCH  10  11
HETATM   11  C   UNL     1      -9.888  13.817  68.221  1.00  0.00    -0.232 C  
BRANCH  11  12
HETATM   12  C   UNL     1     -11.300  13.373  67.959  1.00  0.00    -0.320 C  
HETATM   13  C   UNL     1     -12.064  13.812  66.946  1.00  0.00    -0.454 C  
BRANCH  13  14
HETATM   14  C   UNL     1     -11.576  14.825  65.957  1.00  0.00    -0.286 C  
BRANCH  14  15
HETATM   15  C   UNL     1     -11.892  14.474  64.509  1.00  0.00    -0.459 C  
BRANCH  15  16
HETATM   16  C   UNL     1     -12.185  12.977  64.409  1.00  0.00    -0.471 C  
BRANCH  16  17
HETATM   17  C   UNL     1     -11.190  12.273  63.498  1.00  0.00    -0.535 C  
HETATM   18  C   UNL     1     -10.532  11.103  64.190  1.00  0.00    -0.377 C  
HETATM   19  O   UNL     1     -10.748  10.744  65.338  1.00  0.00    -0.195 OA 
HETATM   20  O   UNL     1      -9.645  10.468  63.389  1.00  0.00    -0.288 OA 
ENDBRANCH  16  17
ENDBRANCH  15  16
ENDBRANCH  14  15
ENDBRANCH  13  14
ENDBRANCH  11  12
ENDBRANCH  10  11
ENDBRANCH   8   9
ENDBRANCH   7   8
ENDBRANCH   5   6
ENDBRANCH   4   5
ENDBRANCH   3   4
ENDBRANCH   2   3
TORSDOF 12
ENDMDL
MODEL      186
REMARK 921   NORMALIZED FREE ENERGY PREDICTED BY IDOCK:   -3.78 KCAL/MOL
REMARK 922        TOTAL FREE ENERGY PREDICTED BY IDOCK:   -8.38 KCAL/MOL
REMARK 923 INTER-LIGAND FREE ENERGY PREDICTED BY IDOCK:   -6.49 KCAL/MOL
REMARK 924 INTRA-LIGAND FREE ENERGY PREDICTED BY IDOCK:   -1.89 KCAL/MOL
REMARK 927      BINDING AFFINITY PREDICTED BY RF-SCORE:    0.00 PKD
ROOT
HETATM    1  C   UNL     1     -12.091  13.949  64.252  1.00  0.00    -0.477 C  
HETATM    2  C   UNL     1     -12.525  12.721  65.032  1.00  0.00    -0.572 C  
ENDROOT
BRANCH   2   3
HETATM    3  C   UNL     1     -11.793  12.631  66.366  1.00  0.00    -0.466 C  
BRANCH   3   4
HETATM    4  C   UNL     1     -10.798  11.471  66.371  1.00  0.00    -0.334 C  
BRANCH   4   5
HETATM    5  C   UNL     1     -11.086  10.559  67.556  1.00  0.00    -0.358 C  
BRANCH   5   6
HETATM    6  C   UNL     1     -11.827  11.241  68.667  1.00  0.00    -0.369 C  
HETATM    7  C   UNL     1     -11.780  10.806  69.936  1.00  0.00    -0.412 C  
BRANCH   7   8
HETATM    8  C   UNL     1     -11.015   9.595  70.381  1.00  0.00    -0.356 C  
BRANCH   8   9
HETATM    9  C   UNL     1     -11.390   9.176  71.769  1.00  0.00    -0.451 C  
HETATM   10  C   UNL     1     -11.872   7.968  72.098  1.00  0.00    -0.401 C  
BRANCH  10  11
HETATM   11  C   UNL     1     -12.202   6.882  71.120  1.00  0.00    -0.428 C  
BRANCH  11  12
HETATM   12  C   UNL     1     -10.999   6.040  70.802  1.00  0.00    -0.364 C  
HETATM   13  C   UNL     1     -10.518   5.825  69.567  1.00  0.00    -0.364 C  
BRANCH  13  14
HETATM   14  C   UNL     1     -11.161   6.410  68.347  1.00  0.00    -0.297 C  
BRANCH  14  15
HETATM   15  C   UNL     1     -10.335   6.247  67.078  1.00  0.00    -0.300 C  
BRANCH  15  16
HETATM   16  C   UNL     1      -8.865   6.515  67.398  1.00  0.00    -0.115 C  
BRANCH  16  17
HETATM   17  C   UNL     1      -8.525   7.992  67.262  1.00  0.00    -0.125 C  
HETATM   18  C   UNL     1      -8.001   8.565  68.557  1.00  0.00    -0.117 C  
HETATM   19  O   UNL     1      -7.860   7.946  69.602  1.00  0.00    -0.101 OA 
HETATM   20  O   UNL     1      -7.694   9.878  68.449  1.00  0.00    -0.083 OA 
ENDBRANCH  16  17
ENDBRANCH  15  16
ENDBRANCH  14  15
ENDBRANCH  13  14
ENDBRANCH  11  12
ENDBRANCH  10  11
ENDBRANCH   8   9
ENDBRANCH   7   8
ENDBRANCH   5   6
ENDBRANCH   4   5
ENDBRANCH   3   4
ENDBRANCH   2   3
TORSDOF 12
ENDMDL
MODEL      187
REMARK 921   NORMALIZED FREE ENERGY PREDICTED BY IDOCK:   -3.76 KCAL/MOL
REMARK 922        TOTAL FREE ENERGY PREDICTED BY IDOCK:   -8.35 KCAL/MOL
REMARK 923 INTER-LIGAND FREE ENERGY PREDICTED BY IDOCK:   -6.92 KCAL/MOL
REMARK 924 INTRA-LIGAND FREE ENERGY PREDICTED BY IDOCK:   -1.43 KCAL/MOL
REMARK 927      BINDING AFFINITY PREDICTED BY RF-SCORE:    0.00 PKD
ROOT
HETATM    1  C   UNL     1     -14.005  13.342  72.392  1.00  0.00    -0.557 C  
HETATM    2  C   UNL     1     -13.305  14.642  72.745  1.00  0.00    -0.593 C  
ENDROOT
BRANCH   2   3
HETATM    3  C   UNL     1     -13.440  15.662  71.621  1.00  0.00    -0.522 C  
BRANCH   3   4
HETATM    4  C   UNL     1     -12.124  15.828  70.864  1.00  0.00    -0.459 C  
BRANCH   4   5
HETATM    5  C   UNL     1     -11.996  14.729  69.818  1.00  0.00    -0.368 C  
BRANCH   5   6
HETATM    6  C   UNL     1     -11.470  15.219  68.501  1.00  0.00    -0.355 C  
HETATM    7  C   UNL     1     -11.599  14.511  67.368  1.00  0.00    -0.406 C  
BRANCH   7   8
HETATM    8  C   UNL     1     -12.249  13.162  67.289  1.00  0.00    -0.234 C  
BRANCH   8   9
HETATM    9  C   UNL     1     -11.253  12.077  67.020  1.00  0.00    -0.377 C  
HETATM   10  C   UNL     1     -10.699  11.298  67.961  1.00  0.00    -0.245 C  
BRANCH  10  11
HETATM   11  C   UNL     1     -10.914  11.454  69.436  1.00  0.00    -0.260 C  
BRANCH  11  12
HETATM   12  C   UNL     1     -12.181  10.780  69.885  1.00  0.00    -0.384 C  
HETATM   13  C   UNL     1     -12.263   9.892  70.888  1.00  0.00    -0.420 C  
BRANCH  13  14
HETATM   14  C   UNL     1     -11.062   9.462  71.673  1.00  0.00    -0.409 C  
BRANCH  14  15
HETATM   15  C   UNL     1     -10.423   8.177  71.164  1.00  0.00    -0.238 C  
BRANCH  15  16
HETATM   16  C   UNL     1     -11.478   7.347  70.432  1.00  0.00    -0.250 C  
BRANCH  16  17
HETATM   17  C   UNL     1     -11.050   5.893  70.299  1.00  0.00    -0.368 C  
HETATM   18  C   UNL     1     -10.411   5.620  68.958  1.00  0.00    -0.243 C  
HETATM   19  O   UNL     1     -10.247   6.443  68.069  1.00  0.00    -0.138 OA 
HETATM   20  O   UNL     1     -10.025   4.330  68.829  1.00  0.00    -0.099 OA 
ENDBRANCH  16  17
ENDBRANCH  15  16
ENDBRANCH  14  15
ENDBRANCH  13  14
ENDBRANCH  11  12
ENDBRANCH  10  11
ENDBRANCH   8   9
ENDBRANCH   7   8
ENDBRANCH   5   6
ENDBRANCH   4   5
ENDBRANCH   3   4
ENDBRANCH   2   3
TORSDOF 12
ENDMDL
MODEL      188
REMARK 921   NORMALIZED FREE ENERGY PREDICTED BY IDOCK:   -3.75 KCAL/MOL
REMARK 922        TOTAL FREE ENERGY PREDICTED BY IDOCK:   -8.34 KCAL/MOL
REMARK 923 INTER-LIGAND FREE ENERGY PREDICTED BY IDOCK:   -7.55 KCAL/MOL
REMARK 924 INTRA-LIGAND FREE ENERGY PREDICTED BY IDOCK:   -0.79 KCAL/MOL
REMARK 927      BINDING AFFINITY PREDICTED BY RF-SCORE:    0.00 PKD
ROOT
HETATM    1  C   UNL     1      -6.270  19.775  69.389  1.00  0.00    -0.355 C  
HETATM    2  C   UNL     1      -7.264  19.042  68.506  1.00  0.00    -0.334 C  
ENDROOT
BRANCH   2   3
HETATM    3  C   UNL     1      -8.241  20.013  67.854  1.00  0.00    -0.292 C  
BRANCH   3   4
HETATM    4  C   UNL     1      -8.561  19.595  66.419  1.00  0.00    -0.390 C  
BRANCH   4   5
HETATM    5  C   UNL     1     -10.046  19.281  66.299  1.00  0.00    -0.519 C  
BRANCH   5   6
HETATM    6  C   UNL     1     -10.621  18.644  67.529  1.00  0.00    -0.472 C  
HETATM    7  C   UNL     1     -10.779  17.317  67.645  1.00  0.00    -0.307 C  
BRANCH   7   8
HETATM    8  C   UNL     1     -10.429  16.332  66.570  1.00  0.00    -0.290 C  
BRANCH   8   9
HETATM    9  C   UNL     1      -9.405  15.341  67.031  1.00  0.00    -0.238 C  
HETATM   10  C   UNL     1      -9.669  14.265  67.787  1.00  0.00    -0.222 C  
BRANCH  10  11
HETATM   11  C   UNL     1     -11.010  13.936  68.369  1.00  0.00    -0.272 C  
BRANCH  11  12
HETATM   12  C   UNL     1     -11.542  12.636  67.834  1.00  0.00    -0.401 C  
HETATM   13  C   UNL     1     -11.823  11.558  68.582  1.00  0.00    -0.382 C  
BRANCH  13  14
HETATM   14  C   UNL     1     -11.615  11.539  70.066  1.00  0.00    -0.364 C  
BRANCH  14  15
HETATM   15  C   UNL     1     -12.742  12.195  70.853  1.00  0.00    -0.280 C  
BRANCH  15  16
HETATM   16  C   UNL     1     -12.340  13.628  71.204  1.00  0.00    -0.403 C  
BRANCH  16  17
HETATM   17  C   UNL     1     -13.277  14.231  72.241  1.00  0.00    -0.508 C  
HETATM   18  C   UNL     1     -12.880  15.644  72.594  1.00  0.00    -0.445 C  
HETATM   19  O   UNL     1     -11.930  16.254  72.125  1.00  0.00    -0.504 OA 
HETATM   20  O   UNL     1     -13.707  16.193  73.515  1.00  0.00    -0.577 OA 
ENDBRANCH  16  17
ENDBRANCH  15  16
ENDBRANCH  14  15
ENDBRANCH  13  14
ENDBRANCH  11  12
ENDBRANCH  10  11
ENDBRANCH   8   9
ENDBRANCH   7   8
ENDBRANCH   5   6
ENDBRANCH   4   5
ENDBRANCH   3   4
ENDBRANCH   2   3
TORSDOF 12
ENDMDL
MODEL      189
REMARK 921   NORMALIZED FREE ENERGY PREDICTED BY IDOCK:   -3.75 KCAL/MOL
REMARK 922        TOTAL FREE ENERGY PREDICTED BY IDOCK:   -8.34 KCAL/MOL
REMARK 923 INTER-LIGAND FREE ENERGY PREDICTED BY IDOCK:   -6.99 KCAL/MOL
REMARK 924 INTRA-LIGAND FREE ENERGY PREDICTED BY IDOCK:   -1.35 KCAL/MOL
REMARK 927      BINDING AFFINITY PREDICTED BY RF-SCORE:    0.00 PKD
ROOT
HETATM    1  C   UNL     1      -6.396  17.535  68.901  1.00  0.00    -0.211 C  
HETATM    2  C   UNL     1      -6.989  18.932  68.949  1.00  0.00    -0.342 C  
ENDROOT
BRANCH   2   3
HETATM    3  C   UNL     1      -6.359  19.833  67.893  1.00  0.00    -0.257 C  
BRANCH   3   4
HETATM    4  C   UNL     1      -7.382  20.814  67.323  1.00  0.00    -0.397 C  
BRANCH   4   5
HETATM    5  C   UNL     1      -8.357  20.069  66.423  1.00  0.00    -0.338 C  
BRANCH   5   6
HETATM    6  C   UNL     1      -9.796  20.315  66.769  1.00  0.00    -0.586 C  
HETATM    7  C   UNL     1     -10.598  19.347  67.239  1.00  0.00    -0.599 C  
BRANCH   7   8
HETATM    8  C   UNL     1     -10.168  17.926  67.446  1.00  0.00    -0.363 C  
BRANCH   8   9
HETATM    9  C   UNL     1     -10.905  17.277  68.576  1.00  0.00    -0.240 C  
HETATM   10  C   UNL     1     -11.159  15.963  68.668  1.00  0.00    -0.337 C  
BRANCH  10  11
HETATM   11  C   UNL     1     -10.832  14.952  67.611  1.00  0.00    -0.286 C  
BRANCH  11  12
HETATM   12  C   UNL     1      -9.842  13.935  68.106  1.00  0.00    -0.240 C  
HETATM   13  C   UNL     1     -10.046  12.608  68.115  1.00  0.00    -0.231 C  
BRANCH  13  14
HETATM   14  C   UNL     1     -11.324  11.994  67.630  1.00  0.00    -0.375 C  
BRANCH  14  15
HETATM   15  C   UNL     1     -11.923  10.979  68.594  1.00  0.00    -0.247 C  
BRANCH  15  16
HETATM   16  C   UNL     1     -11.634  11.419  70.030  1.00  0.00    -0.382 C  
BRANCH  16  17
HETATM   17  C   UNL     1     -12.293  10.492  71.041  1.00  0.00    -0.503 C  
HETATM   18  C   UNL     1     -11.334   9.435  71.535  1.00  0.00    -0.394 C  
HETATM   19  O   UNL     1     -10.169   9.313  71.184  1.00  0.00    -0.287 OA 
HETATM   20  O   UNL     1     -11.908   8.605  72.436  1.00  0.00    -0.372 OA 
ENDBRANCH  16  17
ENDBRANCH  15  16
ENDBRANCH  14  15
ENDBRANCH  13  14
ENDBRANCH  11  12
ENDBRANCH  10  11
ENDBRANCH   8   9
ENDBRANCH   7   8
ENDBRANCH   5   6
ENDBRANCH   4   5
ENDBRANCH   3   4
ENDBRANCH   2   3
TORSDOF 12
ENDMDL
MODEL      190
REMARK 921   NORMALIZED FREE ENERGY PREDICTED BY IDOCK:   -3.75 KCAL/MOL
REMARK 922        TOTAL FREE ENERGY PREDICTED BY IDOCK:   -8.33 KCAL/MOL
REMARK 923 INTER-LIGAND FREE ENERGY PREDICTED BY IDOCK:   -6.30 KCAL/MOL
REMARK 924 INTRA-LIGAND FREE ENERGY PREDICTED BY IDOCK:   -2.03 KCAL/MOL
REMARK 927      BINDING AFFINITY PREDICTED BY RF-SCORE:    0.00 PKD
ROOT
HETATM    1  C   UNL     1     -11.536  12.305  63.697  1.00  0.00    -0.572 C  
HETATM    2  C   UNL     1     -12.597  12.493  64.767  1.00  0.00    -0.493 C  
ENDROOT
BRANCH   2   3
HETATM    3  C   UNL     1     -12.194  13.581  65.754  1.00  0.00    -0.505 C  
BRANCH   3   4
HETATM    4  C   UNL     1     -11.177  13.059  66.767  1.00  0.00    -0.333 C  
BRANCH   4   5
HETATM    5  C   UNL     1     -11.898  12.271  67.853  1.00  0.00    -0.358 C  
BRANCH   5   6
HETATM    6  C   UNL     1     -11.796  12.899  69.211  1.00  0.00    -0.363 C  
HETATM    7  C   UNL     1     -12.157  12.253  70.331  1.00  0.00    -0.385 C  
BRANCH   7   8
HETATM    8  C   UNL     1     -12.718  10.862  70.355  1.00  0.00    -0.326 C  
BRANCH   8   9
HETATM    9  C   UNL     1     -12.273  10.101  71.565  1.00  0.00    -0.473 C  
HETATM   10  C   UNL     1     -11.400   9.083  71.548  1.00  0.00    -0.416 C  
BRANCH  10  11
HETATM   11  C   UNL     1     -10.805   8.485  70.309  1.00  0.00    -0.249 C  
BRANCH  11  12
HETATM   12  C   UNL     1      -9.676   9.323  69.778  1.00  0.00    -0.202 C  
HETATM   13  C   UNL     1      -9.461   9.584  68.479  1.00  0.00    -0.146 C  
BRANCH  13  14
HETATM   14  C   UNL     1     -10.343   9.038  67.398  1.00  0.00    -0.335 C  
BRANCH  14  15
HETATM   15  C   UNL     1     -10.035   9.594  66.014  1.00  0.00    -0.344 C  
BRANCH  15  16
HETATM   16  C   UNL     1      -8.958   8.731  65.355  1.00  0.00    -0.211 C  
BRANCH  16  17
HETATM   17  C   UNL     1      -8.604   9.245  63.967  1.00  0.00    -0.204 C  
HETATM   18  C   UNL     1      -7.300  10.005  63.970  1.00  0.00    -0.132 C  
HETATM   19  O   UNL     1      -6.596  10.203  64.950  1.00  0.00    -0.121 OA 
HETATM   20  O   UNL     1      -6.974  10.467  62.741  1.00  0.00    -0.137 OA 
ENDBRANCH  16  17
ENDBRANCH  15  16
ENDBRANCH  14  15
ENDBRANCH  13  14
ENDBRANCH  11  12
ENDBRANCH  10  11
ENDBRANCH   8   9
ENDBRANCH   7   8
ENDBRANCH   5   6
ENDBRANCH   4   5
ENDBRANCH   3   4
ENDBRANCH   2   3
TORSDOF 12
ENDMDL
MODEL      191
REMARK 921   NORMALIZED FREE ENERGY PREDICTED BY IDOCK:   -3.75 KCAL/MOL
REMARK 922        TOTAL FREE ENERGY PREDICTED BY IDOCK:   -8.33 KCAL/MOL
REMARK 923 INTER-LIGAND FREE ENERGY PREDICTED BY IDOCK:   -6.42 KCAL/MOL
REMARK 924 INTRA-LIGAND FREE ENERGY PREDICTED BY IDOCK:   -1.91 KCAL/MOL
REMARK 927      BINDING AFFINITY PREDICTED BY RF-SCORE:    0.00 PKD
ROOT
HETATM    1  C   UNL     1      -9.731  10.211  64.484  1.00  0.00    -0.361 C  
HETATM    2  C   UNL     1      -9.403   9.170  65.539  1.00  0.00    -0.287 C  
ENDROOT
BRANCH   2   3
HETATM    3  C   UNL     1      -9.178   9.819  66.900  1.00  0.00    -0.174 C  
BRANCH   3   4
HETATM    4  C   UNL     1      -9.145  11.342  66.786  1.00  0.00    -0.181 C  
BRANCH   4   5
HETATM    5  C   UNL     1      -9.293  11.960  68.169  1.00  0.00    -0.191 C  
BRANCH   5   6
HETATM    6  C   UNL     1     -10.706  11.958  68.675  1.00  0.00    -0.266 C  
HETATM    7  C   UNL     1     -11.756  12.188  67.872  1.00  0.00    -0.403 C  
BRANCH   7   8
HETATM    8  C   UNL     1     -11.645  12.494  66.409  1.00  0.00    -0.449 C  
BRANCH   8   9
HETATM    9  C   UNL     1     -12.226  13.833  66.071  1.00  0.00    -0.495 C  
HETATM   10  C   UNL     1     -11.516  14.887  65.640  1.00  0.00    -0.290 C  
BRANCH  10  11
HETATM   11  C   UNL     1     -10.023  14.922  65.520  1.00  0.00    -0.392 C  
BRANCH  11  12
HETATM   12  C   UNL     1      -9.456  16.213  66.042  1.00  0.00    -0.374 C  
HETATM   13  C   UNL     1      -8.979  16.392  67.283  1.00  0.00    -0.208 C  
BRANCH  13  14
HETATM   14  C   UNL     1      -8.976  15.297  68.305  1.00  0.00    -0.176 C  
BRANCH  14  15
HETATM   15  C   UNL     1      -9.685  15.664  69.602  1.00  0.00    -0.276 C  
BRANCH  15  16
HETATM   16  C   UNL     1     -10.997  16.376  69.273  1.00  0.00    -0.322 C  
BRANCH  16  17
HETATM   17  C   UNL     1     -12.194  15.456  69.463  1.00  0.00    -0.277 C  
HETATM   18  C   UNL     1     -12.714  15.504  70.879  1.00  0.00    -0.468 C  
HETATM   19  O   UNL     1     -12.251  16.184  71.783  1.00  0.00    -0.469 OA 
HETATM   20  O   UNL     1     -13.780  14.690  71.060  1.00  0.00    -0.357 OA 
ENDBRANCH  16  17
ENDBRANCH  15  16
ENDBRANCH  14  15
ENDBRANCH  13  14
ENDBRANCH  11  12
ENDBRANCH  10  11
ENDBRANCH   8   9
ENDBRANCH   7   8
ENDBRANCH   5   6
ENDBRANCH   4   5
ENDBRANCH   3   4
ENDBRANCH   2   3
TORSDOF 12
ENDMDL
MODEL      192
REMARK 921   NORMALIZED FREE ENERGY PREDICTED BY IDOCK:   -3.74 KCAL/MOL
REMARK 922        TOTAL FREE ENERGY PREDICTED BY IDOCK:   -8.32 KCAL/MOL
REMARK 923 INTER-LIGAND FREE ENERGY PREDICTED BY IDOCK:   -6.84 KCAL/MOL
REMARK 924 INTRA-LIGAND FREE ENERGY PREDICTED BY IDOCK:   -1.49 KCAL/MOL
REMARK 927      BINDING AFFINITY PREDICTED BY RF-SCORE:    0.00 PKD
ROOT
HETATM    1  C   UNL     1     -12.703   7.239  71.467  1.00  0.00    -0.422 C  
HETATM    2  C   UNL     1     -12.867   8.693  71.874  1.00  0.00    -0.411 C  
ENDROOT
BRANCH   2   3
HETATM    3  C   UNL     1     -11.741   9.551  71.310  1.00  0.00    -0.444 C  
BRANCH   3   4
HETATM    4  C   UNL     1     -12.287  10.819  70.657  1.00  0.00    -0.465 C  
BRANCH   4   5
HETATM    5  C   UNL     1     -11.414  11.198  69.469  1.00  0.00    -0.374 C  
BRANCH   5   6
HETATM    6  C   UNL     1     -11.928  12.382  68.705  1.00  0.00    -0.272 C  
HETATM    7  C   UNL     1     -11.338  12.825  67.583  1.00  0.00    -0.359 C  
BRANCH   7   8
HETATM    8  C   UNL     1     -10.104  12.218  66.987  1.00  0.00    -0.225 C  
BRANCH   8   9
HETATM    9  C   UNL     1     -10.433  11.179  65.960  1.00  0.00    -0.312 C  
HETATM   10  C   UNL     1     -10.632  11.429  64.657  1.00  0.00    -0.380 C  
BRANCH  10  11
HETATM   11  C   UNL     1     -10.653  12.795  64.041  1.00  0.00    -0.446 C  
BRANCH  11  12
HETATM   12  C   UNL     1     -11.981  13.471  64.239  1.00  0.00    -0.479 C  
HETATM   13  C   UNL     1     -12.143  14.774  64.516  1.00  0.00    -0.460 C  
BRANCH  13  14
HETATM   14  C   UNL     1     -10.982  15.708  64.673  1.00  0.00    -0.344 C  
BRANCH  14  15
HETATM   15  C   UNL     1     -10.660  16.050  66.122  1.00  0.00    -0.302 C  
BRANCH  15  16
HETATM   16  C   UNL     1      -9.169  15.822  66.371  1.00  0.00    -0.347 C  
BRANCH  16  17
HETATM   17  C   UNL     1      -8.380  17.119  66.260  1.00  0.00    -0.298 C  
HETATM   18  C   UNL     1      -7.385  17.264  67.387  1.00  0.00    -0.163 C  
HETATM   19  O   UNL     1      -7.214  16.460  68.291  1.00  0.00    -0.142 OA 
HETATM   20  O   UNL     1      -6.676  18.413  67.298  1.00  0.00    -0.193 OA 
ENDBRANCH  16  17
ENDBRANCH  15  16
ENDBRANCH  14  15
ENDBRANCH  13  14
ENDBRANCH  11  12
ENDBRANCH  10  11
ENDBRANCH   8   9
ENDBRANCH   7   8
ENDBRANCH   5   6
ENDBRANCH   4   5
ENDBRANCH   3   4
ENDBRANCH   2   3
TORSDOF 12
ENDMDL
MODEL      193
REMARK 921   NORMALIZED FREE ENERGY PREDICTED BY IDOCK:   -3.74 KCAL/MOL
REMARK 922        TOTAL FREE ENERGY PREDICTED BY IDOCK:   -8.32 KCAL/MOL
REMARK 923 INTER-LIGAND FREE ENERGY PREDICTED BY IDOCK:   -6.85 KCAL/MOL
REMARK 924 INTRA-LIGAND FREE ENERGY PREDICTED BY IDOCK:   -1.46 KCAL/MOL
REMARK 927      BINDING AFFINITY PREDICTED BY RF-SCORE:    0.00 PKD
ROOT
HETATM    1  C   UNL     1      -8.139   4.076  71.936  1.00  0.00    -0.084 C  
HETATM    2  C   UNL     1      -8.800   4.795  70.774  1.00  0.00    -0.153 C  
ENDROOT
BRANCH   2   3
HETATM    3  C   UNL     1     -10.278   5.042  71.050  1.00  0.00    -0.283 C  
BRANCH   3   4
HETATM    4  C   UNL     1     -10.894   5.949  69.985  1.00  0.00    -0.421 C  
BRANCH   4   5
HETATM    5  C   UNL     1     -11.896   6.892  70.637  1.00  0.00    -0.418 C  
BRANCH   5   6
HETATM    6  C   UNL     1     -11.632   7.128  72.094  1.00  0.00    -0.317 C  
HETATM    7  C   UNL     1     -10.935   8.186  72.536  1.00  0.00    -0.439 C  
BRANCH   7   8
HETATM    8  C   UNL     1     -10.329   9.226  71.642  1.00  0.00    -0.300 C  
BRANCH   8   9
HETATM    9  C   UNL     1      -8.919   8.887  71.266  1.00  0.00    -0.312 C  
HETATM   10  C   UNL     1      -8.262   9.405  70.217  1.00  0.00    -0.194 C  
BRANCH  10  11
HETATM   11  C   UNL     1      -8.864  10.329  69.202  1.00  0.00    -0.182 C  
BRANCH  11  12
HETATM   12  C   UNL     1      -9.363   9.578  67.999  1.00  0.00    -0.143 C  
HETATM   13  C   UNL     1     -10.342  10.002  67.184  1.00  0.00    -0.300 C  
BRANCH  13  14
HETATM   14  C   UNL     1     -11.064  11.296  67.407  1.00  0.00    -0.358 C  
BRANCH  14  15
HETATM   15  C   UNL     1     -10.928  12.282  66.254  1.00  0.00    -0.327 C  
BRANCH  15  16
HETATM   16  C   UNL     1     -12.030  13.336  66.364  1.00  0.00    -0.465 C  
BRANCH  16  17
HETATM   17  C   UNL     1     -11.597  14.661  65.755  1.00  0.00    -0.328 C  
HETATM   18  C   UNL     1     -12.072  14.800  64.328  1.00  0.00    -0.394 C  
HETATM   19  O   UNL     1     -12.722  13.968  63.712  1.00  0.00    -0.734 OA 
HETATM   20  O   UNL     1     -11.693  15.976  63.775  1.00  0.00    -0.700 OA 
ENDBRANCH  16  17
ENDBRANCH  15  16
ENDBRANCH  14  15
ENDBRANCH  13  14
ENDBRANCH  11  12
ENDBRANCH  10  11
ENDBRANCH   8   9
ENDBRANCH   7   8
ENDBRANCH   5   6
ENDBRANCH   4   5
ENDBRANCH   3   4
ENDBRANCH   2   3
TORSDOF 12
ENDMDL
MODEL      194
REMARK 921   NORMALIZED FREE ENERGY PREDICTED BY IDOCK:   -3.73 KCAL/MOL
REMARK 922        TOTAL FREE ENERGY PREDICTED BY IDOCK:   -8.31 KCAL/MOL
REMARK 923 INTER-LIGAND FREE ENERGY PREDICTED BY IDOCK:   -6.37 KCAL/MOL
REMARK 924 INTRA-LIGAND FREE ENERGY PREDICTED BY IDOCK:   -1.94 KCAL/MOL
REMARK 927      BINDING AFFINITY PREDICTED BY RF-SCORE:    0.00 PKD
ROOT
HETATM    1  C   UNL     1     -10.164   9.240  66.079  1.00  0.00    -0.156 C  
HETATM    2  C   UNL     1      -8.673   9.377  66.330  1.00  0.00    -0.157 C  
ENDROOT
BRANCH   2   3
HETATM    3  C   UNL     1      -8.290  10.830  66.586  1.00  0.00    -0.141 C  
BRANCH   3   4
HETATM    4  C   UNL     1      -9.517  11.670  66.939  1.00  0.00    -0.195 C  
BRANCH   4   5
HETATM    5  C   UNL     1      -9.462  12.058  68.410  1.00  0.00    -0.181 C  
BRANCH   5   6
HETATM    6  C   UNL     1     -10.148  11.074  69.312  1.00  0.00    -0.121 C  
HETATM    7  C   UNL     1     -11.419  11.232  69.712  1.00  0.00    -0.386 C  
BRANCH   7   8
HETATM    8  C   UNL     1     -12.281  12.399  69.334  1.00  0.00    -0.121 C  
BRANCH   8   9
HETATM    9  C   UNL     1     -12.170  13.519  70.322  1.00  0.00    -0.417 C  
HETATM   10  C   UNL     1     -12.002  14.810  69.997  1.00  0.00    -0.369 C  
BRANCH  10  11
HETATM   11  C   UNL     1     -11.803  15.323  68.603  1.00  0.00    -0.329 C  
BRANCH  11  12
HETATM   12  C   UNL     1     -11.053  16.626  68.596  1.00  0.00    -0.294 C  
HETATM   13  C   UNL     1      -9.725  16.744  68.439  1.00  0.00    -0.247 C  
BRANCH  13  14
HETATM   14  C   UNL     1      -8.832  15.554  68.266  1.00  0.00    -0.179 C  
BRANCH  14  15
HETATM   15  C   UNL     1      -8.477  15.257  66.815  1.00  0.00    -0.290 C  
BRANCH  15  16
HETATM   16  C   UNL     1      -9.466  15.979  65.899  1.00  0.00    -0.351 C  
BRANCH  16  17
HETATM   17  C   UNL     1     -10.463  15.010  65.280  1.00  0.00    -0.428 C  
HETATM   18  C   UNL     1     -11.526  15.734  64.489  1.00  0.00    -0.289 C  
HETATM   19  O   UNL     1     -11.605  16.945  64.348  1.00  0.00    -0.916 OA 
HETATM   20  O   UNL     1     -12.418  14.882  63.932  1.00  0.00    -0.806 OA 
ENDBRANCH  16  17
ENDBRANCH  15  16
ENDBRANCH  14  15
ENDBRANCH  13  14
ENDBRANCH  11  12
ENDBRANCH  10  11
ENDBRANCH   8   9
ENDBRANCH   7   8
ENDBRANCH   5   6
ENDBRANCH   4   5
ENDBRANCH   3   4
ENDBRANCH   2   3
TORSDOF 12
ENDMDL
MODEL      195
REMARK 921   NORMALIZED FREE ENERGY PREDICTED BY IDOCK:   -3.73 KCAL/MOL
REMARK 922        TOTAL FREE ENERGY PREDICTED BY IDOCK:   -8.30 KCAL/MOL
REMARK 923 INTER-LIGAND FREE ENERGY PREDICTED BY IDOCK:   -6.72 KCAL/MOL
REMARK 924 INTRA-LIGAND FREE ENERGY PREDICTED BY IDOCK:   -1.58 KCAL/MOL
REMARK 927      BINDING AFFINITY PREDICTED BY RF-SCORE:    0.00 PKD
ROOT
HETATM    1  C   UNL     1     -13.151  10.400  70.823  1.00  0.00    -0.362 C  
HETATM    2  C   UNL     1     -12.610  11.818  70.864  1.00  0.00    -0.384 C  
ENDROOT
BRANCH   2   3
HETATM    3  C   UNL     1     -13.212  12.602  72.024  1.00  0.00    -0.531 C  
BRANCH   3   4
HETATM    4  C   UNL     1     -12.931  14.098  71.884  1.00  0.00    -0.441 C  
BRANCH   4   5
HETATM    5  C   UNL     1     -12.074  14.342  70.650  1.00  0.00    -0.417 C  
BRANCH   5   6
HETATM    6  C   UNL     1     -11.478  15.718  70.602  1.00  0.00    -0.415 C  
HETATM    7  C   UNL     1     -10.400  16.008  69.856  1.00  0.00    -0.249 C  
BRANCH   7   8
HETATM    8  C   UNL     1      -9.663  15.007  69.018  1.00  0.00    -0.229 C  
BRANCH   8   9
HETATM    9  C   UNL     1      -8.384  14.571  69.663  1.00  0.00     0.362 C  
HETATM   10  C   UNL     1      -7.181  15.109  69.414  1.00  0.00    -0.198 C  
BRANCH  10  11
HETATM   11  C   UNL     1      -6.911  16.163  68.383  1.00  0.00    -0.129 C  
BRANCH  11  12
HETATM   12  C   UNL     1      -7.114  17.545  68.938  1.00  0.00    -0.253 C  
HETATM   13  C   UNL     1      -7.590  18.588  68.241  1.00  0.00    -0.305 C  
BRANCH  13  14
HETATM   14  C   UNL     1      -7.965  18.479  66.795  1.00  0.00    -0.265 C  
BRANCH  14  15
HETATM   15  C   UNL     1      -9.268  19.183  66.442  1.00  0.00    -0.369 C  
BRANCH  15  16
HETATM   16  C   UNL     1     -10.438  18.236  66.709  1.00  0.00    -0.387 C  
BRANCH  16  17
HETATM   17  C   UNL     1     -10.071  16.793  66.394  1.00  0.00    -0.327 C  
HETATM   18  C   UNL     1     -10.677  16.336  65.089  1.00  0.00    -0.331 C  
HETATM   19  O   UNL     1     -11.382  17.015  64.357  1.00  0.00    -1.140 OA 
HETATM   20  O   UNL     1     -10.357  15.054  64.797  1.00  0.00    -0.349 OA 
ENDBRANCH  16  17
ENDBRANCH  15  16
ENDBRANCH  14  15
ENDBRANCH  13  14
ENDBRANCH  11  12
ENDBRANCH  10  11
ENDBRANCH   8   9
ENDBRANCH   7   8
ENDBRANCH   5   6
ENDBRANCH   4   5
ENDBRANCH   3   4
ENDBRANCH   2   3
TORSDOF 12
ENDMDL
MODEL      196
REMARK 921   NORMALIZED FREE ENERGY PREDICTED BY IDOCK:   -3.72 KCAL/MOL
REMARK 922        TOTAL FREE ENERGY PREDICTED BY IDOCK:   -8.29 KCAL/MOL
REMARK 923 INTER-LIGAND FREE ENERGY PREDICTED BY IDOCK:   -6.86 KCAL/MOL
REMARK 924 INTRA-LIGAND FREE ENERGY PREDICTED BY IDOCK:   -1.43 KCAL/MOL
REMARK 927      BINDING AFFINITY PREDICTED BY RF-SCORE:    0.00 PKD
ROOT
HETATM    1  C   UNL     1     -10.848  11.516  63.513  1.00  0.00    -0.473 C  
HETATM    2  C   UNL     1     -12.291  11.979  63.426  1.00  0.00    -0.635 C  
ENDROOT
BRANCH   2   3
HETATM    3  C   UNL     1     -12.755  12.583  64.746  1.00  0.00    -0.415 C  
BRANCH   3   4
HETATM    4  C   UNL     1     -12.494  14.088  64.786  1.00  0.00    -0.392 C  
BRANCH   4   5
HETATM    5  C   UNL     1     -11.619  14.421  65.987  1.00  0.00    -0.364 C  
BRANCH   5   6
HETATM    6  C   UNL     1     -10.307  15.046  65.613  1.00  0.00    -0.374 C  
HETATM    7  C   UNL     1      -9.169  14.778  66.272  1.00  0.00    -0.278 C  
BRANCH   7   8
HETATM    8  C   UNL     1      -9.080  13.860  67.454  1.00  0.00    -0.217 C  
BRANCH   8   9
HETATM    9  C   UNL     1      -7.661  13.522  67.794  1.00  0.00    -0.163 C  
HETATM   10  C   UNL     1      -6.928  14.153  68.725  1.00  0.00    -0.104 C  
BRANCH  10  11
HETATM   11  C   UNL     1      -7.379  15.353  69.501  1.00  0.00    -0.209 C  
BRANCH  11  12
HETATM   12  C   UNL     1      -6.407  16.492  69.372  1.00  0.00    -0.205 C  
HETATM   13  C   UNL     1      -6.677  17.666  68.780  1.00  0.00    -0.230 C  
BRANCH  13  14
HETATM   14  C   UNL     1      -8.009  17.960  68.159  1.00  0.00    -0.265 C  
BRANCH  14  15
HETATM   15  C   UNL     1      -8.626  19.273  68.621  1.00  0.00    -0.401 C  
BRANCH  15  16
HETATM   16  C   UNL     1     -10.015  19.420  67.999  1.00  0.00    -0.488 C  
BRANCH  16  17
HETATM   17  C   UNL     1     -10.327  18.270  67.052  1.00  0.00    -0.408 C  
HETATM   18  C   UNL     1     -10.866  18.767  65.732  1.00  0.00    -0.082 C  
HETATM   19  O   UNL     1     -11.044  19.939  65.433  1.00  0.00    -0.338 OA 
HETATM   20  O   UNL     1     -11.147  17.754  64.880  1.00  0.00    -0.821 OA 
ENDBRANCH  16  17
ENDBRANCH  15  16
ENDBRANCH  14  15
ENDBRANCH  13  14
ENDBRANCH  11  12
ENDBRANCH  10  11
ENDBRANCH   8   9
ENDBRANCH   7   8
ENDBRANCH   5   6
ENDBRANCH   4   5
ENDBRANCH   3   4
ENDBRANCH   2   3
TORSDOF 12
ENDMDL
MODEL      197
REMARK 921   NORMALIZED FREE ENERGY PREDICTED BY IDOCK:   -3.71 KCAL/MOL
REMARK 922        TOTAL FREE ENERGY PREDICTED BY IDOCK:   -8.26 KCAL/MOL
REMARK 923 INTER-LIGAND FREE ENERGY PREDICTED BY IDOCK:   -6.13 KCAL/MOL
REMARK 924 INTRA-LIGAND FREE ENERGY PREDICTED BY IDOCK:   -2.13 KCAL/MOL
REMARK 927      BINDING AFFINITY PREDICTED BY RF-SCORE:    0.00 PKD
ROOT
HETATM    1  C   UNL     1     -11.784  10.901  68.998  1.00  0.00    -0.391 C  
HETATM    2  C   UNL     1     -10.929  10.511  67.805  1.00  0.00    -0.372 C  
ENDROOT
BRANCH   2   3
HETATM    3  C   UNL     1     -10.279   9.149  68.016  1.00  0.00    -0.258 C  
BRANCH   3   4
HETATM    4  C   UNL     1      -8.775   9.208  67.758  1.00  0.00    -0.121 C  
BRANCH   4   5
HETATM    5  C   UNL     1      -8.431  10.509  67.046  1.00  0.00    -0.128 C  
BRANCH   5   6
HETATM    6  C   UNL     1      -7.389  10.347  65.979  1.00  0.00    -0.134 C  
HETATM    7  C   UNL     1      -7.691   9.948  64.734  1.00  0.00    -0.138 C  
BRANCH   7   8
HETATM    8  C   UNL     1      -9.075   9.599  64.276  1.00  0.00    -0.267 C  
BRANCH   8   9
HETATM    9  C   UNL     1      -9.526  10.470  63.144  1.00  0.00    -0.367 C  
HETATM   10  C   UNL     1     -10.140  11.654  63.290  1.00  0.00    -0.454 C  
BRANCH  10  11
HETATM   11  C   UNL     1     -10.557  12.247  64.601  1.00  0.00    -0.338 C  
BRANCH  11  12
HETATM   12  C   UNL     1     -12.052  12.351  64.711  1.00  0.00    -0.483 C  
HETATM   13  C   UNL     1     -12.707  13.336  65.346  1.00  0.00    -0.460 C  
BRANCH  13  14
HETATM   14  C   UNL     1     -11.990  14.455  66.039  1.00  0.00    -0.377 C  
BRANCH  14  15
HETATM   15  C   UNL     1     -11.674  14.169  67.501  1.00  0.00    -0.418 C  
BRANCH  15  16
HETATM   16  C   UNL     1     -10.378  14.886  67.884  1.00  0.00    -0.237 C  
BRANCH  16  17
HETATM   17  C   UNL     1     -10.570  16.394  67.936  1.00  0.00    -0.320 C  
HETATM   18  C   UNL     1      -9.707  17.101  66.919  1.00  0.00    -0.268 C  
HETATM   19  O   UNL     1      -8.938  16.558  66.139  1.00  0.00    -0.301 OA 
HETATM   20  O   UNL     1      -9.869  18.444  66.955  1.00  0.00    -0.301 OA 
ENDBRANCH  16  17
ENDBRANCH  15  16
ENDBRANCH  14  15
ENDBRANCH  13  14
ENDBRANCH  11  12
ENDBRANCH  10  11
ENDBRANCH   8   9
ENDBRANCH   7   8
ENDBRANCH   5   6
ENDBRANCH   4   5
ENDBRANCH   3   4
ENDBRANCH   2   3
TORSDOF 12
ENDMDL
MODEL      198
REMARK 921   NORMALIZED FREE ENERGY PREDICTED BY IDOCK:   -3.70 KCAL/MOL
REMARK 922        TOTAL FREE ENERGY PREDICTED BY IDOCK:   -8.26 KCAL/MOL
REMARK 923 INTER-LIGAND FREE ENERGY PREDICTED BY IDOCK:   -6.08 KCAL/MOL
REMARK 924 INTRA-LIGAND FREE ENERGY PREDICTED BY IDOCK:   -2.18 KCAL/MOL
REMARK 927      BINDING AFFINITY PREDICTED BY RF-SCORE:    0.00 PKD
ROOT
HETATM    1  C   UNL     1     -12.902  10.723  71.109  1.00  0.00    -0.513 C  
HETATM    2  C   UNL     1     -11.835  10.324  70.105  1.00  0.00    -0.343 C  
ENDROOT
BRANCH   2   3
HETATM    3  C   UNL     1     -10.674   9.613  70.789  1.00  0.00    -0.401 C  
BRANCH   3   4
HETATM    4  C   UNL     1     -11.137   8.890  72.052  1.00  0.00    -0.421 C  
BRANCH   4   5
HETATM    5  C   UNL     1      -9.969   8.121  72.656  1.00  0.00    -0.371 C  
BRANCH   5   6
HETATM    6  C   UNL     1     -10.328   6.727  73.078  1.00  0.00    -0.252 C  
HETATM    7  C   UNL     1     -10.283   5.686  72.231  1.00  0.00    -0.241 C  
BRANCH   7   8
HETATM    8  C   UNL     1      -9.899   5.795  70.786  1.00  0.00    -0.235 C  
BRANCH   8   9
HETATM    9  C   UNL     1     -11.099   5.844  69.891  1.00  0.00    -0.417 C  
HETATM   10  C   UNL     1     -11.136   6.453  68.696  1.00  0.00    -0.393 C  
BRANCH  10  11
HETATM   11  C   UNL     1     -10.016   7.259  68.111  1.00  0.00    -0.181 C  
BRANCH  11  12
HETATM   12  C   UNL     1     -10.439   7.961  66.851  1.00  0.00    -0.388 C  
HETATM   13  C   UNL     1     -10.057   9.198  66.498  1.00  0.00    -0.357 C  
BRANCH  13  14
HETATM   14  C   UNL     1      -9.157  10.032  67.358  1.00  0.00    -0.146 C  
BRANCH  14  15
HETATM   15  C   UNL     1      -9.044  11.482  66.906  1.00  0.00    -0.181 C  
BRANCH  15  16
HETATM   16  C   UNL     1      -9.339  12.401  68.091  1.00  0.00    -0.209 C  
BRANCH  16  17
HETATM   17  C   UNL     1     -10.680  13.103  67.932  1.00  0.00    -0.249 C  
HETATM   18  C   UNL     1     -10.574  14.580  68.226  1.00  0.00    -0.241 C  
HETATM   19  O   UNL     1      -9.554  15.167  68.556  1.00  0.00    -0.201 OA 
HETATM   20  O   UNL     1     -11.760  15.216  68.088  1.00  0.00    -0.342 OA 
ENDBRANCH  16  17
ENDBRANCH  15  16
ENDBRANCH  14  15
ENDBRANCH  13  14
ENDBRANCH  11  12
ENDBRANCH  10  11
ENDBRANCH   8   9
ENDBRANCH   7   8
ENDBRANCH   5   6
ENDBRANCH   4   5
ENDBRANCH   3   4
ENDBRANCH   2   3
TORSDOF 12
ENDMDL
MODEL      199
REMARK 921   NORMALIZED FREE ENERGY PREDICTED BY IDOCK:   -3.70 KCAL/MOL
REMARK 922        TOTAL FREE ENERGY PREDICTED BY IDOCK:   -8.25 KCAL/MOL
REMARK 923 INTER-LIGAND FREE ENERGY PREDICTED BY IDOCK:   -6.47 KCAL/MOL
REMARK 924 INTRA-LIGAND FREE ENERGY PREDICTED BY IDOCK:   -1.78 KCAL/MOL
REMARK 927      BINDING AFFINITY PREDICTED BY RF-SCORE:    0.00 PKD
ROOT
HETATM    1  C   UNL     1      -7.610  10.424  62.331  1.00  0.00    -0.166 C  
HETATM    2  C   UNL     1      -8.182   9.085  62.759  1.00  0.00    -0.184 C  
ENDROOT
BRANCH   2   3
HETATM    3  C   UNL     1      -8.751   9.156  64.171  1.00  0.00    -0.170 C  
BRANCH   3   4
HETATM    4  C   UNL     1      -8.799  10.597  64.675  1.00  0.00    -0.191 C  
BRANCH   4   5
HETATM    5  C   UNL     1     -10.248  11.019  64.875  1.00  0.00    -0.373 C  
BRANCH   5   6
HETATM    6  C   UNL     1     -10.928  11.436  63.605  1.00  0.00    -0.443 C  
HETATM    7  C   UNL     1     -12.057  12.163  63.599  1.00  0.00    -0.648 C  
BRANCH   7   8
HETATM    8  C   UNL     1     -12.772  12.614  64.837  1.00  0.00    -0.450 C  
BRANCH   8   9
HETATM    9  C   UNL     1     -12.563  14.072  65.104  1.00  0.00    -0.453 C  
HETATM   10  C   UNL     1     -11.734  14.567  66.035  1.00  0.00    -0.347 C  
BRANCH  10  11
HETATM   11  C   UNL     1     -10.959  13.742  67.017  1.00  0.00    -0.297 C  
BRANCH  11  12
HETATM   12  C   UNL     1     -11.786  13.398  68.224  1.00  0.00    -0.391 C  
HETATM   13  C   UNL     1     -11.591  12.323  69.005  1.00  0.00    -0.368 C  
BRANCH  13  14
HETATM   14  C   UNL     1     -10.509  11.324  68.733  1.00  0.00    -0.232 C  
BRANCH  14  15
HETATM   15  C   UNL     1     -11.026   9.965  68.282  1.00  0.00    -0.248 C  
BRANCH  15  16
HETATM   16  C   UNL     1     -10.435   8.879  69.182  1.00  0.00    -0.236 C  
BRANCH  16  17
HETATM   17  C   UNL     1     -11.175   8.790  70.509  1.00  0.00    -0.278 C  
HETATM   18  C   UNL     1     -11.780   7.424  70.718  1.00  0.00    -0.276 C  
HETATM   19  O   UNL     1     -11.706   6.486  69.937  1.00  0.00    -0.406 OA 
HETATM   20  O   UNL     1     -12.441   7.332  71.896  1.00  0.00    -0.314 OA 
ENDBRANCH  16  17
ENDBRANCH  15  16
ENDBRANCH  14  15
ENDBRANCH  13  14
ENDBRANCH  11  12
ENDBRANCH  10  11
ENDBRANCH   8   9
ENDBRANCH   7   8
ENDBRANCH   5   6
ENDBRANCH   4   5
ENDBRANCH   3   4
ENDBRANCH   2   3
TORSDOF 12
ENDMDL
MODEL      200
REMARK 921   NORMALIZED FREE ENERGY PREDICTED BY IDOCK:   -3.69 KCAL/MOL
REMARK 922        TOTAL FREE ENERGY PREDICTED BY IDOCK:   -8.24 KCAL/MOL
REMARK 923 INTER-LIGAND FREE ENERGY PREDICTED BY IDOCK:   -6.76 KCAL/MOL
REMARK 924 INTRA-LIGAND FREE ENERGY PREDICTED BY IDOCK:   -1.47 KCAL/MOL
REMARK 927      BINDING AFFINITY PREDICTED BY RF-SCORE:    0.00 PKD
ROOT
HETATM    1  C   UNL     1      -6.630  10.128  67.405  1.00  0.00    -0.068 C  
HETATM    2  C   UNL     1      -7.566   8.933  67.341  1.00  0.00    -0.089 C  
ENDROOT
BRANCH   2   3
HETATM    3  C   UNL     1      -8.412   8.831  68.604  1.00  0.00    -0.129 C  
BRANCH   3   4
HETATM    4  C   UNL     1      -9.715   8.079  68.336  1.00  0.00    -0.168 C  
BRANCH   4   5
HETATM    5  C   UNL     1     -10.487   8.778  67.225  1.00  0.00    -0.353 C  
BRANCH   5   6
HETATM    6  C   UNL     1     -11.055  10.104  67.638  1.00  0.00    -0.275 C  
HETATM    7  C   UNL     1     -10.883  11.218  66.909  1.00  0.00    -0.333 C  
BRANCH   7   8
HETATM    8  C   UNL     1     -10.098  11.274  65.633  1.00  0.00    -0.295 C  
BRANCH   8   9
HETATM    9  C   UNL     1     -10.987  11.256  64.428  1.00  0.00    -0.331 C  
HETATM   10  C   UNL     1     -11.968  12.139  64.190  1.00  0.00    -0.497 C  
BRANCH  10  11
HETATM   11  C   UNL     1     -12.394  13.222  65.134  1.00  0.00    -0.516 C  
BRANCH  11  12
HETATM   12  C   UNL     1     -12.169  14.587  64.548  1.00  0.00    -0.483 C  
HETATM   13  C   UNL     1     -11.094  15.356  64.785  1.00  0.00    -0.416 C  
BRANCH  13  14
HETATM   14  C   UNL     1      -9.987  14.921  65.695  1.00  0.00    -0.389 C  
BRANCH  14  15
HETATM   15  C   UNL     1      -9.368  16.058  66.498  1.00  0.00    -0.296 C  
BRANCH  15  16
HETATM   16  C   UNL     1     -10.477  16.825  67.218  1.00  0.00    -0.310 C  
BRANCH  16  17
HETATM   17  C   UNL     1     -10.055  18.253  67.531  1.00  0.00    -0.362 C  
HETATM   18  C   UNL     1     -10.376  19.190  66.392  1.00  0.00    -0.455 C  
HETATM   19  O   UNL     1     -10.906  18.872  65.338  1.00  0.00    -0.553 OA 
HETATM   20  O   UNL     1     -10.006  20.465  66.659  1.00  0.00    -0.444 OA 
ENDBRANCH  16  17
ENDBRANCH  15  16
ENDBRANCH  14  15
ENDBRANCH  13  14
ENDBRANCH  11  12
ENDBRANCH  10  11
ENDBRANCH   8   9
ENDBRANCH   7   8
ENDBRANCH   5   6
ENDBRANCH   4   5
ENDBRANCH   3   4
ENDBRANCH   2   3
TORSDOF 12
ENDMDL
MODEL      201
REMARK 921   NORMALIZED FREE ENERGY PREDICTED BY IDOCK:   -3.69 KCAL/MOL
REMARK 922        TOTAL FREE ENERGY PREDICTED BY IDOCK:   -8.23 KCAL/MOL
REMARK 923 INTER-LIGAND FREE ENERGY PREDICTED BY IDOCK:   -5.80 KCAL/MOL
REMARK 924 INTRA-LIGAND FREE ENERGY PREDICTED BY IDOCK:   -2.43 KCAL/MOL
REMARK 927      BINDING AFFINITY PREDICTED BY RF-SCORE:    0.00 PKD
ROOT
HETATM    1  C   UNL     1      -6.999  11.404  67.043  1.00  0.00    -0.135 C  
HETATM    2  C   UNL     1      -8.497  11.309  67.266  1.00  0.00    -0.144 C  
ENDROOT
BRANCH   2   3
HETATM    3  C   UNL     1      -9.261  11.506  65.961  1.00  0.00    -0.229 C  
BRANCH   3   4
HETATM    4  C   UNL     1     -10.766  11.355  66.175  1.00  0.00    -0.320 C  
BRANCH   4   5
HETATM    5  C   UNL     1     -11.513  12.215  65.165  1.00  0.00    -0.376 C  
BRANCH   5   6
HETATM    6  C   UNL     1     -10.645  13.244  64.502  1.00  0.00    -0.437 C  
HETATM    7  C   UNL     1     -10.539  14.500  64.963  1.00  0.00    -0.458 C  
BRANCH   7   8
HETATM    8  C   UNL     1     -11.279  15.022  66.157  1.00  0.00    -0.307 C  
BRANCH   8   9
HETATM    9  C   UNL     1     -10.419  15.046  67.382  1.00  0.00    -0.257 C  
HETATM   10  C   UNL     1     -10.671  14.357  68.506  1.00  0.00    -0.258 C  
BRANCH  10  11
HETATM   11  C   UNL     1     -11.899  13.533  68.748  1.00  0.00    -0.390 C  
BRANCH  11  12
HETATM   12  C   UNL     1     -12.225  13.443  70.213  1.00  0.00    -0.405 C  
HETATM   13  C   UNL     1     -12.321  12.298  70.907  1.00  0.00    -0.363 C  
BRANCH  13  14
HETATM   14  C   UNL     1     -12.121  10.957  70.268  1.00  0.00    -0.440 C  
BRANCH  14  15
HETATM   15  C   UNL     1     -11.112  10.075  70.993  1.00  0.00    -0.341 C  
BRANCH  15  16
HETATM   16  C   UNL     1     -10.147   9.473  69.972  1.00  0.00    -0.279 C  
BRANCH  16  17
HETATM   17  C   UNL     1     -10.892   8.834  68.809  1.00  0.00    -0.026 C  
HETATM   18  C   UNL     1      -9.959   8.063  67.906  1.00  0.00    -0.180 C  
HETATM   19  O   UNL     1      -8.752   7.950  68.062  1.00  0.00    -0.126 OA 
HETATM   20  O   UNL     1     -10.610   7.489  66.868  1.00  0.00    -0.332 OA 
ENDBRANCH  16  17
ENDBRANCH  15  16
ENDBRANCH  14  15
ENDBRANCH  13  14
ENDBRANCH  11  12
ENDBRANCH  10  11
ENDBRANCH   8   9
ENDBRANCH   7   8
ENDBRANCH   5   6
ENDBRANCH   4   5
ENDBRANCH   3   4
ENDBRANCH   2   3
TORSDOF 12
ENDMDL
MODEL      202
REMARK 921   NORMALIZED FREE ENERGY PREDICTED BY IDOCK:   -3.69 KCAL/MOL
REMARK 922        TOTAL FREE ENERGY PREDICTED BY IDOCK:   -8.23 KCAL/MOL
REMARK 923 INTER-LIGAND FREE ENERGY PREDICTED BY IDOCK:   -5.44 KCAL/MOL
REMARK 924 INTRA-LIGAND FREE ENERGY PREDICTED BY IDOCK:   -2.80 KCAL/MOL
REMARK 927      BINDING AFFINITY PREDICTED BY RF-SCORE:    0.00 PKD
ROOT
HETATM    1  C   UNL     1      -8.512   8.600  71.378  1.00  0.00    -0.240 C  
HETATM    2  C   UNL     1      -7.569   7.411  71.350  1.00  0.00    -0.082 C  
ENDROOT
BRANCH   2   3
HETATM    3  C   UNL     1      -8.199   6.227  70.626  1.00  0.00    -0.125 C  
BRANCH   3   4
HETATM    4  C   UNL     1      -8.944   5.317  71.602  1.00  0.00    -0.148 C  
BRANCH   4   5
HETATM    5  C   UNL     1     -10.284   4.914  71.001  1.00  0.00    -0.262 C  
BRANCH   5   6
HETATM    6  C   UNL     1     -10.714   5.791  69.862  1.00  0.00    -0.412 C  
HETATM    7  C   UNL     1     -11.706   6.687  69.980  1.00  0.00    -0.378 C  
BRANCH   7   8
HETATM    8  C   UNL     1     -12.504   6.898  71.232  1.00  0.00    -0.409 C  
BRANCH   8   9
HETATM    9  C   UNL     1     -11.839   7.864  72.163  1.00  0.00    -0.384 C  
HETATM   10  C   UNL     1     -12.081   9.184  72.195  1.00  0.00    -0.389 C  
BRANCH  10  11
HETATM   11  C   UNL     1     -12.980   9.912  71.242  1.00  0.00    -0.488 C  
BRANCH  11  12
HETATM   12  C   UNL     1     -12.438  11.272  70.901  1.00  0.00    -0.493 C  
HETATM   13  C   UNL     1     -11.827  11.585  69.748  1.00  0.00    -0.429 C  
BRANCH  13  14
HETATM   14  C   UNL     1     -11.605  10.578  68.661  1.00  0.00    -0.241 C  
BRANCH  14  15
HETATM   15  C   UNL     1     -10.142  10.214  68.449  1.00  0.00    -0.184 C  
BRANCH  15  16
HETATM   16  C   UNL     1     -10.057   8.956  67.585  1.00  0.00    -0.274 C  
BRANCH  16  17
HETATM   17  C   UNL     1      -8.678   8.318  67.662  1.00  0.00    -0.133 C  
HETATM   18  C   UNL     1      -8.640   6.987  66.949  1.00  0.00    -0.120 C  
HETATM   19  O   UNL     1      -9.582   6.461  66.376  1.00  0.00    -0.164 OA 
HETATM   20  O   UNL     1      -7.417   6.410  67.010  1.00  0.00    -0.081 OA 
ENDBRANCH  16  17
ENDBRANCH  15  16
ENDBRANCH  14  15
ENDBRANCH  13  14
ENDBRANCH  11  12
ENDBRANCH  10  11
ENDBRANCH   8   9
ENDBRANCH   7   8
ENDBRANCH   5   6
ENDBRANCH   4   5
ENDBRANCH   3   4
ENDBRANCH   2   3
TORSDOF 12
ENDMDL
MODEL      203
REMARK 921   NORMALIZED FREE ENERGY PREDICTED BY IDOCK:   -3.68 KCAL/MOL
REMARK 922        TOTAL FREE ENERGY PREDICTED BY IDOCK:   -8.21 KCAL/MOL
REMARK 923 INTER-LIGAND FREE ENERGY PREDICTED BY IDOCK:   -5.98 KCAL/MOL
REMARK 924 INTRA-LIGAND FREE ENERGY PREDICTED BY IDOCK:   -2.24 KCAL/MOL
REMARK 927      BINDING AFFINITY PREDICTED BY RF-SCORE:    0.00 PKD
ROOT
HETATM    1  C   UNL     1     -11.827  12.578  63.356  1.00  0.00    -0.587 C  
HETATM    2  C   UNL     1     -12.752  12.509  64.558  1.00  0.00    -0.440 C  
ENDROOT
BRANCH   2   3
HETATM    3  C   UNL     1     -12.709  13.806  65.358  1.00  0.00    -0.513 C  
BRANCH   3   4
HETATM    4  C   UNL     1     -11.563  14.703  64.895  1.00  0.00    -0.405 C  
BRANCH   4   5
HETATM    5  C   UNL     1     -10.869  15.310  66.106  1.00  0.00    -0.320 C  
BRANCH   5   6
HETATM    6  C   UNL     1      -9.590  16.017  65.767  1.00  0.00    -0.311 C  
HETATM    7  C   UNL     1      -8.464  15.845  66.477  1.00  0.00    -0.348 C  
BRANCH   7   8
HETATM    8  C   UNL     1      -8.359  14.963  67.685  1.00  0.00    -0.178 C  
BRANCH   8   9
HETATM    9  C   UNL     1      -7.372  13.855  67.483  1.00  0.00    -0.181 C  
HETATM   10  C   UNL     1      -7.689  12.553  67.412  1.00  0.00    -0.167 C  
BRANCH  10  11
HETATM   11  C   UNL     1      -9.064  11.994  67.619  1.00  0.00    -0.179 C  
BRANCH  11  12
HETATM   12  C   UNL     1      -9.739  11.690  66.311  1.00  0.00    -0.241 C  
HETATM   13  C   UNL     1      -9.901  10.459  65.801  1.00  0.00    -0.300 C  
BRANCH  13  14
HETATM   14  C   UNL     1      -9.398   9.232  66.498  1.00  0.00    -0.231 C  
BRANCH  14  15
HETATM   15  C   UNL     1     -10.504   8.302  66.980  1.00  0.00    -0.384 C  
BRANCH  15  16
HETATM   16  C   UNL     1     -10.391   8.130  68.495  1.00  0.00    -0.230 C  
BRANCH  16  17
HETATM   17  C   UNL     1      -9.031   8.583  69.008  1.00  0.00    -0.146 C  
HETATM   18  C   UNL     1      -9.147   9.312  70.325  1.00  0.00    -0.237 C  
HETATM   19  O   UNL     1     -10.188   9.530  70.927  1.00  0.00    -0.292 OA 
HETATM   20  O   UNL     1      -7.944   9.719  70.792  1.00  0.00    -0.288 OA 
ENDBRANCH  16  17
ENDBRANCH  15  16
ENDBRANCH  14  15
ENDBRANCH  13  14
ENDBRANCH  11  12
ENDBRANCH  10  11
ENDBRANCH   8   9
ENDBRANCH   7   8
ENDBRANCH   5   6
ENDBRANCH   4   5
ENDBRANCH   3   4
ENDBRANCH   2   3
TORSDOF 12
ENDMDL
MODEL      204
REMARK 921   NORMALIZED FREE ENERGY PREDICTED BY IDOCK:   -3.68 KCAL/MOL
REMARK 922        TOTAL FREE ENERGY PREDICTED BY IDOCK:   -8.21 KCAL/MOL
REMARK 923 INTER-LIGAND FREE ENERGY PREDICTED BY IDOCK:   -7.00 KCAL/MOL
REMARK 924 INTRA-LIGAND FREE ENERGY PREDICTED BY IDOCK:   -1.21 KCAL/MOL
REMARK 927      BINDING AFFINITY PREDICTED BY RF-SCORE:    0.00 PKD
ROOT
HETATM    1  C   UNL     1      -6.366  18.370  69.323  1.00  0.00    -0.269 C  
HETATM    2  C   UNL     1      -6.530  19.687  68.587  1.00  0.00    -0.308 C  
ENDROOT
BRANCH   2   3
HETATM    3  C   UNL     1      -6.511  19.479  67.077  1.00  0.00    -0.203 C  
BRANCH   3   4
HETATM    4  C   UNL     1      -7.647  20.245  66.400  1.00  0.00    -0.276 C  
BRANCH   4   5
HETATM    5  C   UNL     1      -8.856  19.333  66.246  1.00  0.00    -0.341 C  
BRANCH   5   6
HETATM    6  C   UNL     1      -9.987  19.683  67.168  1.00  0.00    -0.507 C  
HETATM    7  C   UNL     1     -10.396  18.862  68.148  1.00  0.00    -0.433 C  
BRANCH   7   8
HETATM    8  C   UNL     1      -9.800  17.513  68.417  1.00  0.00    -0.325 C  
BRANCH   8   9
HETATM    9  C   UNL     1     -10.578  16.753  69.445  1.00  0.00    -0.318 C  
HETATM   10  C   UNL     1     -11.366  15.699  69.182  1.00  0.00    -0.341 C  
BRANCH  10  11
HETATM   11  C   UNL     1     -11.667  15.177  67.810  1.00  0.00    -0.250 C  
BRANCH  11  12
HETATM   12  C   UNL     1     -10.420  15.056  66.978  1.00  0.00    -0.278 C  
HETATM   13  C   UNL     1     -10.396  15.003  65.637  1.00  0.00    -0.374 C  
BRANCH  13  14
HETATM   14  C   UNL     1     -11.646  15.047  64.813  1.00  0.00    -0.395 C  
BRANCH  14  15
HETATM   15  C   UNL     1     -11.890  13.784  63.997  1.00  0.00    -0.410 C  
BRANCH  15  16
HETATM   16  C   UNL     1     -12.310  12.653  64.936  1.00  0.00    -0.563 C  
BRANCH  16  17
HETATM   17  C   UNL     1     -11.129  11.767  65.306  1.00  0.00    -0.333 C  
HETATM   18  C   UNL     1     -11.160  11.378  66.764  1.00  0.00    -0.281 C  
HETATM   19  O   UNL     1     -12.011  11.718  67.573  1.00  0.00    -0.607 OA 
HETATM   20  O   UNL     1     -10.115  10.588  67.105  1.00  0.00    -0.192 OA 
ENDBRANCH  16  17
ENDBRANCH  15  16
ENDBRANCH  14  15
ENDBRANCH  13  14
ENDBRANCH  11  12
ENDBRANCH  10  11
ENDBRANCH   8   9
ENDBRANCH   7   8
ENDBRANCH   5   6
ENDBRANCH   4   5
ENDBRANCH   3   4
ENDBRANCH   2   3
TORSDOF 12
ENDMDL
MODEL      205
REMARK 921   NORMALIZED FREE ENERGY PREDICTED BY IDOCK:   -3.68 KCAL/MOL
REMARK 922        TOTAL FREE ENERGY PREDICTED BY IDOCK:   -8.21 KCAL/MOL
REMARK 923 INTER-LIGAND FREE ENERGY PREDICTED BY IDOCK:   -7.21 KCAL/MOL
REMARK 924 INTRA-LIGAND FREE ENERGY PREDICTED BY IDOCK:   -1.00 KCAL/MOL
REMARK 927      BINDING AFFINITY PREDICTED BY RF-SCORE:    0.00 PKD
ROOT
HETATM    1  C   UNL     1     -10.607  12.023  63.519  1.00  0.00    -0.514 C  
HETATM    2  C   UNL     1     -11.886  12.834  63.405  1.00  0.00    -0.591 C  
ENDROOT
BRANCH   2   3
HETATM    3  C   UNL     1     -12.748  12.678  64.652  1.00  0.00    -0.458 C  
BRANCH   3   4
HETATM    4  C   UNL     1     -12.365  13.701  65.719  1.00  0.00    -0.524 C  
BRANCH   4   5
HETATM    5  C   UNL     1     -12.009  12.980  67.012  1.00  0.00    -0.409 C  
BRANCH   5   6
HETATM    6  C   UNL     1     -11.750  13.909  68.161  1.00  0.00    -0.388 C  
HETATM    7  C   UNL     1     -11.747  13.492  69.436  1.00  0.00    -0.381 C  
BRANCH   7   8
HETATM    8  C   UNL     1     -12.023  12.080  69.859  1.00  0.00    -0.391 C  
BRANCH   8   9
HETATM    9  C   UNL     1     -12.901  12.020  71.070  1.00  0.00    -0.279 C  
HETATM   10  C   UNL     1     -13.032  10.948  71.866  1.00  0.00    -0.502 C  
BRANCH  10  11
HETATM   11  C   UNL     1     -12.397   9.614  71.617  1.00  0.00    -0.489 C  
BRANCH  11  12
HETATM   12  C   UNL     1     -13.409   8.503  71.657  1.00  0.00    -0.372 C  
HETATM   13  C   UNL     1     -13.128   7.203  71.476  1.00  0.00    -0.427 C  
BRANCH  13  14
HETATM   14  C   UNL     1     -11.738   6.719  71.195  1.00  0.00    -0.394 C  
BRANCH  14  15
HETATM   15  C   UNL     1     -11.496   6.362  69.734  1.00  0.00    -0.468 C  
BRANCH  15  16
HETATM   16  C   UNL     1     -10.070   6.757  69.351  1.00  0.00    -0.183 C  
BRANCH  16  17
HETATM   17  C   UNL     1      -9.214   7.022  70.582  1.00  0.00    -0.158 C  
HETATM   18  C   UNL     1      -8.138   5.976  70.747  1.00  0.00    -0.120 C  
HETATM   19  O   UNL     1      -7.954   5.023  70.004  1.00  0.00    -0.072 OA 
HETATM   20  O   UNL     1      -7.370   6.201  71.838  1.00  0.00    -0.089 OA 
ENDBRANCH  16  17
ENDBRANCH  15  16
ENDBRANCH  14  15
ENDBRANCH  13  14
ENDBRANCH  11  12
ENDBRANCH  10  11
ENDBRANCH   8   9
ENDBRANCH   7   8
ENDBRANCH   5   6
ENDBRANCH   4   5
ENDBRANCH   3   4
ENDBRANCH   2   3
TORSDOF 12
ENDMDL
MODEL      206
REMARK 921   NORMALIZED FREE ENERGY PREDICTED BY IDOCK:   -3.66 KCAL/MOL
REMARK 922        TOTAL FREE ENERGY PREDICTED BY IDOCK:   -8.19 KCAL/MOL
REMARK 923 INTER-LIGAND FREE ENERGY PREDICTED BY IDOCK:   -6.29 KCAL/MOL
REMARK 924 INTRA-LIGAND FREE ENERGY PREDICTED BY IDOCK:   -1.90 KCAL/MOL
REMARK 927      BINDING AFFINITY PREDICTED BY RF-SCORE:    0.00 PKD
ROOT
HETATM    1  C   UNL     1     -10.931  12.086  65.996  1.00  0.00    -0.346 C  
HETATM    2  C   UNL     1     -11.660  12.273  67.315  1.00  0.00    -0.427 C  
ENDROOT
BRANCH   2   3
HETATM    3  C   UNL     1     -11.982  13.742  67.561  1.00  0.00    -0.411 C  
BRANCH   3   4
HETATM    4  C   UNL     1     -11.940  14.074  69.052  1.00  0.00    -0.392 C  
BRANCH   4   5
HETATM    5  C   UNL     1     -11.909  12.785  69.861  1.00  0.00    -0.371 C  
BRANCH   5   6
HETATM    6  C   UNL     1     -12.653  12.878  71.160  1.00  0.00    -0.373 C  
HETATM    7  C   UNL     1     -13.166  11.800  71.774  1.00  0.00    -0.434 C  
BRANCH   7   8
HETATM    8  C   UNL     1     -13.079  10.404  71.232  1.00  0.00    -0.494 C  
BRANCH   8   9
HETATM    9  C   UNL     1     -12.184   9.537  72.062  1.00  0.00    -0.370 C  
HETATM   10  C   UNL     1     -11.116   8.872  71.594  1.00  0.00    -0.420 C  
BRANCH  10  11
HETATM   11  C   UNL     1     -10.707   8.815  70.154  1.00  0.00    -0.239 C  
BRANCH  11  12
HETATM   12  C   UNL     1      -9.839   9.984  69.779  1.00  0.00    -0.270 C  
HETATM   13  C   UNL     1      -9.013  10.016  68.721  1.00  0.00    -0.145 C  
BRANCH  13  14
HETATM   14  C   UNL     1      -8.860   8.852  67.791  1.00  0.00    -0.136 C  
BRANCH  14  15
HETATM   15  C   UNL     1      -9.976   8.736  66.762  1.00  0.00    -0.338 C  
BRANCH  15  16
HETATM   16  C   UNL     1     -10.614   7.350  66.867  1.00  0.00    -0.375 C  
BRANCH  16  17
HETATM   17  C   UNL     1      -9.600   6.302  67.301  1.00  0.00    -0.138 C  
HETATM   18  C   UNL     1     -10.055   5.567  68.539  1.00  0.00    -0.180 C  
HETATM   19  O   UNL     1     -11.099   5.768  69.141  1.00  0.00    -0.316 OA 
HETATM   20  O   UNL     1      -9.162   4.630  68.934  1.00  0.00    -0.112 OA 
ENDBRANCH  16  17
ENDBRANCH  15  16
ENDBRANCH  14  15
ENDBRANCH  13  14
ENDBRANCH  11  12
ENDBRANCH  10  11
ENDBRANCH   8   9
ENDBRANCH   7   8
ENDBRANCH   5   6
ENDBRANCH   4   5
ENDBRANCH   3   4
ENDBRANCH   2   3
TORSDOF 12
ENDMDL
MODEL      207
REMARK 921   NORMALIZED FREE ENERGY PREDICTED BY IDOCK:   -3.65 KCAL/MOL
REMARK 922        TOTAL FREE ENERGY PREDICTED BY IDOCK:   -8.17 KCAL/MOL
REMARK 923 INTER-LIGAND FREE ENERGY PREDICTED BY IDOCK:   -6.47 KCAL/MOL
REMARK 924 INTRA-LIGAND FREE ENERGY PREDICTED BY IDOCK:   -1.70 KCAL/MOL
REMARK 927      BINDING AFFINITY PREDICTED BY RF-SCORE:    0.00 PKD
ROOT
HETATM    1  C   UNL     1     -11.485  10.565  70.346  1.00  0.00    -0.427 C  
HETATM    2  C   UNL     1     -12.581  10.042  71.257  1.00  0.00    -0.495 C  
ENDROOT
BRANCH   2   3
HETATM    3  C   UNL     1     -13.371  11.187  71.881  1.00  0.00    -0.409 C  
BRANCH   3   4
HETATM    4  C   UNL     1     -12.876  12.540  71.372  1.00  0.00    -0.359 C  
BRANCH   4   5
HETATM    5  C   UNL     1     -13.828  13.636  71.831  1.00  0.00    -0.463 C  
BRANCH   5   6
HETATM    6  C   UNL     1     -13.272  14.484  72.936  1.00  0.00    -0.612 C  
HETATM    7  C   UNL     1     -12.515  15.567  72.699  1.00  0.00    -0.502 C  
BRANCH   7   8
HETATM    8  C   UNL     1     -12.123  16.035  71.329  1.00  0.00    -0.440 C  
BRANCH   8   9
HETATM    9  C   UNL     1     -10.729  15.619  70.974  1.00  0.00    -0.027 C  
HETATM   10  C   UNL     1     -10.264  15.500  69.721  1.00  0.00    -0.301 C  
BRANCH  10  11
HETATM   11  C   UNL     1     -11.089  15.670  68.481  1.00  0.00    -0.322 C  
BRANCH  11  12
HETATM   12  C   UNL     1     -11.790  14.394  68.104  1.00  0.00    -0.362 C  
HETATM   13  C   UNL     1     -11.302  13.473  67.259  1.00  0.00    -0.339 C  
BRANCH  13  14
HETATM   14  C   UNL     1      -9.978  13.636  66.578  1.00  0.00    -0.288 C  
BRANCH  14  15
HETATM   15  C   UNL     1      -9.071  12.418  66.698  1.00  0.00    -0.204 C  
BRANCH  15  16
HETATM   16  C   UNL     1      -7.820  12.799  67.490  1.00  0.00    -0.171 C  
BRANCH  16  17
HETATM   17  C   UNL     1      -7.783  14.291  67.790  1.00  0.00    -0.172 C  
HETATM   18  C   UNL     1      -6.389  14.853  67.646  1.00  0.00    -0.123 C  
HETATM   19  O   UNL     1      -5.395  14.215  67.333  1.00  0.00    -0.335 OA 
HETATM   20  O   UNL     1      -6.343  16.180  67.908  1.00  0.00    -0.119 OA 
ENDBRANCH  16  17
ENDBRANCH  15  16
ENDBRANCH  14  15
ENDBRANCH  13  14
ENDBRANCH  11  12
ENDBRANCH  10  11
ENDBRANCH   8   9
ENDBRANCH   7   8
ENDBRANCH   5   6
ENDBRANCH   4   5
ENDBRANCH   3   4
ENDBRANCH   2   3
TORSDOF 12
ENDMDL
MODEL      208
REMARK 921   NORMALIZED FREE ENERGY PREDICTED BY IDOCK:   -3.65 KCAL/MOL
REMARK 922        TOTAL FREE ENERGY PREDICTED BY IDOCK:   -8.17 KCAL/MOL
REMARK 923 INTER-LIGAND FREE ENERGY PREDICTED BY IDOCK:   -6.32 KCAL/MOL
REMARK 924 INTRA-LIGAND FREE ENERGY PREDICTED BY IDOCK:   -1.84 KCAL/MOL
REMARK 927      BINDING AFFINITY PREDICTED BY RF-SCORE:    0.00 PKD
ROOT
HETATM    1  C   UNL     1      -9.118   5.478  66.968  1.00  0.00    -0.112 C  
HETATM    2  C   UNL     1     -10.628   5.569  67.099  1.00  0.00    -0.313 C  
ENDROOT
BRANCH   2   3
HETATM    3  C   UNL     1     -11.027   6.224  68.416  1.00  0.00    -0.409 C  
BRANCH   3   4
HETATM    4  C   UNL     1      -9.857   6.247  69.398  1.00  0.00    -0.180 C  
BRANCH   4   5
HETATM    5  C   UNL     1     -10.366   6.595  70.790  1.00  0.00    -0.232 C  
BRANCH   5   6
HETATM    6  C   UNL     1     -11.849   6.813  70.845  1.00  0.00    -0.438 C  
HETATM    7  C   UNL     1     -12.390   7.967  71.266  1.00  0.00    -0.300 C  
BRANCH   7   8
HETATM    8  C   UNL     1     -11.594   9.142  71.747  1.00  0.00    -0.457 C  
BRANCH   8   9
HETATM    9  C   UNL     1     -12.113  10.434  71.195  1.00  0.00    -0.487 C  
HETATM   10  C   UNL     1     -11.928  10.854  69.934  1.00  0.00    -0.430 C  
BRANCH  10  11
HETATM   11  C   UNL     1     -11.095  10.147  68.909  1.00  0.00    -0.251 C  
BRANCH  11  12
HETATM   12  C   UNL     1      -9.722  10.747  68.802  1.00  0.00    -0.197 C  
HETATM   13  C   UNL     1      -9.183  11.230  67.671  1.00  0.00    -0.156 C  
BRANCH  13  14
HETATM   14  C   UNL     1      -9.913  11.203  66.363  1.00  0.00    -0.257 C  
BRANCH  14  15
HETATM   15  C   UNL     1     -10.414  12.568  65.910  1.00  0.00    -0.289 C  
BRANCH  15  16
HETATM   16  C   UNL     1     -11.687  12.917  66.681  1.00  0.00    -0.452 C  
BRANCH  16  17
HETATM   17  C   UNL     1     -11.831  14.420  66.869  1.00  0.00    -0.433 C  
HETATM   18  C   UNL     1     -11.346  14.860  68.230  1.00  0.00    -0.310 C  
HETATM   19  O   UNL     1     -10.893  14.124  69.094  1.00  0.00    -0.250 OA 
HETATM   20  O   UNL     1     -11.467  16.196  68.409  1.00  0.00    -0.369 OA 
ENDBRANCH  16  17
ENDBRANCH  15  16
ENDBRANCH  14  15
ENDBRANCH  13  14
ENDBRANCH  11  12
ENDBRANCH  10  11
ENDBRANCH   8   9
ENDBRANCH   7   8
ENDBRANCH   5   6
ENDBRANCH   4   5
ENDBRANCH   3   4
ENDBRANCH   2   3
TORSDOF 12
ENDMDL
MODEL      209
REMARK 921   NORMALIZED FREE ENERGY PREDICTED BY IDOCK:   -3.64 KCAL/MOL
REMARK 922        TOTAL FREE ENERGY PREDICTED BY IDOCK:   -8.15 KCAL/MOL
REMARK 923 INTER-LIGAND FREE ENERGY PREDICTED BY IDOCK:   -5.95 KCAL/MOL
REMARK 924 INTRA-LIGAND FREE ENERGY PREDICTED BY IDOCK:   -2.20 KCAL/MOL
REMARK 927      BINDING AFFINITY PREDICTED BY RF-SCORE:    0.00 PKD
ROOT
HETATM    1  C   UNL     1     -12.635  11.820  63.664  1.00  0.00    -0.458 C  
HETATM    2  C   UNL     1     -11.269  12.430  63.927  1.00  0.00    -0.487 C  
ENDROOT
BRANCH   2   3
HETATM    3  C   UNL     1     -11.376  13.643  64.843  1.00  0.00    -0.353 C  
BRANCH   3   4
HETATM    4  C   UNL     1     -12.586  13.531  65.768  1.00  0.00    -0.490 C  
BRANCH   4   5
HETATM    5  C   UNL     1     -12.142  13.719  67.213  1.00  0.00    -0.393 C  
BRANCH   5   6
HETATM    6  C   UNL     1     -10.918  14.576  67.353  1.00  0.00    -0.306 C  
HETATM    7  C   UNL     1      -9.775  14.115  67.885  1.00  0.00    -0.224 C  
BRANCH   7   8
HETATM    8  C   UNL     1      -9.596  12.724  68.415  1.00  0.00    -0.175 C  
BRANCH   8   9
HETATM    9  C   UNL     1      -8.469  12.008  67.737  1.00  0.00    -0.157 C  
HETATM   10  C   UNL     1      -8.618  10.997  66.869  1.00  0.00    -0.143 C  
BRANCH  10  11
HETATM   11  C   UNL     1      -9.927  10.360  66.513  1.00  0.00    -0.271 C  
BRANCH  11  12
HETATM   12  C   UNL     1      -9.737   8.973  65.966  1.00  0.00    -0.339 C  
HETATM   13  C   UNL     1      -9.459   7.889  66.707  1.00  0.00    -0.257 C  
BRANCH  13  14
HETATM   14  C   UNL     1      -9.293   7.958  68.194  1.00  0.00    -0.146 C  
BRANCH  14  15
HETATM   15  C   UNL     1     -10.605   7.882  68.964  1.00  0.00    -0.177 C  
BRANCH  15  16
HETATM   16  C   UNL     1     -10.665   9.032  69.969  1.00  0.00    -0.247 C  
BRANCH  16  17
HETATM   17  C   UNL     1      -9.347   9.192  70.713  1.00  0.00    -0.325 C  
HETATM   18  C   UNL     1      -9.423   8.622  72.109  1.00  0.00    -0.303 C  
HETATM   19  O   UNL     1     -10.406   8.094  72.608  1.00  0.00    -0.295 OA 
HETATM   20  O   UNL     1      -8.257   8.757  72.781  1.00  0.00    -0.407 OA 
ENDBRANCH  16  17
ENDBRANCH  15  16
ENDBRANCH  14  15
ENDBRANCH  13  14
ENDBRANCH  11  12
ENDBRANCH  10  11
ENDBRANCH   8   9
ENDBRANCH   7   8
ENDBRANCH   5   6
ENDBRANCH   4   5
ENDBRANCH   3   4
ENDBRANCH   2   3
TORSDOF 12
ENDMDL
MODEL      210
REMARK 921   NORMALIZED FREE ENERGY PREDICTED BY IDOCK:   -3.64 KCAL/MOL
REMARK 922        TOTAL FREE ENERGY PREDICTED BY IDOCK:   -8.15 KCAL/MOL
REMARK 923 INTER-LIGAND FREE ENERGY PREDICTED BY IDOCK:   -6.31 KCAL/MOL
REMARK 924 INTRA-LIGAND FREE ENERGY PREDICTED BY IDOCK:   -1.84 KCAL/MOL
REMARK 927      BINDING AFFINITY PREDICTED BY RF-SCORE:    0.00 PKD
ROOT
HETATM    1  C   UNL     1     -12.060  11.945  70.575  1.00  0.00    -0.422 C  
HETATM    2  C   UNL     1     -12.327  10.452  70.635  1.00  0.00    -0.438 C  
ENDROOT
BRANCH   2   3
HETATM    3  C   UNL     1     -11.182   9.716  71.320  1.00  0.00    -0.446 C  
BRANCH   3   4
HETATM    4  C   UNL     1     -11.677   8.448  72.014  1.00  0.00    -0.417 C  
BRANCH   4   5
HETATM    5  C   UNL     1     -11.810   7.327  70.993  1.00  0.00    -0.352 C  
BRANCH   5   6
HETATM    6  C   UNL     1     -11.098   6.068  71.394  1.00  0.00    -0.336 C  
HETATM    7  C   UNL     1      -9.879   5.753  70.930  1.00  0.00    -0.229 C  
BRANCH   7   8
HETATM    8  C   UNL     1      -9.109   6.591  69.954  1.00  0.00    -0.143 C  
BRANCH   8   9
HETATM    9  C   UNL     1      -7.931   7.256  70.596  1.00  0.00    -0.099 C  
HETATM   10  C   UNL     1      -7.367   8.394  70.165  1.00  0.00    -0.058 C  
BRANCH  10  11
HETATM   11  C   UNL     1      -7.765   9.129  68.920  1.00  0.00    -0.083 C  
BRANCH  11  12
HETATM   12  C   UNL     1      -8.009  10.587  69.192  1.00  0.00    -0.145 C  
HETATM   13  C   UNL     1      -8.924  11.341  68.564  1.00  0.00    -0.166 C  
BRANCH  13  14
HETATM   14  C   UNL     1      -9.811  10.791  67.489  1.00  0.00    -0.197 C  
BRANCH  14  15
HETATM   15  C   UNL     1      -9.725  11.552  66.172  1.00  0.00    -0.249 C  
BRANCH  15  16
HETATM   16  C   UNL     1     -10.728  12.706  66.194  1.00  0.00    -0.293 C  
BRANCH  16  17
HETATM   17  C   UNL     1     -10.837  13.375  64.832  1.00  0.00    -0.363 C  
HETATM   18  C   UNL     1     -12.258  13.373  64.322  1.00  0.00    -0.392 C  
HETATM   19  O   UNL     1     -13.221  12.898  64.906  1.00  0.00    -0.782 OA 
HETATM   20  O   UNL     1     -12.368  13.967  63.111  1.00  0.00    -0.696 OA 
ENDBRANCH  16  17
ENDBRANCH  15  16
ENDBRANCH  14  15
ENDBRANCH  13  14
ENDBRANCH  11  12
ENDBRANCH  10  11
ENDBRANCH   8   9
ENDBRANCH   7   8
ENDBRANCH   5   6
ENDBRANCH   4   5
ENDBRANCH   3   4
ENDBRANCH   2   3
TORSDOF 12
ENDMDL
MODEL      211
REMARK 921   NORMALIZED FREE ENERGY PREDICTED BY IDOCK:   -3.63 KCAL/MOL
REMARK 922        TOTAL FREE ENERGY PREDICTED BY IDOCK:   -8.13 KCAL/MOL
REMARK 923 INTER-LIGAND FREE ENERGY PREDICTED BY IDOCK:   -6.06 KCAL/MOL
REMARK 924 INTRA-LIGAND FREE ENERGY PREDICTED BY IDOCK:   -2.07 KCAL/MOL
REMARK 927      BINDING AFFINITY PREDICTED BY RF-SCORE:    0.00 PKD
ROOT
HETATM    1  C   UNL     1     -12.485  11.960  63.441  1.00  0.00    -0.582 C  
HETATM    2  C   UNL     1     -12.517  12.734  64.747  1.00  0.00    -0.539 C  
ENDROOT
BRANCH   2   3
HETATM    3  C   UNL     1     -12.038  14.167  64.549  1.00  0.00    -0.489 C  
BRANCH   3   4
HETATM    4  C   UNL     1     -10.514  14.252  64.602  1.00  0.00    -0.325 C  
BRANCH   4   5
HETATM    5  C   UNL     1     -10.025  13.791  65.967  1.00  0.00    -0.319 C  
BRANCH   5   6
HETATM    6  C   UNL     1      -9.779  14.919  66.925  1.00  0.00    -0.248 C  
HETATM    7  C   UNL     1     -10.675  15.279  67.856  1.00  0.00    -0.275 C  
BRANCH   7   8
HETATM    8  C   UNL     1     -12.013  14.626  68.032  1.00  0.00    -0.292 C  
BRANCH   8   9
HETATM    9  C   UNL     1     -12.226  14.155  69.437  1.00  0.00    -0.329 C  
HETATM   10  C   UNL     1     -11.662  13.060  69.970  1.00  0.00    -0.285 C  
BRANCH  10  11
HETATM   11  C   UNL     1     -10.809  12.085  69.217  1.00  0.00    -0.130 C  
BRANCH  11  12
HETATM   12  C   UNL     1     -11.635  11.202  68.323  1.00  0.00    -0.359 C  
HETATM   13  C   UNL     1     -11.140  10.415  67.355  1.00  0.00    -0.297 C  
BRANCH  13  14
HETATM   14  C   UNL     1      -9.674  10.346  67.052  1.00  0.00    -0.216 C  
BRANCH  14  15
HETATM   15  C   UNL     1      -9.170   8.937  66.771  1.00  0.00    -0.201 C  
BRANCH  15  16
HETATM   16  C   UNL     1     -10.020   7.934  67.551  1.00  0.00    -0.250 C  
BRANCH  16  17
HETATM   17  C   UNL     1      -9.396   7.605  68.899  1.00  0.00    -0.145 C  
HETATM   18  C   UNL     1     -10.320   6.766  69.750  1.00  0.00    -0.201 C  
HETATM   19  O   UNL     1     -11.435   6.386  69.425  1.00  0.00    -0.401 OA 
HETATM   20  O   UNL     1      -9.776   6.465  70.952  1.00  0.00    -0.175 OA 
ENDBRANCH  16  17
ENDBRANCH  15  16
ENDBRANCH  14  15
ENDBRANCH  13  14
ENDBRANCH  11  12
ENDBRANCH  10  11
ENDBRANCH   8   9
ENDBRANCH   7   8
ENDBRANCH   5   6
ENDBRANCH   4   5
ENDBRANCH   3   4
ENDBRANCH   2   3
TORSDOF 12
ENDMDL
MODEL      212
REMARK 921   NORMALIZED FREE ENERGY PREDICTED BY IDOCK:   -3.63 KCAL/MOL
REMARK 922        TOTAL FREE ENERGY PREDICTED BY IDOCK:   -8.13 KCAL/MOL
REMARK 923 INTER-LIGAND FREE ENERGY PREDICTED BY IDOCK:   -6.35 KCAL/MOL
REMARK 924 INTRA-LIGAND FREE ENERGY PREDICTED BY IDOCK:   -1.78 KCAL/MOL
REMARK 927      BINDING AFFINITY PREDICTED BY RF-SCORE:    0.00 PKD
ROOT
HETATM    1  C   UNL     1     -10.183   5.260  68.555  1.00  0.00    -0.214 C  
HETATM    2  C   UNL     1     -10.874   6.466  69.165  1.00  0.00    -0.382 C  
ENDROOT
BRANCH   2   3
HETATM    3  C   UNL     1      -9.919   7.649  69.275  1.00  0.00    -0.180 C  
BRANCH   3   4
HETATM    4  C   UNL     1     -10.677   8.975  69.243  1.00  0.00    -0.189 C  
BRANCH   4   5
HETATM    5  C   UNL     1      -9.926   9.971  68.369  1.00  0.00    -0.178 C  
BRANCH   5   6
HETATM    6  C   UNL     1      -8.967   9.321  67.416  1.00  0.00    -0.135 C  
HETATM    7  C   UNL     1      -9.099   9.422  66.084  1.00  0.00    -0.214 C  
BRANCH   7   8
HETATM    8  C   UNL     1     -10.212  10.160  65.403  1.00  0.00    -0.281 C  
BRANCH   8   9
HETATM    9  C   UNL     1      -9.764  10.792  64.122  1.00  0.00    -0.364 C  
HETATM   10  C   UNL     1     -10.507  11.627  63.381  1.00  0.00    -0.482 C  
BRANCH  10  11
HETATM   11  C   UNL     1     -11.934  11.985  63.666  1.00  0.00    -0.612 C  
BRANCH  11  12
HETATM   12  C   UNL     1     -12.096  13.459  63.913  1.00  0.00    -0.514 C  
HETATM   13  C   UNL     1     -12.179  14.028  65.126  1.00  0.00    -0.446 C  
BRANCH  13  14
HETATM   14  C   UNL     1     -12.130  13.225  66.390  1.00  0.00    -0.454 C  
BRANCH  14  15
HETATM   15  C   UNL     1     -10.817  13.352  67.150  1.00  0.00    -0.284 C  
BRANCH  15  16
HETATM   16  C   UNL     1     -11.085  13.988  68.514  1.00  0.00    -0.279 C  
BRANCH  16  17
HETATM   17  C   UNL     1     -11.556  15.429  68.374  1.00  0.00    -0.368 C  
HETATM   18  C   UNL     1     -10.450  16.409  68.685  1.00  0.00    -0.293 C  
HETATM   19  O   UNL     1      -9.311  16.113  69.012  1.00  0.00    -0.225 OA 
HETATM   20  O   UNL     1     -10.857  17.694  68.563  1.00  0.00    -0.253 OA 
ENDBRANCH  16  17
ENDBRANCH  15  16
ENDBRANCH  14  15
ENDBRANCH  13  14
ENDBRANCH  11  12
ENDBRANCH  10  11
ENDBRANCH   8   9
ENDBRANCH   7   8
ENDBRANCH   5   6
ENDBRANCH   4   5
ENDBRANCH   3   4
ENDBRANCH   2   3
TORSDOF 12
ENDMDL
MODEL      213
REMARK 921   NORMALIZED FREE ENERGY PREDICTED BY IDOCK:   -3.62 KCAL/MOL
REMARK 922        TOTAL FREE ENERGY PREDICTED BY IDOCK:   -8.12 KCAL/MOL
REMARK 923 INTER-LIGAND FREE ENERGY PREDICTED BY IDOCK:   -5.84 KCAL/MOL
REMARK 924 INTRA-LIGAND FREE ENERGY PREDICTED BY IDOCK:   -2.29 KCAL/MOL
REMARK 927      BINDING AFFINITY PREDICTED BY RF-SCORE:    0.00 PKD
ROOT
HETATM    1  C   UNL     1      -8.197   8.301  71.842  1.00  0.00    -0.195 C  
HETATM    2  C   UNL     1      -7.304   7.191  71.316  1.00  0.00    -0.079 C  
ENDROOT
BRANCH   2   3
HETATM    3  C   UNL     1      -8.089   6.223  70.439  1.00  0.00    -0.116 C  
BRANCH   3   4
HETATM    4  C   UNL     1      -8.687   5.088  71.269  1.00  0.00    -0.140 C  
BRANCH   4   5
HETATM    5  C   UNL     1     -10.045   4.701  70.699  1.00  0.00    -0.261 C  
BRANCH   5   6
HETATM    6  C   UNL     1     -10.565   5.675  69.685  1.00  0.00    -0.401 C  
HETATM    7  C   UNL     1     -11.559   6.536  69.959  1.00  0.00    -0.455 C  
BRANCH   7   8
HETATM    8  C   UNL     1     -12.270   6.606  71.277  1.00  0.00    -0.369 C  
BRANCH   8   9
HETATM    9  C   UNL     1     -11.577   7.522  72.238  1.00  0.00    -0.354 C  
HETATM   10  C   UNL     1     -12.009   8.747  72.572  1.00  0.00    -0.301 C  
BRANCH  10  11
HETATM   11  C   UNL     1     -13.197   9.431  71.967  1.00  0.00    -0.529 C  
BRANCH  11  12
HETATM   12  C   UNL     1     -13.024  10.923  71.941  1.00  0.00    -0.502 C  
HETATM   13  C   UNL     1     -12.548  11.621  70.898  1.00  0.00    -0.409 C  
BRANCH  13  14
HETATM   14  C   UNL     1     -12.118  10.960  69.624  1.00  0.00    -0.400 C  
BRANCH  14  15
HETATM   15  C   UNL     1     -10.668  10.497  69.630  1.00  0.00    -0.302 C  
BRANCH  15  16
HETATM   16  C   UNL     1     -10.412   9.630  68.397  1.00  0.00    -0.258 C  
BRANCH  16  17
HETATM   17  C   UNL     1      -9.308  10.210  67.526  1.00  0.00    -0.168 C  
HETATM   18  C   UNL     1      -9.863  11.122  66.458  1.00  0.00    -0.208 C  
HETATM   19  O   UNL     1     -11.046  11.378  66.287  1.00  0.00    -0.289 OA 
HETATM   20  O   UNL     1      -8.890  11.645  65.676  1.00  0.00    -0.100 OA 
ENDBRANCH  16  17
ENDBRANCH  15  16
ENDBRANCH  14  15
ENDBRANCH  13  14
ENDBRANCH  11  12
ENDBRANCH  10  11
ENDBRANCH   8   9
ENDBRANCH   7   8
ENDBRANCH   5   6
ENDBRANCH   4   5
ENDBRANCH   3   4
ENDBRANCH   2   3
TORSDOF 12
ENDMDL
MODEL      214
REMARK 921   NORMALIZED FREE ENERGY PREDICTED BY IDOCK:   -3.62 KCAL/MOL
REMARK 922        TOTAL FREE ENERGY PREDICTED BY IDOCK:   -8.11 KCAL/MOL
REMARK 923 INTER-LIGAND FREE ENERGY PREDICTED BY IDOCK:   -6.53 KCAL/MOL
REMARK 924 INTRA-LIGAND FREE ENERGY PREDICTED BY IDOCK:   -1.58 KCAL/MOL
REMARK 927      BINDING AFFINITY PREDICTED BY RF-SCORE:    0.00 PKD
ROOT
HETATM    1  C   UNL     1     -11.661  11.326  69.266  1.00  0.00    -0.403 C  
HETATM    2  C   UNL     1     -11.628  12.841  69.364  1.00  0.00    -0.361 C  
ENDROOT
BRANCH   2   3
HETATM    3  C   UNL     1     -12.313  13.324  70.637  1.00  0.00    -0.416 C  
BRANCH   3   4
HETATM    4  C   UNL     1     -12.551  14.833  70.597  1.00  0.00    -0.414 C  
BRANCH   4   5
HETATM    5  C   UNL     1     -11.929  15.414  69.335  1.00  0.00    -0.351 C  
BRANCH   5   6
HETATM    6  C   UNL     1     -10.614  16.093  69.578  1.00  0.00    -0.306 C  
HETATM    7  C   UNL     1     -10.042  16.897  68.668  1.00  0.00    -0.291 C  
BRANCH   7   8
HETATM    8  C   UNL     1     -10.625  17.187  67.317  1.00  0.00    -0.270 C  
BRANCH   8   9
HETATM    9  C   UNL     1      -9.812  16.580  66.216  1.00  0.00    -0.336 C  
HETATM   10  C   UNL     1     -10.152  15.475  65.536  1.00  0.00    -0.406 C  
BRANCH  10  11
HETATM   11  C   UNL     1     -11.345  14.619  65.834  1.00  0.00    -0.338 C  
BRANCH  11  12
HETATM   12  C   UNL     1     -12.103  14.272  64.583  1.00  0.00    -0.478 C  
HETATM   13  C   UNL     1     -11.842  13.215  63.797  1.00  0.00    -0.546 C  
BRANCH  13  14
HETATM   14  C   UNL     1     -10.727  12.257  64.091  1.00  0.00    -0.412 C  
BRANCH  14  15
HETATM   15  C   UNL     1     -11.133  11.101  64.996  1.00  0.00    -0.100 C  
BRANCH  15  16
HETATM   16  C   UNL     1      -9.970  10.115  65.101  1.00  0.00    -0.379 C  
BRANCH  16  17
HETATM   17  C   UNL     1      -9.953   9.414  66.452  1.00  0.00    -0.346 C  
HETATM   18  C   UNL     1      -8.906   9.998  67.369  1.00  0.00    -0.128 C  
HETATM   19  O   UNL     1      -8.150  10.917  67.090  1.00  0.00    -0.120 OA 
HETATM   20  O   UNL     1      -8.882   9.384  68.575  1.00  0.00    -0.127 OA 
ENDBRANCH  16  17
ENDBRANCH  15  16
ENDBRANCH  14  15
ENDBRANCH  13  14
ENDBRANCH  11  12
ENDBRANCH  10  11
ENDBRANCH   8   9
ENDBRANCH   7   8
ENDBRANCH   5   6
ENDBRANCH   4   5
ENDBRANCH   3   4
ENDBRANCH   2   3
TORSDOF 12
ENDMDL
MODEL      215
REMARK 921   NORMALIZED FREE ENERGY PREDICTED BY IDOCK:   -3.61 KCAL/MOL
REMARK 922        TOTAL FREE ENERGY PREDICTED BY IDOCK:   -8.10 KCAL/MOL
REMARK 923 INTER-LIGAND FREE ENERGY PREDICTED BY IDOCK:   -6.72 KCAL/MOL
REMARK 924 INTRA-LIGAND FREE ENERGY PREDICTED BY IDOCK:   -1.38 KCAL/MOL
REMARK 927      BINDING AFFINITY PREDICTED BY RF-SCORE:    0.00 PKD
ROOT
HETATM    1  C   UNL     1      -9.397  11.256  62.591  1.00  0.00    -0.313 C  
HETATM    2  C   UNL     1     -10.532  12.052  63.211  1.00  0.00    -0.403 C  
ENDROOT
BRANCH   2   3
HETATM    3  C   UNL     1     -10.915  11.492  64.576  1.00  0.00    -0.367 C  
BRANCH   3   4
HETATM    4  C   UNL     1     -10.007  12.045  65.674  1.00  0.00    -0.270 C  
BRANCH   4   5
HETATM    5  C   UNL     1      -9.613  10.921  66.622  1.00  0.00    -0.213 C  
BRANCH   5   6
HETATM    6  C   UNL     1      -9.030   9.729  65.924  1.00  0.00    -0.189 C  
HETATM    7  C   UNL     1      -9.478   8.481  66.135  1.00  0.00    -0.286 C  
BRANCH   7   8
HETATM    8  C   UNL     1     -10.576   8.135  67.095  1.00  0.00    -0.355 C  
BRANCH   8   9
HETATM    9  C   UNL     1     -10.974   6.695  66.994  1.00  0.00    -0.463 C  
HETATM   10  C   UNL     1     -10.643   5.747  67.884  1.00  0.00    -0.304 C  
BRANCH  10  11
HETATM   11  C   UNL     1      -9.746   5.958  69.066  1.00  0.00    -0.170 C  
BRANCH  11  12
HETATM   12  C   UNL     1     -10.312   5.331  70.309  1.00  0.00    -0.350 C  
HETATM   13  C   UNL     1     -10.667   6.006  71.414  1.00  0.00    -0.314 C  
BRANCH  13  14
HETATM   14  C   UNL     1     -10.516   7.492  71.525  1.00  0.00    -0.226 C  
BRANCH  14  15
HETATM   15  C   UNL     1     -11.604   8.160  72.355  1.00  0.00    -0.463 C  
BRANCH  15  16
HETATM   16  C   UNL     1     -12.713   8.653  71.425  1.00  0.00    -0.308 C  
BRANCH  16  17
HETATM   17  C   UNL     1     -13.444   9.851  72.015  1.00  0.00    -0.478 C  
HETATM   18  C   UNL     1     -12.892  11.154  71.489  1.00  0.00    -0.437 C  
HETATM   19  O   UNL     1     -11.973  11.266  70.692  1.00  0.00    -0.345 OA 
HETATM   20  O   UNL     1     -13.535  12.227  72.006  1.00  0.00    -0.467 OA 
ENDBRANCH  16  17
ENDBRANCH  15  16
ENDBRANCH  14  15
ENDBRANCH  13  14
ENDBRANCH  11  12
ENDBRANCH  10  11
ENDBRANCH   8   9
ENDBRANCH   7   8
ENDBRANCH   5   6
ENDBRANCH   4   5
ENDBRANCH   3   4
ENDBRANCH   2   3
TORSDOF 12
ENDMDL
MODEL      216
REMARK 921   NORMALIZED FREE ENERGY PREDICTED BY IDOCK:   -3.61 KCAL/MOL
REMARK 922        TOTAL FREE ENERGY PREDICTED BY IDOCK:   -8.10 KCAL/MOL
REMARK 923 INTER-LIGAND FREE ENERGY PREDICTED BY IDOCK:   -6.74 KCAL/MOL
REMARK 924 INTRA-LIGAND FREE ENERGY PREDICTED BY IDOCK:   -1.36 KCAL/MOL
REMARK 927      BINDING AFFINITY PREDICTED BY RF-SCORE:    0.00 PKD
ROOT
HETATM    1  C   UNL     1     -12.294  12.485  63.568  1.00  0.00    -0.623 C  
HETATM    2  C   UNL     1     -11.140  11.719  64.191  1.00  0.00    -0.442 C  
ENDROOT
BRANCH   2   3
HETATM    3  C   UNL     1     -10.134  11.285  63.132  1.00  0.00    -0.385 C  
BRANCH   3   4
HETATM    4  C   UNL     1      -9.179  10.225  63.680  1.00  0.00    -0.315 C  
BRANCH   4   5
HETATM    5  C   UNL     1      -9.051  10.385  65.189  1.00  0.00    -0.232 C  
BRANCH   5   6
HETATM    6  C   UNL     1      -8.467   9.182  65.868  1.00  0.00    -0.150 C  
HETATM    7  C   UNL     1      -9.182   8.408  66.699  1.00  0.00    -0.226 C  
BRANCH   7   8
HETATM    8  C   UNL     1     -10.615   8.663  67.061  1.00  0.00    -0.293 C  
BRANCH   8   9
HETATM    9  C   UNL     1     -10.757   9.820  68.001  1.00  0.00    -0.298 C  
HETATM   10  C   UNL     1     -10.678   9.733  69.337  1.00  0.00    -0.250 C  
BRANCH  10  11
HETATM   11  C   UNL     1     -10.531   8.454  70.104  1.00  0.00    -0.230 C  
BRANCH  11  12
HETATM   12  C   UNL     1     -10.591   8.689  71.588  1.00  0.00    -0.374 C  
HETATM   13  C   UNL     1     -11.721   8.730  72.311  1.00  0.00    -0.398 C  
BRANCH  13  14
HETATM   14  C   UNL     1     -13.074   8.554  71.691  1.00  0.00    -0.368 C  
BRANCH  14  15
HETATM   15  C   UNL     1     -13.817   9.861  71.456  1.00  0.00    -0.106 C  
BRANCH  15  16
HETATM   16  C   UNL     1     -13.090  10.991  72.185  1.00  0.00    -0.300 C  
BRANCH  16  17
HETATM   17  C   UNL     1     -12.787  12.154  71.252  1.00  0.00    -0.349 C  
HETATM   18  C   UNL     1     -13.279  13.465  71.817  1.00  0.00    -0.407 C  
HETATM   19  O   UNL     1     -13.855  13.605  72.886  1.00  0.00    -0.659 OA 
HETATM   20  O   UNL     1     -13.015  14.507  70.996  1.00  0.00    -0.332 OA 
ENDBRANCH  16  17
ENDBRANCH  15  16
ENDBRANCH  14  15
ENDBRANCH  13  14
ENDBRANCH  11  12
ENDBRANCH  10  11
ENDBRANCH   8   9
ENDBRANCH   7   8
ENDBRANCH   5   6
ENDBRANCH   4   5
ENDBRANCH   3   4
ENDBRANCH   2   3
TORSDOF 12
ENDMDL
MODEL      217
REMARK 921   NORMALIZED FREE ENERGY PREDICTED BY IDOCK:   -3.61 KCAL/MOL
REMARK 922        TOTAL FREE ENERGY PREDICTED BY IDOCK:   -8.09 KCAL/MOL
REMARK 923 INTER-LIGAND FREE ENERGY PREDICTED BY IDOCK:   -5.61 KCAL/MOL
REMARK 924 INTRA-LIGAND FREE ENERGY PREDICTED BY IDOCK:   -2.48 KCAL/MOL
REMARK 927      BINDING AFFINITY PREDICTED BY RF-SCORE:    0.00 PKD
ROOT
HETATM    1  C   UNL     1     -10.720  14.432  65.040  1.00  0.00    -0.440 C  
HETATM    2  C   UNL     1     -10.875  15.937  64.916  1.00  0.00    -0.420 C  
ENDROOT
BRANCH   2   3
HETATM    3  C   UNL     1     -10.040  16.664  65.963  1.00  0.00    -0.359 C  
BRANCH   3   4
HETATM    4  C   UNL     1     -10.930  17.394  66.968  1.00  0.00     0.085 C  
BRANCH   4   5
HETATM    5  C   UNL     1     -10.219  18.646  67.463  1.00  0.00    -0.425 C  
BRANCH   5   6
HETATM    6  C   UNL     1      -9.564  19.432  66.366  1.00  0.00    -0.443 C  
HETATM    7  C   UNL     1      -8.285  19.835  66.436  1.00  0.00    -0.371 C  
BRANCH   7   8
HETATM    8  C   UNL     1      -7.385  19.575  67.607  1.00  0.00    -0.277 C  
BRANCH   8   9
HETATM    9  C   UNL     1      -6.351  18.537  67.298  1.00  0.00    -0.193 C  
HETATM   10  C   UNL     1      -6.350  17.290  67.791  1.00  0.00    -0.161 C  
BRANCH  10  11
HETATM   11  C   UNL     1      -7.327  16.767  68.800  1.00  0.00    -0.227 C  
BRANCH  11  12
HETATM   12  C   UNL     1      -6.953  15.389  69.270  1.00  0.00    -0.168 C  
HETATM   13  C   UNL     1      -7.606  14.264  68.941  1.00  0.00    -0.113 C  
BRANCH  13  14
HETATM   14  C   UNL     1      -8.817  14.272  68.058  1.00  0.00    -0.178 C  
BRANCH  14  15
HETATM   15  C   UNL     1      -9.890  13.276  68.477  1.00  0.00    -0.169 C  
BRANCH  15  16
HETATM   16  C   UNL     1     -11.177  14.033  68.806  1.00  0.00    -0.298 C  
BRANCH  16  17
HETATM   17  C   UNL     1     -10.951  15.066  69.901  1.00  0.00    -0.282 C  
HETATM   18  C   UNL     1     -12.150  15.183  70.812  1.00  0.00    -0.336 C  
HETATM   19  O   UNL     1     -13.186  14.543  70.707  1.00  0.00    -0.364 OA 
HETATM   20  O   UNL     1     -11.961  16.098  71.790  1.00  0.00    -0.474 OA 
ENDBRANCH  16  17
ENDBRANCH  15  16
ENDBRANCH  14  15
ENDBRANCH  13  14
ENDBRANCH  11  12
ENDBRANCH  10  11
ENDBRANCH   8   9
ENDBRANCH   7   8
ENDBRANCH   5   6
ENDBRANCH   4   5
ENDBRANCH   3   4
ENDBRANCH   2   3
TORSDOF 12
ENDMDL
MODEL      218
REMARK 921   NORMALIZED FREE ENERGY PREDICTED BY IDOCK:   -3.61 KCAL/MOL
REMARK 922        TOTAL FREE ENERGY PREDICTED BY IDOCK:   -8.09 KCAL/MOL
REMARK 923 INTER-LIGAND FREE ENERGY PREDICTED BY IDOCK:   -6.13 KCAL/MOL
REMARK 924 INTRA-LIGAND FREE ENERGY PREDICTED BY IDOCK:   -1.96 KCAL/MOL
REMARK 927      BINDING AFFINITY PREDICTED BY RF-SCORE:    0.00 PKD
ROOT
HETATM    1  C   UNL     1     -11.282  14.900  65.838  1.00  0.00    -0.328 C  
HETATM    2  C   UNL     1     -10.582  15.873  66.770  1.00  0.00    -0.309 C  
ENDROOT
BRANCH   2   3
HETATM    3  C   UNL     1     -11.263  15.915  68.133  1.00  0.00    -0.339 C  
BRANCH   3   4
HETATM    4  C   UNL     1     -10.249  15.743  69.263  1.00  0.00    -0.248 C  
BRANCH   4   5
HETATM    5  C   UNL     1     -10.983  15.528  70.579  1.00  0.00    -0.368 C  
BRANCH   5   6
HETATM    6  C   UNL     1     -12.465  15.737  70.475  1.00  0.00    -0.371 C  
HETATM    7  C   UNL     1     -13.329  15.200  71.350  1.00  0.00    -0.547 C  
BRANCH   7   8
HETATM    8  C   UNL     1     -12.927  14.324  72.498  1.00  0.00    -0.506 C  
BRANCH   8   9
HETATM    9  C   UNL     1     -13.544  12.962  72.407  1.00  0.00    -0.577 C  
HETATM   10  C   UNL     1     -13.139  11.996  71.568  1.00  0.00    -0.362 C  
BRANCH  10  11
HETATM   11  C   UNL     1     -12.073  12.156  70.528  1.00  0.00    -0.383 C  
BRANCH  11  12
HETATM   12  C   UNL     1     -12.332  11.282  69.332  1.00  0.00    -0.216 C  
HETATM   13  C   UNL     1     -11.520  11.181  68.268  1.00  0.00    -0.373 C  
BRANCH  13  14
HETATM   14  C   UNL     1     -10.247  11.962  68.157  1.00  0.00    -0.203 C  
BRANCH  14  15
HETATM   15  C   UNL     1      -9.136  11.225  67.420  1.00  0.00    -0.151 C  
BRANCH  15  16
HETATM   16  C   UNL     1      -8.242  12.244  66.712  1.00  0.00    -0.058 C  
BRANCH  16  17
HETATM   17  C   UNL     1      -8.116  13.530  67.516  1.00  0.00    -0.190 C  
HETATM   18  C   UNL     1      -6.672  13.894  67.761  1.00  0.00    -0.176 C  
HETATM   19  O   UNL     1      -5.703  13.255  67.378  1.00  0.00    -0.333 OA 
HETATM   20  O   UNL     1      -6.547  15.037  68.475  1.00  0.00    -0.089 OA 
ENDBRANCH  16  17
ENDBRANCH  15  16
ENDBRANCH  14  15
ENDBRANCH  13  14
ENDBRANCH  11  12
ENDBRANCH  10  11
ENDBRANCH   8   9
ENDBRANCH   7   8
ENDBRANCH   5   6
ENDBRANCH   4   5
ENDBRANCH   3   4
ENDBRANCH   2   3
TORSDOF 12
ENDMDL
MODEL      219
REMARK 921   NORMALIZED FREE ENERGY PREDICTED BY IDOCK:   -3.60 KCAL/MOL
REMARK 922        TOTAL FREE ENERGY PREDICTED BY IDOCK:   -8.07 KCAL/MOL
REMARK 923 INTER-LIGAND FREE ENERGY PREDICTED BY IDOCK:   -6.52 KCAL/MOL
REMARK 924 INTRA-LIGAND FREE ENERGY PREDICTED BY IDOCK:   -1.56 KCAL/MOL
REMARK 927      BINDING AFFINITY PREDICTED BY RF-SCORE:    0.00 PKD
ROOT
HETATM    1  C   UNL     1     -11.991  10.286  70.320  1.00  0.00    -0.348 C  
HETATM    2  C   UNL     1     -12.633  10.479  71.682  1.00  0.00    -0.498 C  
ENDROOT
BRANCH   2   3
HETATM    3  C   UNL     1     -13.147  11.904  71.851  1.00  0.00    -0.474 C  
BRANCH   3   4
HETATM    4  C   UNL     1     -12.475  12.853  70.860  1.00  0.00    -0.383 C  
BRANCH   4   5
HETATM    5  C   UNL     1     -13.146  14.218  70.928  1.00  0.00    -0.368 C  
BRANCH   5   6
HETATM    6  C   UNL     1     -12.490  15.157  71.896  1.00  0.00    -0.419 C  
HETATM    7  C   UNL     1     -11.581  16.067  71.511  1.00  0.00    -0.529 C  
BRANCH   7   8
HETATM    8  C   UNL     1     -11.105  16.233  70.099  1.00  0.00    -0.346 C  
BRANCH   8   9
HETATM    9  C   UNL     1     -10.008  15.271  69.762  1.00  0.00    -0.210 C  
HETATM   10  C   UNL     1      -9.704  14.865  68.520  1.00  0.00    -0.215 C  
BRANCH  10  11
HETATM   11  C   UNL     1     -10.471  15.234  67.286  1.00  0.00    -0.275 C  
BRANCH  11  12
HETATM   12  C   UNL     1     -11.884  14.727  67.342  1.00  0.00    -0.320 C  
HETATM   13  C   UNL     1     -12.280  13.516  66.919  1.00  0.00    -0.377 C  
BRANCH  13  14
HETATM   14  C   UNL     1     -11.327  12.527  66.321  1.00  0.00    -0.386 C  
BRANCH  14  15
HETATM   15  C   UNL     1     -10.822  11.484  67.310  1.00  0.00    -0.301 C  
BRANCH  15  16
HETATM   16  C   UNL     1      -9.951  10.470  66.568  1.00  0.00    -0.266 C  
BRANCH  16  17
HETATM   17  C   UNL     1     -10.334   9.041  66.923  1.00  0.00    -0.324 C  
HETATM   18  C   UNL     1      -9.307   8.050  66.428  1.00  0.00    -0.200 C  
HETATM   19  O   UNL     1      -8.288   8.330  65.814  1.00  0.00    -0.121 OA 
HETATM   20  O   UNL     1      -9.636   6.775  66.739  1.00  0.00    -0.155 OA 
ENDBRANCH  16  17
ENDBRANCH  15  16
ENDBRANCH  14  15
ENDBRANCH  13  14
ENDBRANCH  11  12
ENDBRANCH  10  11
ENDBRANCH   8   9
ENDBRANCH   7   8
ENDBRANCH   5   6
ENDBRANCH   4   5
ENDBRANCH   3   4
ENDBRANCH   2   3
TORSDOF 12
ENDMDL
MODEL      220
REMARK 921   NORMALIZED FREE ENERGY PREDICTED BY IDOCK:   -3.59 KCAL/MOL
REMARK 922        TOTAL FREE ENERGY PREDICTED BY IDOCK:   -8.06 KCAL/MOL
REMARK 923 INTER-LIGAND FREE ENERGY PREDICTED BY IDOCK:   -6.26 KCAL/MOL
REMARK 924 INTRA-LIGAND FREE ENERGY PREDICTED BY IDOCK:   -1.81 KCAL/MOL
REMARK 927      BINDING AFFINITY PREDICTED BY RF-SCORE:    0.00 PKD
ROOT
HETATM    1  C   UNL     1     -11.074   6.941  67.357  1.00  0.00    -0.322 C  
HETATM    2  C   UNL     1      -9.789   6.569  68.075  1.00  0.00    -0.129 C  
ENDROOT
BRANCH   2   3
HETATM    3  C   UNL     1      -9.372   7.660  69.055  1.00  0.00    -0.146 C  
BRANCH   3   4
HETATM    4  C   UNL     1     -10.064   8.984  68.734  1.00  0.00    -0.214 C  
BRANCH   4   5
HETATM    5  C   UNL     1      -9.983   9.906  69.942  1.00  0.00    -0.292 C  
BRANCH   5   6
HETATM    6  C   UNL     1     -10.636   9.341  71.169  1.00  0.00    -0.402 C  
HETATM    7  C   UNL     1     -11.906   9.620  71.500  1.00  0.00    -0.483 C  
BRANCH   7   8
HETATM    8  C   UNL     1     -12.799  10.532  70.714  1.00  0.00    -0.454 C  
BRANCH   8   9
HETATM    9  C   UNL     1     -12.677  11.956  71.160  1.00  0.00    -0.384 C  
HETATM   10  C   UNL     1     -12.311  12.976  70.369  1.00  0.00    -0.351 C  
BRANCH  10  11
HETATM   11  C   UNL     1     -11.874  12.839  68.942  1.00  0.00    -0.351 C  
BRANCH  11  12
HETATM   12  C   UNL     1     -11.367  14.142  68.391  1.00  0.00    -0.315 C  
HETATM   13  C   UNL     1     -11.572  14.575  67.138  1.00  0.00    -0.406 C  
BRANCH  13  14
HETATM   14  C   UNL     1     -12.337  13.773  66.130  1.00  0.00    -0.496 C  
BRANCH  14  15
HETATM   15  C   UNL     1     -11.500  13.316  64.943  1.00  0.00    -0.342 C  
BRANCH  15  16
HETATM   16  C   UNL     1     -10.273  12.561  65.456  1.00  0.00    -0.295 C  
BRANCH  16  17
HETATM   17  C   UNL     1     -10.387  11.067  65.190  1.00  0.00    -0.346 C  
HETATM   18  C   UNL     1      -9.075  10.358  65.429  1.00  0.00    -0.189 C  
HETATM   19  O   UNL     1      -8.035  10.890  65.789  1.00  0.00    -0.150 OA 
HETATM   20  O   UNL     1      -9.164   9.028  65.197  1.00  0.00    -0.192 OA 
ENDBRANCH  16  17
ENDBRANCH  15  16
ENDBRANCH  14  15
ENDBRANCH  13  14
ENDBRANCH  11  12
ENDBRANCH  10  11
ENDBRANCH   8   9
ENDBRANCH   7   8
ENDBRANCH   5   6
ENDBRANCH   4   5
ENDBRANCH   3   4
ENDBRANCH   2   3
TORSDOF 12
ENDMDL
MODEL      221
REMARK 921   NORMALIZED FREE ENERGY PREDICTED BY IDOCK:   -3.59 KCAL/MOL
REMARK 922        TOTAL FREE ENERGY PREDICTED BY IDOCK:   -8.06 KCAL/MOL
REMARK 923 INTER-LIGAND FREE ENERGY PREDICTED BY IDOCK:   -5.63 KCAL/MOL
REMARK 924 INTRA-LIGAND FREE ENERGY PREDICTED BY IDOCK:   -2.44 KCAL/MOL
REMARK 927      BINDING AFFINITY PREDICTED BY RF-SCORE:    0.00 PKD
ROOT
HETATM    1  C   UNL     1      -6.324  12.774  67.398  1.00  0.00    -0.139 C  
HETATM    2  C   UNL     1      -7.683  13.332  67.783  1.00  0.00    -0.159 C  
ENDROOT
BRANCH   2   3
HETATM    3  C   UNL     1      -7.841  14.772  67.309  1.00  0.00    -0.223 C  
BRANCH   3   4
HETATM    4  C   UNL     1      -8.058  15.720  68.487  1.00  0.00    -0.153 C  
BRANCH   4   5
HETATM    5  C   UNL     1      -9.120  15.145  69.415  1.00  0.00    -0.180 C  
BRANCH   5   6
HETATM    6  C   UNL     1     -10.522  15.431  68.964  1.00  0.00    -0.249 C  
HETATM    7  C   UNL     1     -11.372  14.458  68.599  1.00  0.00    -0.298 C  
BRANCH   7   8
HETATM    8  C   UNL     1     -11.020  13.001  68.575  1.00  0.00    -0.290 C  
BRANCH   8   9
HETATM    9  C   UNL     1     -11.836  12.245  67.572  1.00  0.00    -0.331 C  
HETATM   10  C   UNL     1     -11.725  12.378  66.241  1.00  0.00    -0.457 C  
BRANCH  10  11
HETATM   11  C   UNL     1     -10.839  13.369  65.551  1.00  0.00    -0.299 C  
BRANCH  11  12
HETATM   12  C   UNL     1     -11.623  14.271  64.639  1.00  0.00    -0.415 C  
HETATM   13  C   UNL     1     -11.499  15.607  64.591  1.00  0.00    -0.306 C  
BRANCH  13  14
HETATM   14  C   UNL     1     -10.550  16.354  65.478  1.00  0.00    -0.346 C  
BRANCH  14  15
HETATM   15  C   UNL     1     -10.746  17.864  65.455  1.00  0.00     0.020 C  
BRANCH  15  16
HETATM   16  C   UNL     1     -10.621  18.407  66.879  1.00  0.00    -0.381 C  
BRANCH  16  17
HETATM   17  C   UNL     1      -9.174  18.717  67.232  1.00  0.00    -0.297 C  
HETATM   18  C   UNL     1      -9.052  19.301  68.619  1.00  0.00    -0.380 C  
HETATM   19  O   UNL     1      -9.981  19.513  69.384  1.00  0.00    -0.384 OA 
HETATM   20  O   UNL     1      -7.769  19.579  68.946  1.00  0.00    -0.358 OA 
ENDBRANCH  16  17
ENDBRANCH  15  16
ENDBRANCH  14  15
ENDBRANCH  13  14
ENDBRANCH  11  12
ENDBRANCH  10  11
ENDBRANCH   8   9
ENDBRANCH   7   8
ENDBRANCH   5   6
ENDBRANCH   4   5
ENDBRANCH   3   4
ENDBRANCH   2   3
TORSDOF 12
ENDMDL
MODEL      222
REMARK 921   NORMALIZED FREE ENERGY PREDICTED BY IDOCK:   -3.59 KCAL/MOL
REMARK 922        TOTAL FREE ENERGY PREDICTED BY IDOCK:   -8.06 KCAL/MOL
REMARK 923 INTER-LIGAND FREE ENERGY PREDICTED BY IDOCK:   -6.46 KCAL/MOL
REMARK 924 INTRA-LIGAND FREE ENERGY PREDICTED BY IDOCK:   -1.60 KCAL/MOL
REMARK 927      BINDING AFFINITY PREDICTED BY RF-SCORE:    0.00 PKD
ROOT
HETATM    1  C   UNL     1     -11.559  15.460  71.431  1.00  0.00    -0.461 C  
HETATM    2  C   UNL     1     -10.758  15.577  70.147  1.00  0.00    -0.345 C  
ENDROOT
BRANCH   2   3
HETATM    3  C   UNL     1     -11.074  14.430  69.195  1.00  0.00    -0.290 C  
BRANCH   3   4
HETATM    4  C   UNL     1     -11.907  14.911  68.008  1.00  0.00    -0.296 C  
BRANCH   4   5
HETATM    5  C   UNL     1     -11.914  13.842  66.923  1.00  0.00    -0.467 C  
BRANCH   5   6
HETATM    6  C   UNL     1     -12.493  14.317  65.623  1.00  0.00    -0.432 C  
HETATM    7  C   UNL     1     -11.947  14.007  64.437  1.00  0.00    -0.480 C  
BRANCH   7   8
HETATM    8  C   UNL     1     -10.702  13.186  64.275  1.00  0.00    -0.431 C  
BRANCH   8   9
HETATM    9  C   UNL     1     -10.882  12.090  63.271  1.00  0.00    -0.400 C  
HETATM   10  C   UNL     1     -10.208  10.930  63.277  1.00  0.00    -0.317 C  
BRANCH  10  11
HETATM   11  C   UNL     1      -9.102  10.588  64.229  1.00  0.00    -0.256 C  
BRANCH  11  12
HETATM   12  C   UNL     1      -9.458   9.408  65.089  1.00  0.00    -0.255 C  
HETATM   13  C   UNL     1      -9.961   9.489  66.331  1.00  0.00    -0.339 C  
BRANCH  13  14
HETATM   14  C   UNL     1     -10.212  10.802  67.007  1.00  0.00    -0.261 C  
BRANCH  14  15
HETATM   15  C   UNL     1     -11.237  10.729  68.131  1.00  0.00    -0.365 C  
BRANCH  15  16
HETATM   16  C   UNL     1     -10.532  10.954  69.469  1.00  0.00    -0.176 C  
BRANCH  16  17
HETATM   17  C   UNL     1     -10.368   9.652  70.239  1.00  0.00    -0.336 C  
HETATM   18  C   UNL     1      -8.918   9.367  70.549  1.00  0.00    -0.253 C  
HETATM   19  O   UNL     1      -7.972  10.073  70.232  1.00  0.00    -0.170 OA 
HETATM   20  O   UNL     1      -8.759   8.211  71.234  1.00  0.00    -0.128 OA 
ENDBRANCH  16  17
ENDBRANCH  15  16
ENDBRANCH  14  15
ENDBRANCH  13  14
ENDBRANCH  11  12
ENDBRANCH  10  11
ENDBRANCH   8   9
ENDBRANCH   7   8
ENDBRANCH   5   6
ENDBRANCH   4   5
ENDBRANCH   3   4
ENDBRANCH   2   3
TORSDOF 12
ENDMDL
MODEL      223
REMARK 921   NORMALIZED FREE ENERGY PREDICTED BY IDOCK:   -3.58 KCAL/MOL
REMARK 922        TOTAL FREE ENERGY PREDICTED BY IDOCK:   -8.05 KCAL/MOL
REMARK 923 INTER-LIGAND FREE ENERGY PREDICTED BY IDOCK:   -6.92 KCAL/MOL
REMARK 924 INTRA-LIGAND FREE ENERGY PREDICTED BY IDOCK:   -1.13 KCAL/MOL
REMARK 927      BINDING AFFINITY PREDICTED BY RF-SCORE:    0.00 PKD
ROOT
HETATM    1  C   UNL     1     -11.374   3.202  73.424  1.00  0.00    -0.206 C  
HETATM    2  C   UNL     1     -10.955   4.660  73.467  1.00  0.00    -0.395 C  
ENDROOT
BRANCH   2   3
HETATM    3  C   UNL     1      -9.788   4.924  72.523  1.00  0.00    -0.202 C  
BRANCH   3   4
HETATM    4  C   UNL     1      -9.602   3.771  71.539  1.00  0.00    -0.232 C  
BRANCH   4   5
HETATM    5  C   UNL     1      -9.734   4.290  70.114  1.00  0.00    -0.282 C  
BRANCH   5   6
HETATM    6  C   UNL     1      -9.175   5.670  69.929  1.00  0.00    -0.173 C  
HETATM    7  C   UNL     1      -9.938   6.710  69.558  1.00  0.00    -0.178 C  
BRANCH   7   8
HETATM    8  C   UNL     1     -11.405   6.615  69.267  1.00  0.00    -0.301 C  
BRANCH   8   9
HETATM    9  C   UNL     1     -12.233   6.795  70.501  1.00  0.00    -0.253 C  
HETATM   10  C   UNL     1     -12.259   7.909  71.248  1.00  0.00    -0.314 C  
BRANCH  10  11
HETATM   11  C   UNL     1     -11.394   9.112  71.021  1.00  0.00    -0.377 C  
BRANCH  11  12
HETATM   12  C   UNL     1     -12.174  10.389  71.163  1.00  0.00    -0.498 C  
HETATM   13  C   UNL     1     -12.081  11.439  70.333  1.00  0.00    -0.473 C  
BRANCH  13  14
HETATM   14  C   UNL     1     -11.154  11.449  69.157  1.00  0.00    -0.317 C  
BRANCH  14  15
HETATM   15  C   UNL     1     -11.864  11.364  67.812  1.00  0.00    -0.196 C  
BRANCH  15  16
HETATM   16  C   UNL     1     -11.553  12.621  67.000  1.00  0.00    -0.431 C  
BRANCH  16  17
HETATM   17  C   UNL     1     -11.345  12.297  65.528  1.00  0.00    -0.394 C  
HETATM   18  C   UNL     1     -12.279  13.089  64.646  1.00  0.00    -0.421 C  
HETATM   19  O   UNL     1     -13.112  13.895  65.036  1.00  0.00    -0.749 OA 
HETATM   20  O   UNL     1     -12.103  12.810  63.333  1.00  0.00    -0.523 OA 
ENDBRANCH  16  17
ENDBRANCH  15  16
ENDBRANCH  14  15
ENDBRANCH  13  14
ENDBRANCH  11  12
ENDBRANCH  10  11
ENDBRANCH   8   9
ENDBRANCH   7   8
ENDBRANCH   5   6
ENDBRANCH   4   5
ENDBRANCH   3   4
ENDBRANCH   2   3
TORSDOF 12
ENDMDL
MODEL      224
REMARK 921   NORMALIZED FREE ENERGY PREDICTED BY IDOCK:   -3.58 KCAL/MOL
REMARK 922        TOTAL FREE ENERGY PREDICTED BY IDOCK:   -8.05 KCAL/MOL
REMARK 923 INTER-LIGAND FREE ENERGY PREDICTED BY IDOCK:   -6.09 KCAL/MOL
REMARK 924 INTRA-LIGAND FREE ENERGY PREDICTED BY IDOCK:   -1.96 KCAL/MOL
REMARK 927      BINDING AFFINITY PREDICTED BY RF-SCORE:    0.00 PKD
ROOT
HETATM    1  C   UNL     1      -6.867  11.108  68.433  1.00  0.00    -0.066 C  
HETATM    2  C   UNL     1      -6.374  12.424  69.008  1.00  0.00    -0.092 C  
ENDROOT
BRANCH   2   3
HETATM    3  C   UNL     1      -6.863  13.604  68.176  1.00  0.00    -0.121 C  
BRANCH   3   4
HETATM    4  C   UNL     1      -8.307  13.399  67.722  1.00  0.00    -0.178 C  
BRANCH   4   5
HETATM    5  C   UNL     1      -9.082  14.699  67.885  1.00  0.00    -0.189 C  
BRANCH   5   6
HETATM    6  C   UNL     1      -8.745  15.727  66.846  1.00  0.00    -0.274 C  
HETATM    7  C   UNL     1      -9.565  16.009  65.821  1.00  0.00    -0.311 C  
BRANCH   7   8
HETATM    8  C   UNL     1     -10.878  15.324  65.583  1.00  0.00    -0.371 C  
BRANCH   8   9
HETATM    9  C   UNL     1     -10.720  14.083  64.761  1.00  0.00    -0.442 C  
HETATM   10  C   UNL     1     -11.158  12.867  65.121  1.00  0.00    -0.321 C  
BRANCH  10  11
HETATM   11  C   UNL     1     -11.785  12.540  66.442  1.00  0.00    -0.458 C  
BRANCH  11  12
HETATM   12  C   UNL     1     -11.285  11.230  66.983  1.00  0.00    -0.324 C  
HETATM   13  C   UNL     1     -11.066  10.972  68.282  1.00  0.00    -0.316 C  
BRANCH  13  14
HETATM   14  C   UNL     1     -11.293  11.998  69.350  1.00  0.00    -0.317 C  
BRANCH  14  15
HETATM   15  C   UNL     1     -12.198  11.521  70.479  1.00  0.00    -0.469 C  
BRANCH  15  16
HETATM   16  C   UNL     1     -12.244   9.993  70.473  1.00  0.00    -0.308 C  
BRANCH  16  17
HETATM   17  C   UNL     1     -11.399   9.404  71.593  1.00  0.00    -0.452 C  
HETATM   18  C   UNL     1     -12.027   8.158  72.169  1.00  0.00    -0.359 C  
HETATM   19  O   UNL     1     -13.082   7.661  71.804  1.00  0.00    -0.333 OA 
HETATM   20  O   UNL     1     -11.283   7.624  73.166  1.00  0.00    -0.391 OA 
ENDBRANCH  16  17
ENDBRANCH  15  16
ENDBRANCH  14  15
ENDBRANCH  13  14
ENDBRANCH  11  12
ENDBRANCH  10  11
ENDBRANCH   8   9
ENDBRANCH   7   8
ENDBRANCH   5   6
ENDBRANCH   4   5
ENDBRANCH   3   4
ENDBRANCH   2   3
TORSDOF 12
ENDMDL
MODEL      225
REMARK 921   NORMALIZED FREE ENERGY PREDICTED BY IDOCK:   -3.58 KCAL/MOL
REMARK 922        TOTAL FREE ENERGY PREDICTED BY IDOCK:   -8.05 KCAL/MOL
REMARK 923 INTER-LIGAND FREE ENERGY PREDICTED BY IDOCK:   -6.41 KCAL/MOL
REMARK 924 INTRA-LIGAND FREE ENERGY PREDICTED BY IDOCK:   -1.64 KCAL/MOL
REMARK 927      BINDING AFFINITY PREDICTED BY RF-SCORE:    0.00 PKD
ROOT
HETATM    1  C   UNL     1     -11.225   4.866  72.969  1.00  0.00    -0.367 C  
HETATM    2  C   UNL     1     -10.015   4.293  72.254  1.00  0.00    -0.236 C  
ENDROOT
BRANCH   2   3
HETATM    3  C   UNL     1      -9.392   5.322  71.317  1.00  0.00    -0.187 C  
BRANCH   3   4
HETATM    4  C   UNL     1      -8.317   6.138  72.032  1.00  0.00    -0.114 C  
BRANCH   4   5
HETATM    5  C   UNL     1      -8.628   7.622  71.894  1.00  0.00    -0.131 C  
BRANCH   5   6
HETATM    6  C   UNL     1      -9.734   8.085  72.796  1.00  0.00    -0.348 C  
HETATM    7  C   UNL     1     -10.934   8.460  72.327  1.00  0.00    -0.431 C  
BRANCH   7   8
HETATM    8  C   UNL     1     -11.297   8.484  70.872  1.00  0.00    -0.304 C  
BRANCH   8   9
HETATM    9  C   UNL     1     -11.256   9.871  70.309  1.00  0.00    -0.364 C  
HETATM   10  C   UNL     1     -10.440  10.270  69.321  1.00  0.00    -0.250 C  
BRANCH  10  11
HETATM   11  C   UNL     1      -9.378   9.421  68.693  1.00  0.00    -0.142 C  
BRANCH  11  12
HETATM   12  C   UNL     1      -9.929   8.585  67.572  1.00  0.00    -0.258 C  
HETATM   13  C   UNL     1      -9.628   8.749  66.274  1.00  0.00    -0.328 C  
BRANCH  13  14
HETATM   14  C   UNL     1      -8.696   9.822  65.800  1.00  0.00    -0.160 C  
BRANCH  14  15
HETATM   15  C   UNL     1      -9.123  10.472  64.490  1.00  0.00    -0.251 C  
BRANCH  15  16
HETATM   16  C   UNL     1     -10.580  10.920  64.603  1.00  0.00    -0.332 C  
BRANCH  16  17
HETATM   17  C   UNL     1     -10.732  12.405  64.310  1.00  0.00    -0.390 C  
HETATM   18  C   UNL     1     -12.169  12.774  64.030  1.00  0.00    -0.441 C  
HETATM   19  O   UNL     1     -13.114  11.998  64.028  1.00  0.00    -0.660 OA 
HETATM   20  O   UNL     1     -12.317  14.093  63.769  1.00  0.00    -0.716 OA 
ENDBRANCH  16  17
ENDBRANCH  15  16
ENDBRANCH  14  15
ENDBRANCH  13  14
ENDBRANCH  11  12
ENDBRANCH  10  11
ENDBRANCH   8   9
ENDBRANCH   7   8
ENDBRANCH   5   6
ENDBRANCH   4   5
ENDBRANCH   3   4
ENDBRANCH   2   3
TORSDOF 12
ENDMDL
MODEL      226
REMARK 921   NORMALIZED FREE ENERGY PREDICTED BY IDOCK:   -3.58 KCAL/MOL
REMARK 922        TOTAL FREE ENERGY PREDICTED BY IDOCK:   -8.04 KCAL/MOL
REMARK 923 INTER-LIGAND FREE ENERGY PREDICTED BY IDOCK:   -6.32 KCAL/MOL
REMARK 924 INTRA-LIGAND FREE ENERGY PREDICTED BY IDOCK:   -1.72 KCAL/MOL
REMARK 927      BINDING AFFINITY PREDICTED BY RF-SCORE:    0.00 PKD
ROOT
HETATM    1  C   UNL     1     -10.290  14.915  65.131  1.00  0.00    -0.431 C  
HETATM    2  C   UNL     1      -9.514  15.940  65.939  1.00  0.00    -0.372 C  
ENDROOT
BRANCH   2   3
HETATM    3  C   UNL     1     -10.412  16.630  66.958  1.00  0.00    -0.283 C  
BRANCH   3   4
HETATM    4  C   UNL     1     -10.061  16.203  68.382  1.00  0.00    -0.236 C  
BRANCH   4   5
HETATM    5  C   UNL     1     -11.311  15.689  69.083  1.00  0.00    -0.341 C  
BRANCH   5   6
HETATM    6  C   UNL     1     -12.035  14.628  68.309  1.00  0.00    -0.282 C  
HETATM    7  C   UNL     1     -12.150  13.367  68.752  1.00  0.00    -0.281 C  
BRANCH   7   8
HETATM    8  C   UNL     1     -11.559  12.871  70.037  1.00  0.00    -0.189 C  
BRANCH   8   9
HETATM    9  C   UNL     1     -12.152  11.562  70.458  1.00  0.00    -0.472 C  
HETATM   10  C   UNL     1     -11.622  10.360  70.187  1.00  0.00    -0.392 C  
BRANCH  10  11
HETATM   11  C   UNL     1     -10.406  10.132  69.341  1.00  0.00    -0.251 C  
BRANCH  11  12
HETATM   12  C   UNL     1     -10.761  10.010  67.886  1.00  0.00    -0.322 C  
HETATM   13  C   UNL     1     -10.586   8.904  67.145  1.00  0.00    -0.301 C  
BRANCH  13  14
HETATM   14  C   UNL     1      -9.991   7.650  67.709  1.00  0.00    -0.219 C  
BRANCH  14  15
HETATM   15  C   UNL     1     -11.005   6.538  67.941  1.00  0.00    -0.382 C  
BRANCH  15  16
HETATM   16  C   UNL     1     -10.762   5.916  69.317  1.00  0.00    -0.401 C  
BRANCH  16  17
HETATM   17  C   UNL     1     -11.609   6.585  70.389  1.00  0.00    -0.470 C  
HETATM   18  C   UNL     1     -10.762   7.088  71.534  1.00  0.00    -0.221 C  
HETATM   19  O   UNL     1      -9.548   6.982  71.619  1.00  0.00    -0.158 OA 
HETATM   20  O   UNL     1     -11.504   7.686  72.495  1.00  0.00    -0.318 OA 
ENDBRANCH  16  17
ENDBRANCH  15  16
ENDBRANCH  14  15
ENDBRANCH  13  14
ENDBRANCH  11  12
ENDBRANCH  10  11
ENDBRANCH   8   9
ENDBRANCH   7   8
ENDBRANCH   5   6
ENDBRANCH   4   5
ENDBRANCH   3   4
ENDBRANCH   2   3
TORSDOF 12
ENDMDL
MODEL      227
REMARK 921   NORMALIZED FREE ENERGY PREDICTED BY IDOCK:   -3.57 KCAL/MOL
REMARK 922        TOTAL FREE ENERGY PREDICTED BY IDOCK:   -8.03 KCAL/MOL
REMARK 923 INTER-LIGAND FREE ENERGY PREDICTED BY IDOCK:   -6.03 KCAL/MOL
REMARK 924 INTRA-LIGAND FREE ENERGY PREDICTED BY IDOCK:   -2.00 KCAL/MOL
REMARK 927      BINDING AFFINITY PREDICTED BY RF-SCORE:    0.00 PKD
ROOT
HETATM    1  C   UNL     1      -7.203  13.987  67.469  1.00  0.00    -0.183 C  
HETATM    2  C   UNL     1      -7.704  15.379  67.813  1.00  0.00    -0.160 C  
ENDROOT
BRANCH   2   3
HETATM    3  C   UNL     1      -7.068  16.430  66.912  1.00  0.00    -0.256 C  
BRANCH   3   4
HETATM    4  C   UNL     1      -6.795  17.723  67.678  1.00  0.00    -0.189 C  
BRANCH   4   5
HETATM    5  C   UNL     1      -7.980  18.041  68.579  1.00  0.00    -0.310 C  
BRANCH   5   6
HETATM    6  C   UNL     1      -8.771  19.231  68.124  1.00  0.00    -0.370 C  
HETATM    7  C   UNL     1      -9.982  19.115  67.556  1.00  0.00    -0.433 C  
BRANCH   7   8
HETATM    8  C   UNL     1     -10.664  17.806  67.292  1.00  0.00    -0.249 C  
BRANCH   8   9
HETATM    9  C   UNL     1     -10.411  17.314  65.901  1.00  0.00    -0.287 C  
HETATM   10  C   UNL     1     -10.591  16.049  65.493  1.00  0.00    -0.415 C  
BRANCH  10  11
HETATM   11  C   UNL     1     -10.981  14.909  66.384  1.00  0.00    -0.336 C  
BRANCH  11  12
HETATM   12  C   UNL     1     -12.217  14.214  65.885  1.00  0.00    -0.458 C  
HETATM   13  C   UNL     1     -12.228  13.249  64.952  1.00  0.00    -0.466 C  
BRANCH  13  14
HETATM   14  C   UNL     1     -10.976  12.766  64.287  1.00  0.00    -0.414 C  
BRANCH  14  15
HETATM   15  C   UNL     1     -11.093  11.366  63.698  1.00  0.00    -0.411 C  
BRANCH  15  16
HETATM   16  C   UNL     1      -9.943  10.504  64.220  1.00  0.00    -0.398 C  
BRANCH  16  17
HETATM   17  C   UNL     1      -9.956  10.419  65.739  1.00  0.00    -0.334 C  
HETATM   18  C   UNL     1      -8.589  10.685  66.323  1.00  0.00    -0.153 C  
HETATM   19  O   UNL     1      -7.580  10.938  65.681  1.00  0.00    -0.092 OA 
HETATM   20  O   UNL     1      -8.587  10.613  67.674  1.00  0.00    -0.118 OA 
ENDBRANCH  16  17
ENDBRANCH  15  16
ENDBRANCH  14  15
ENDBRANCH  13  14
ENDBRANCH  11  12
ENDBRANCH  10  11
ENDBRANCH   8   9
ENDBRANCH   7   8
ENDBRANCH   5   6
ENDBRANCH   4   5
ENDBRANCH   3   4
ENDBRANCH   2   3
TORSDOF 12
ENDMDL
MODEL      228
REMARK 921   NORMALIZED FREE ENERGY PREDICTED BY IDOCK:   -3.57 KCAL/MOL
REMARK 922        TOTAL FREE ENERGY PREDICTED BY IDOCK:   -8.03 KCAL/MOL
REMARK 923 INTER-LIGAND FREE ENERGY PREDICTED BY IDOCK:   -6.07 KCAL/MOL
REMARK 924 INTRA-LIGAND FREE ENERGY PREDICTED BY IDOCK:   -1.96 KCAL/MOL
REMARK 927      BINDING AFFINITY PREDICTED BY RF-SCORE:    0.00 PKD
ROOT
HETATM    1  C   UNL     1      -9.821   3.941  71.398  1.00  0.00    -0.243 C  
HETATM    2  C   UNL     1     -10.468   3.659  72.742  1.00  0.00    -0.219 C  
ENDROOT
BRANCH   2   3
HETATM    3  C   UNL     1     -11.295   4.849  73.214  1.00  0.00    -0.408 C  
BRANCH   3   4
HETATM    4  C   UNL     1     -10.412   6.071  73.462  1.00  0.00    -0.275 C  
BRANCH   4   5
HETATM    5  C   UNL     1     -11.048   7.297  72.821  1.00  0.00    -0.362 C  
BRANCH   5   6
HETATM    6  C   UNL     1     -12.039   6.961  71.746  1.00  0.00    -0.385 C  
HETATM    7  C   UNL     1     -11.710   6.940  70.445  1.00  0.00    -0.377 C  
BRANCH   7   8
HETATM    8  C   UNL     1     -10.345   7.269  69.919  1.00  0.00    -0.226 C  
BRANCH   8   9
HETATM    9  C   UNL     1     -10.408   7.947  68.585  1.00  0.00    -0.224 C  
HETATM   10  C   UNL     1     -10.374   9.275  68.401  1.00  0.00    -0.244 C  
BRANCH  10  11
HETATM   11  C   UNL     1     -10.363  10.292  69.502  1.00  0.00    -0.267 C  
BRANCH  11  12
HETATM   12  C   UNL     1     -11.753  10.754  69.842  1.00  0.00    -0.412 C  
HETATM   13  C   UNL     1     -12.135  12.038  69.923  1.00  0.00    -0.334 C  
BRANCH  13  14
HETATM   14  C   UNL     1     -11.183  13.171  69.688  1.00  0.00    -0.088 C  
BRANCH  14  15
HETATM   15  C   UNL     1     -11.825  14.388  69.036  1.00  0.00    -0.358 C  
BRANCH  15  16
HETATM   16  C   UNL     1     -11.915  14.160  67.527  1.00  0.00    -0.419 C  
BRANCH  16  17
HETATM   17  C   UNL     1     -10.575  13.732  66.947  1.00  0.00    -0.276 C  
HETATM   18  C   UNL     1     -10.674  12.401  66.240  1.00  0.00    -0.256 C  
HETATM   19  O   UNL     1     -11.688  11.727  66.133  1.00  0.00    -0.462 OA 
HETATM   20  O   UNL     1      -9.488  12.010  65.718  1.00  0.00    -0.236 OA 
ENDBRANCH  16  17
ENDBRANCH  15  16
ENDBRANCH  14  15
ENDBRANCH  13  14
ENDBRANCH  11  12
ENDBRANCH  10  11
ENDBRANCH   8   9
ENDBRANCH   7   8
ENDBRANCH   5   6
ENDBRANCH   4   5
ENDBRANCH   3   4
ENDBRANCH   2   3
TORSDOF 12
ENDMDL
MODEL      229
REMARK 921   NORMALIZED FREE ENERGY PREDICTED BY IDOCK:   -3.56 KCAL/MOL
REMARK 922        TOTAL FREE ENERGY PREDICTED BY IDOCK:   -8.01 KCAL/MOL
REMARK 923 INTER-LIGAND FREE ENERGY PREDICTED BY IDOCK:   -5.70 KCAL/MOL
REMARK 924 INTRA-LIGAND FREE ENERGY PREDICTED BY IDOCK:   -2.31 KCAL/MOL
REMARK 927      BINDING AFFINITY PREDICTED BY RF-SCORE:    0.00 PKD
ROOT
HETATM    1  C   UNL     1      -9.841  15.468  65.238  1.00  0.00    -0.201 C  
HETATM    2  C   UNL     1     -10.845  16.183  66.124  1.00  0.00    -0.138 C  
ENDROOT
BRANCH   2   3
HETATM    3  C   UNL     1     -10.584  17.685  66.149  1.00  0.00    -0.220 C  
BRANCH   3   4
HETATM    4  C   UNL     1     -10.625  18.228  67.576  1.00  0.00    -0.432 C  
BRANCH   4   5
HETATM    5  C   UNL     1     -10.074  19.647  67.597  1.00  0.00    -0.544 C  
BRANCH   5   6
HETATM    6  C   UNL     1      -9.477  20.074  66.289  1.00  0.00    -0.485 C  
HETATM    7  C   UNL     1      -8.186  19.863  65.986  1.00  0.00    -0.310 C  
BRANCH   7   8
HETATM    8  C   UNL     1      -7.201  19.213  66.910  1.00  0.00    -0.218 C  
BRANCH   8   9
HETATM    9  C   UNL     1      -6.832  17.835  66.454  1.00  0.00    -0.285 C  
HETATM   10  C   UNL     1      -6.981  16.722  67.187  1.00  0.00    -0.226 C  
BRANCH  10  11
HETATM   11  C   UNL     1      -7.450  16.691  68.610  1.00  0.00    -0.211 C  
BRANCH  11  12
HETATM   12  C   UNL     1      -7.143  15.373  69.265  1.00  0.00    -0.179 C  
HETATM   13  C   UNL     1      -7.988  14.331  69.321  1.00  0.00     0.125 C  
BRANCH  13  14
HETATM   14  C   UNL     1      -9.364  14.385  68.731  1.00  0.00    -0.150 C  
BRANCH  14  15
HETATM   15  C   UNL     1     -10.374  15.128  69.596  1.00  0.00    -0.238 C  
BRANCH  15  16
HETATM   16  C   UNL     1     -11.667  14.315  69.668  1.00  0.00    -0.362 C  
BRANCH  16  17
HETATM   17  C   UNL     1     -11.883  13.498  68.403  1.00  0.00    -0.408 C  
HETATM   18  C   UNL     1     -11.797  12.016  68.676  1.00  0.00    -0.311 C  
HETATM   19  O   UNL     1     -11.579  11.506  69.765  1.00  0.00    -0.291 OA 
HETATM   20  O   UNL     1     -11.989  11.277  67.558  1.00  0.00    -0.612 OA 
ENDBRANCH  16  17
ENDBRANCH  15  16
ENDBRANCH  14  15
ENDBRANCH  13  14
ENDBRANCH  11  12
ENDBRANCH  10  11
ENDBRANCH   8   9
ENDBRANCH   7   8
ENDBRANCH   5   6
ENDBRANCH   4   5
ENDBRANCH   3   4
ENDBRANCH   2   3
TORSDOF 12
ENDMDL
MODEL      230
REMARK 921   NORMALIZED FREE ENERGY PREDICTED BY IDOCK:   -3.55 KCAL/MOL
REMARK 922        TOTAL FREE ENERGY PREDICTED BY IDOCK:   -7.99 KCAL/MOL
REMARK 923 INTER-LIGAND FREE ENERGY PREDICTED BY IDOCK:   -6.54 KCAL/MOL
REMARK 924 INTRA-LIGAND FREE ENERGY PREDICTED BY IDOCK:   -1.45 KCAL/MOL
REMARK 927      BINDING AFFINITY PREDICTED BY RF-SCORE:    0.00 PKD
ROOT
HETATM    1  C   UNL     1     -10.295  17.001  67.892  1.00  0.00    -0.338 C  
HETATM    2  C   UNL     1      -9.929  16.257  66.620  1.00  0.00    -0.274 C  
ENDROOT
BRANCH   2   3
HETATM    3  C   UNL     1     -10.757  16.748  65.439  1.00  0.00    -0.201 C  
BRANCH   3   4
HETATM    4  C   UNL     1     -11.274  15.578  64.603  1.00  0.00    -0.381 C  
BRANCH   4   5
HETATM    5  C   UNL     1     -10.470  14.326  64.926  1.00  0.00    -0.454 C  
BRANCH   5   6
HETATM    6  C   UNL     1     -11.277  13.064  64.846  1.00  0.00    -0.329 C  
HETATM    7  C   UNL     1     -11.945  12.571  65.901  1.00  0.00    -0.472 C  
BRANCH   7   8
HETATM    8  C   UNL     1     -11.944  13.196  67.263  1.00  0.00    -0.389 C  
BRANCH   8   9
HETATM    9  C   UNL     1     -10.775  12.747  68.084  1.00  0.00    -0.243 C  
HETATM   10  C   UNL     1     -10.780  11.687  68.906  1.00  0.00    -0.244 C  
BRANCH  10  11
HETATM   11  C   UNL     1     -11.981  10.842  69.205  1.00  0.00    -0.334 C  
BRANCH  11  12
HETATM   12  C   UNL     1     -12.480  11.066  70.605  1.00  0.00    -0.465 C  
HETATM   13  C   UNL     1     -12.326  10.202  71.621  1.00  0.00    -0.471 C  
BRANCH  13  14
HETATM   14  C   UNL     1     -11.634   8.884  71.451  1.00  0.00    -0.382 C  
BRANCH  14  15
HETATM   15  C   UNL     1     -10.147   8.924  71.781  1.00  0.00    -0.407 C  
BRANCH  15  16
HETATM   16  C   UNL     1      -9.657   7.502  72.058  1.00  0.00    -0.189 C  
BRANCH  16  17
HETATM   17  C   UNL     1     -10.471   6.836  73.158  1.00  0.00    -0.296 C  
HETATM   18  C   UNL     1     -10.732   5.381  72.854  1.00  0.00    -0.253 C  
HETATM   19  O   UNL     1     -10.352   4.784  71.857  1.00  0.00    -0.199 OA 
HETATM   20  O   UNL     1     -11.454   4.777  73.826  1.00  0.00    -0.219 OA 
ENDBRANCH  16  17
ENDBRANCH  15  16
ENDBRANCH  14  15
ENDBRANCH  13  14
ENDBRANCH  11  12
ENDBRANCH  10  11
ENDBRANCH   8   9
ENDBRANCH   7   8
ENDBRANCH   5   6
ENDBRANCH   4   5
ENDBRANCH   3   4
ENDBRANCH   2   3
TORSDOF 12
ENDMDL
MODEL      231
REMARK 921   NORMALIZED FREE ENERGY PREDICTED BY IDOCK:   -3.53 KCAL/MOL
REMARK 922        TOTAL FREE ENERGY PREDICTED BY IDOCK:   -7.97 KCAL/MOL
REMARK 923 INTER-LIGAND FREE ENERGY PREDICTED BY IDOCK:   -6.08 KCAL/MOL
REMARK 924 INTRA-LIGAND FREE ENERGY PREDICTED BY IDOCK:   -1.89 KCAL/MOL
REMARK 927      BINDING AFFINITY PREDICTED BY RF-SCORE:    0.00 PKD
ROOT
HETATM    1  C   UNL     1      -9.194   7.698  70.707  1.00  0.00    -0.157 C  
HETATM    2  C   UNL     1     -10.211   7.286  69.658  1.00  0.00    -0.214 C  
ENDROOT
BRANCH   2   3
HETATM    3  C   UNL     1      -9.527   6.687  68.434  1.00  0.00    -0.125 C  
BRANCH   3   4
HETATM    4  C   UNL     1     -10.412   6.805  67.195  1.00  0.00    -0.364 C  
BRANCH   4   5
HETATM    5  C   UNL     1     -10.398   8.242  66.692  1.00  0.00    -0.293 C  
BRANCH   5   6
HETATM    6  C   UNL     1      -9.028   8.854  66.677  1.00  0.00    -0.165 C  
HETATM    7  C   UNL     1      -8.819  10.154  66.937  1.00  0.00    -0.142 C  
BRANCH   7   8
HETATM    8  C   UNL     1      -9.911  11.136  67.242  1.00  0.00    -0.198 C  
BRANCH   8   9
HETATM    9  C   UNL     1     -10.290  11.117  68.690  1.00  0.00    -0.219 C  
HETATM   10  C   UNL     1     -11.242  11.887  69.240  1.00  0.00    -0.304 C  
BRANCH  10  11
HETATM   11  C   UNL     1     -12.007  12.952  68.515  1.00  0.00    -0.272 C  
BRANCH  11  12
HETATM   12  C   UNL     1     -11.656  14.325  69.018  1.00  0.00    -0.342 C  
HETATM   13  C   UNL     1     -10.742  15.134  68.460  1.00  0.00    -0.240 C  
BRANCH  13  14
HETATM   14  C   UNL     1      -9.948  14.733  67.255  1.00  0.00    -0.231 C  
BRANCH  14  15
HETATM   15  C   UNL     1     -10.080  15.696  66.083  1.00  0.00    -0.333 C  
BRANCH  15  16
HETATM   16  C   UNL     1     -10.615  14.937  64.868  1.00  0.00    -0.417 C  
BRANCH  16  17
HETATM   17  C   UNL     1     -11.940  14.255  65.175  1.00  0.00    -0.395 C  
HETATM   18  C   UNL     1     -12.151  13.033  64.314  1.00  0.00    -0.414 C  
HETATM   19  O   UNL     1     -11.374  12.620  63.465  1.00  0.00    -0.458 OA 
HETATM   20  O   UNL     1     -13.326  12.417  64.579  1.00  0.00    -0.800 OA 
ENDBRANCH  16  17
ENDBRANCH  15  16
ENDBRANCH  14  15
ENDBRANCH  13  14
ENDBRANCH  11  12
ENDBRANCH  10  11
ENDBRANCH   8   9
ENDBRANCH   7   8
ENDBRANCH   5   6
ENDBRANCH   4   5
ENDBRANCH   3   4
ENDBRANCH   2   3
TORSDOF 12
ENDMDL
MODEL      232
REMARK 921   NORMALIZED FREE ENERGY PREDICTED BY IDOCK:   -3.53 KCAL/MOL
REMARK 922        TOTAL FREE ENERGY PREDICTED BY IDOCK:   -7.97 KCAL/MOL
REMARK 923 INTER-LIGAND FREE ENERGY PREDICTED BY IDOCK:   -6.53 KCAL/MOL
REMARK 924 INTRA-LIGAND FREE ENERGY PREDICTED BY IDOCK:   -1.44 KCAL/MOL
REMARK 927      BINDING AFFINITY PREDICTED BY RF-SCORE:    0.00 PKD
ROOT
HETATM    1  C   UNL     1     -11.285   6.251  69.598  1.00  0.00    -0.506 C  
HETATM    2  C   UNL     1     -11.918   6.848  70.842  1.00  0.00    -0.430 C  
ENDROOT
BRANCH   2   3
HETATM    3  C   UNL     1     -11.664   5.972  72.063  1.00  0.00    -0.315 C  
BRANCH   3   4
HETATM    4  C   UNL     1     -10.788   6.693  73.087  1.00  0.00    -0.298 C  
BRANCH   4   5
HETATM    5  C   UNL     1      -9.321   6.478  72.744  1.00  0.00    -0.146 C  
BRANCH   5   6
HETATM    6  C   UNL     1      -8.472   7.694  72.971  1.00  0.00    -0.191 C  
HETATM    7  C   UNL     1      -8.223   8.588  72.002  1.00  0.00    -0.192 C  
BRANCH   7   8
HETATM    8  C   UNL     1      -8.733   8.468  70.597  1.00  0.00    -0.171 C  
BRANCH   8   9
HETATM    9  C   UNL     1      -8.316   9.629  69.749  1.00  0.00    -0.183 C  
HETATM   10  C   UNL     1      -9.157  10.531  69.221  1.00  0.00    -0.161 C  
BRANCH  10  11
HETATM   11  C   UNL     1     -10.651  10.465  69.315  1.00  0.00    -0.259 C  
BRANCH  11  12
HETATM   12  C   UNL     1     -11.309  11.116  68.130  1.00  0.00    -0.377 C  
HETATM   13  C   UNL     1     -11.790  12.369  68.113  1.00  0.00    -0.372 C  
BRANCH  13  14
HETATM   14  C   UNL     1     -11.727  13.265  69.313  1.00  0.00    -0.380 C  
BRANCH  14  15
HETATM   15  C   UNL     1     -10.840  14.487  69.122  1.00  0.00    -0.278 C  
BRANCH  15  16
HETATM   16  C   UNL     1     -11.224  15.552  70.149  1.00  0.00    -0.331 C  
BRANCH  16  17
HETATM   17  C   UNL     1     -12.659  15.376  70.625  1.00  0.00    -0.491 C  
HETATM   18  C   UNL     1     -12.795  15.658  72.102  1.00  0.00    -0.439 C  
HETATM   19  O   UNL     1     -11.885  15.986  72.849  1.00  0.00    -0.465 OA 
HETATM   20  O   UNL     1     -14.067  15.506  72.537  1.00  0.00    -0.546 OA 
ENDBRANCH  16  17
ENDBRANCH  15  16
ENDBRANCH  14  15
ENDBRANCH  13  14
ENDBRANCH  11  12
ENDBRANCH  10  11
ENDBRANCH   8   9
ENDBRANCH   7   8
ENDBRANCH   5   6
ENDBRANCH   4   5
ENDBRANCH   3   4
ENDBRANCH   2   3
TORSDOF 12
ENDMDL
MODEL      233
REMARK 921   NORMALIZED FREE ENERGY PREDICTED BY IDOCK:   -3.53 KCAL/MOL
REMARK 922        TOTAL FREE ENERGY PREDICTED BY IDOCK:   -7.96 KCAL/MOL
REMARK 923 INTER-LIGAND FREE ENERGY PREDICTED BY IDOCK:   -5.29 KCAL/MOL
REMARK 924 INTRA-LIGAND FREE ENERGY PREDICTED BY IDOCK:   -2.68 KCAL/MOL
REMARK 927      BINDING AFFINITY PREDICTED BY RF-SCORE:    0.00 PKD
ROOT
HETATM    1  C   UNL     1      -8.437  11.762  67.139  1.00  0.00    -0.170 C  
HETATM    2  C   UNL     1      -9.050  11.474  68.498  1.00  0.00    -0.157 C  
ENDROOT
BRANCH   2   3
HETATM    3  C   UNL     1     -10.169  10.445  68.389  1.00  0.00    -0.186 C  
BRANCH   3   4
HETATM    4  C   UNL     1     -10.468  10.107  66.930  1.00  0.00    -0.286 C  
BRANCH   4   5
HETATM    5  C   UNL     1     -10.291   8.611  66.707  1.00  0.00    -0.336 C  
BRANCH   5   6
HETATM    6  C   UNL     1      -9.279   7.988  67.622  1.00  0.00    -0.145 C  
HETATM    7  C   UNL     1      -8.097   7.529  67.182  1.00  0.00    -0.118 C  
BRANCH   7   8
HETATM    8  C   UNL     1      -7.666   7.561  65.746  1.00  0.00    -0.098 C  
BRANCH   8   9
HETATM    9  C   UNL     1      -6.968   8.840  65.401  1.00  0.00    -0.076 C  
HETATM   10  C   UNL     1      -7.306   9.643  64.380  1.00  0.00    -0.125 C  
BRANCH  10  11
HETATM   11  C   UNL     1      -8.369   9.340  63.368  1.00  0.00    -0.193 C  
BRANCH  11  12
HETATM   12  C   UNL     1      -8.648  10.525  62.486  1.00  0.00    -0.247 C  
HETATM   13  C   UNL     1      -9.593  11.448  62.720  1.00  0.00    -0.290 C  
BRANCH  13  14
HETATM   14  C   UNL     1     -10.500  11.379  63.911  1.00  0.00    -0.444 C  
BRANCH  14  15
HETATM   15  C   UNL     1     -11.917  11.863  63.633  1.00  0.00    -0.578 C  
BRANCH  15  16
HETATM   16  C   UNL     1     -12.420  12.662  64.836  1.00  0.00    -0.564 C  
BRANCH  16  17
HETATM   17  C   UNL     1     -11.426  13.740  65.244  1.00  0.00    -0.320 C  
HETATM   18  C   UNL     1     -11.373  13.909  66.743  1.00  0.00    -0.333 C  
HETATM   19  O   UNL     1     -12.034  13.277  67.554  1.00  0.00    -0.356 OA 
HETATM   20  O   UNL     1     -10.491  14.865  67.119  1.00  0.00    -0.264 OA 
ENDBRANCH  16  17
ENDBRANCH  15  16
ENDBRANCH  14  15
ENDBRANCH  13  14
ENDBRANCH  11  12
ENDBRANCH  10  11
ENDBRANCH   8   9
ENDBRANCH   7   8
ENDBRANCH   5   6
ENDBRANCH   4   5
ENDBRANCH   3   4
ENDBRANCH   2   3
TORSDOF 12
ENDMDL
MODEL      234
REMARK 921   NORMALIZED FREE ENERGY PREDICTED BY IDOCK:   -3.53 KCAL/MOL
REMARK 922        TOTAL FREE ENERGY PREDICTED BY IDOCK:   -7.95 KCAL/MOL
REMARK 923 INTER-LIGAND FREE ENERGY PREDICTED BY IDOCK:   -7.03 KCAL/MOL
REMARK 924 INTRA-LIGAND FREE ENERGY PREDICTED BY IDOCK:   -0.92 KCAL/MOL
REMARK 927      BINDING AFFINITY PREDICTED BY RF-SCORE:    0.00 PKD
ROOT
HETATM    1  C   UNL     1      -9.963  19.445  68.930  1.00  0.00    -0.519 C  
HETATM    2  C   UNL     1      -9.224  19.323  67.609  1.00  0.00    -0.362 C  
ENDROOT
BRANCH   2   3
HETATM    3  C   UNL     1     -10.110  19.744  66.443  1.00  0.00    -0.600 C  
BRANCH   3   4
HETATM    4  C   UNL     1     -10.773  18.533  65.788  1.00  0.00    -0.193 C  
BRANCH   4   5
HETATM    5  C   UNL     1     -10.062  17.261  66.230  1.00  0.00    -0.323 C  
BRANCH   5   6
HETATM    6  C   UNL     1     -10.564  16.028  65.540  1.00  0.00    -0.415 C  
HETATM    7  C   UNL     1     -10.839  14.894  66.204  1.00  0.00    -0.327 C  
BRANCH   7   8
HETATM    8  C   UNL     1     -10.657  14.721  67.682  1.00  0.00    -0.262 C  
BRANCH   8   9
HETATM    9  C   UNL     1      -9.674  13.638  68.002  1.00  0.00    -0.226 C  
HETATM   10  C   UNL     1     -10.000  12.365  68.269  1.00  0.00    -0.224 C  
BRANCH  10  11
HETATM   11  C   UNL     1     -11.402  11.846  68.385  1.00  0.00    -0.331 C  
BRANCH  11  12
HETATM   12  C   UNL     1     -11.973  12.096  69.752  1.00  0.00    -0.372 C  
HETATM   13  C   UNL     1     -12.000  11.196  70.747  1.00  0.00    -0.415 C  
BRANCH  13  14
HETATM   14  C   UNL     1     -11.459   9.808  70.584  1.00  0.00    -0.397 C  
BRANCH  14  15
HETATM   15  C   UNL     1     -11.711   8.905  71.785  1.00  0.00    -0.432 C  
BRANCH  15  16
HETATM   16  C   UNL     1     -12.443   7.646  71.320  1.00  0.00    -0.324 C  
BRANCH  16  17
HETATM   17  C   UNL     1     -11.557   6.413  71.433  1.00  0.00    -0.368 C  
HETATM   18  C   UNL     1     -11.109   5.924  70.077  1.00  0.00    -0.341 C  
HETATM   19  O   UNL     1     -11.406   6.431  69.005  1.00  0.00    -0.355 OA 
HETATM   20  O   UNL     1     -10.320   4.828  70.164  1.00  0.00    -0.242 OA 
ENDBRANCH  16  17
ENDBRANCH  15  16
ENDBRANCH  14  15
ENDBRANCH  13  14
ENDBRANCH  11  12
ENDBRANCH  10  11
ENDBRANCH   8   9
ENDBRANCH   7   8
ENDBRANCH   5   6
ENDBRANCH   4   5
ENDBRANCH   3   4
ENDBRANCH   2   3
TORSDOF 12
ENDMDL
MODEL      235
REMARK 921   NORMALIZED FREE ENERGY PREDICTED BY IDOCK:   -3.52 KCAL/MOL
REMARK 922        TOTAL FREE ENERGY PREDICTED BY IDOCK:   -7.95 KCAL/MOL
REMARK 923 INTER-LIGAND FREE ENERGY PREDICTED BY IDOCK:   -5.88 KCAL/MOL
REMARK 924 INTRA-LIGAND FREE ENERGY PREDICTED BY IDOCK:   -2.06 KCAL/MOL
REMARK 927      BINDING AFFINITY PREDICTED BY RF-SCORE:    0.00 PKD
ROOT
HETATM    1  C   UNL     1     -12.049  12.626  64.221  1.00  0.00    -0.502 C  
HETATM    2  C   UNL     1     -12.670  13.359  65.398  1.00  0.00    -0.484 C  
ENDROOT
BRANCH   2   3
HETATM    3  C   UNL     1     -11.682  14.340  66.017  1.00  0.00    -0.384 C  
BRANCH   3   4
HETATM    4  C   UNL     1     -11.998  14.584  67.492  1.00  0.00    -0.358 C  
BRANCH   4   5
HETATM    5  C   UNL     1     -11.233  15.807  67.981  1.00  0.00    -0.338 C  
BRANCH   5   6
HETATM    6  C   UNL     1     -10.878  16.765  66.883  1.00  0.00    -0.033 C  
HETATM    7  C   UNL     1     -10.291  17.948  67.124  1.00  0.00    -0.371 C  
BRANCH   7   8
HETATM    8  C   UNL     1      -9.951  18.454  68.494  1.00  0.00    -0.415 C  
BRANCH   8   9
HETATM    9  C   UNL     1      -8.574  19.041  68.548  1.00  0.00    -0.393 C  
HETATM   10  C   UNL     1      -7.446  18.371  68.269  1.00  0.00    -0.293 C  
BRANCH  10  11
HETATM   11  C   UNL     1      -7.375  16.907  67.955  1.00  0.00    -0.176 C  
BRANCH  11  12
HETATM   12  C   UNL     1      -7.009  16.098  69.167  1.00  0.00    -0.201 C  
HETATM   13  C   UNL     1      -7.460  14.861  69.427  1.00  0.00    -0.174 C  
BRANCH  13  14
HETATM   14  C   UNL     1      -8.410  14.148  68.513  1.00  0.00    -0.155 C  
BRANCH  14  15
HETATM   15  C   UNL     1      -7.724  13.280  67.468  1.00  0.00    -0.175 C  
BRANCH  15  16
HETATM   16  C   UNL     1      -8.409  11.914  67.422  1.00  0.00    -0.163 C  
BRANCH  16  17
HETATM   17  C   UNL     1      -9.735  11.929  68.170  1.00  0.00    -0.194 C  
HETATM   18  C   UNL     1     -10.751  11.021  67.520  1.00  0.00    -0.244 C  
HETATM   19  O   UNL     1     -10.564  10.349  66.517  1.00  0.00    -0.218 OA 
HETATM   20  O   UNL     1     -11.934  11.025  68.177  1.00  0.00    -0.610 OA 
ENDBRANCH  16  17
ENDBRANCH  15  16
ENDBRANCH  14  15
ENDBRANCH  13  14
ENDBRANCH  11  12
ENDBRANCH  10  11
ENDBRANCH   8   9
ENDBRANCH   7   8
ENDBRANCH   5   6
ENDBRANCH   4   5
ENDBRANCH   3   4
ENDBRANCH   2   3
TORSDOF 12
ENDMDL
MODEL      236
REMARK 921   NORMALIZED FREE ENERGY PREDICTED BY IDOCK:   -3.52 KCAL/MOL
REMARK 922        TOTAL FREE ENERGY PREDICTED BY IDOCK:   -7.94 KCAL/MOL
REMARK 923 INTER-LIGAND FREE ENERGY PREDICTED BY IDOCK:   -6.08 KCAL/MOL
REMARK 924 INTRA-LIGAND FREE ENERGY PREDICTED BY IDOCK:   -1.86 KCAL/MOL
REMARK 927      BINDING AFFINITY PREDICTED BY RF-SCORE:    0.00 PKD
ROOT
HETATM    1  C   UNL     1     -11.108  13.397  64.786  1.00  0.00    -0.363 C  
HETATM    2  C   UNL     1     -12.093  12.598  65.621  1.00  0.00    -0.502 C  
ENDROOT
BRANCH   2   3
HETATM    3  C   UNL     1     -11.625  12.488  67.067  1.00  0.00    -0.437 C  
BRANCH   3   4
HETATM    4  C   UNL     1     -10.647  11.328  67.245  1.00  0.00    -0.271 C  
BRANCH   4   5
HETATM    5  C   UNL     1     -11.123  10.429  68.377  1.00  0.00    -0.322 C  
BRANCH   5   6
HETATM    6  C   UNL     1     -12.012  11.130  69.361  1.00  0.00    -0.420 C  
HETATM    7  C   UNL     1     -12.096  10.756  70.647  1.00  0.00    -0.467 C  
BRANCH   7   8
HETATM    8  C   UNL     1     -11.346   9.599  71.237  1.00  0.00    -0.458 C  
BRANCH   8   9
HETATM    9  C   UNL     1     -12.268   8.555  71.785  1.00  0.00    -0.388 C  
HETATM   10  C   UNL     1     -12.374   7.304  71.311  1.00  0.00    -0.401 C  
BRANCH  10  11
HETATM   11  C   UNL     1     -11.658   6.784  70.102  1.00  0.00    -0.397 C  
BRANCH  11  12
HETATM   12  C   UNL     1     -10.644   5.736  70.468  1.00  0.00    -0.359 C  
HETATM   13  C   UNL     1      -9.315   5.924  70.473  1.00  0.00    -0.185 C  
BRANCH  13  14
HETATM   14  C   UNL     1      -8.692   7.232  70.089  1.00  0.00    -0.140 C  
BRANCH  14  15
HETATM   15  C   UNL     1      -8.670   7.485  68.588  1.00  0.00    -0.128 C  
BRANCH  15  16
HETATM   16  C   UNL     1      -8.153   6.235  67.875  1.00  0.00    -0.114 C  
BRANCH  16  17
HETATM   17  C   UNL     1      -8.941   5.952  66.604  1.00  0.00    -0.125 C  
HETATM   18  C   UNL     1      -9.598   4.594  66.648  1.00  0.00    -0.182 C  
HETATM   19  O   UNL     1      -9.523   3.798  67.572  1.00  0.00    -0.185 OA 
HETATM   20  O   UNL     1     -10.303   4.330  65.523  1.00  0.00    -0.239 OA 
ENDBRANCH  16  17
ENDBRANCH  15  16
ENDBRANCH  14  15
ENDBRANCH  13  14
ENDBRANCH  11  12
ENDBRANCH  10  11
ENDBRANCH   8   9
ENDBRANCH   7   8
ENDBRANCH   5   6
ENDBRANCH   4   5
ENDBRANCH   3   4
ENDBRANCH   2   3
TORSDOF 12
ENDMDL
MODEL      237
REMARK 921   NORMALIZED FREE ENERGY PREDICTED BY IDOCK:   -3.52 KCAL/MOL
REMARK 922        TOTAL FREE ENERGY PREDICTED BY IDOCK:   -7.94 KCAL/MOL
REMARK 923 INTER-LIGAND FREE ENERGY PREDICTED BY IDOCK:   -6.93 KCAL/MOL
REMARK 924 INTRA-LIGAND FREE ENERGY PREDICTED BY IDOCK:   -1.01 KCAL/MOL
REMARK 927      BINDING AFFINITY PREDICTED BY RF-SCORE:    0.00 PKD
ROOT
HETATM    1  C   UNL     1      -6.749  20.147  66.972  1.00  0.00    -0.259 C  
HETATM    2  C   UNL     1      -7.696  19.472  67.950  1.00  0.00    -0.324 C  
ENDROOT
BRANCH   2   3
HETATM    3  C   UNL     1      -9.107  19.393  67.381  1.00  0.00    -0.359 C  
BRANCH   3   4
HETATM    4  C   UNL     1     -10.093  18.866  68.423  1.00  0.00    -0.449 C  
BRANCH   4   5
HETATM    5  C   UNL     1     -10.782  17.618  67.888  1.00  0.00    -0.341 C  
BRANCH   5   6
HETATM    6  C   UNL     1     -10.248  17.166  66.561  1.00  0.00    -0.322 C  
HETATM    7  C   UNL     1     -10.586  15.987  66.014  1.00  0.00    -0.324 C  
BRANCH   7   8
HETATM    8  C   UNL     1     -11.500  14.991  66.663  1.00  0.00    -0.251 C  
BRANCH   8   9
HETATM    9  C   UNL     1     -12.257  14.186  65.653  1.00  0.00    -0.449 C  
HETATM   10  C   UNL     1     -11.793  13.078  65.056  1.00  0.00    -0.401 C  
BRANCH  10  11
HETATM   11  C   UNL     1     -10.412  12.525  65.232  1.00  0.00    -0.313 C  
BRANCH  11  12
HETATM   12  C   UNL     1     -10.443  11.082  65.653  1.00  0.00    -0.293 C  
HETATM   13  C   UNL     1     -10.253  10.646  66.908  1.00  0.00    -0.272 C  
BRANCH  13  14
HETATM   14  C   UNL     1      -9.970  11.581  68.044  1.00  0.00    -0.197 C  
BRANCH  14  15
HETATM   15  C   UNL     1     -11.199  12.325  68.549  1.00  0.00    -0.316 C  
BRANCH  15  16
HETATM   16  C   UNL     1     -11.729  11.628  69.803  1.00  0.00    -0.425 C  
BRANCH  16  17
HETATM   17  C   UNL     1     -12.303  12.627  70.797  1.00  0.00    -0.372 C  
HETATM   18  C   UNL     1     -13.110  11.941  71.872  1.00  0.00    -0.369 C  
HETATM   19  O   UNL     1     -13.300  10.737  71.959  1.00  0.00    -0.447 OA 
HETATM   20  O   UNL     1     -13.625  12.820  72.764  1.00  0.00    -0.449 OA 
ENDBRANCH  16  17
ENDBRANCH  15  16
ENDBRANCH  14  15
ENDBRANCH  13  14
ENDBRANCH  11  12
ENDBRANCH  10  11
ENDBRANCH   8   9
ENDBRANCH   7   8
ENDBRANCH   5   6
ENDBRANCH   4   5
ENDBRANCH   3   4
ENDBRANCH   2   3
TORSDOF 12
ENDMDL
MODEL      238
REMARK 921   NORMALIZED FREE ENERGY PREDICTED BY IDOCK:   -3.51 KCAL/MOL
REMARK 922        TOTAL FREE ENERGY PREDICTED BY IDOCK:   -7.93 KCAL/MOL
REMARK 923 INTER-LIGAND FREE ENERGY PREDICTED BY IDOCK:   -5.89 KCAL/MOL
REMARK 924 INTRA-LIGAND FREE ENERGY PREDICTED BY IDOCK:   -2.04 KCAL/MOL
REMARK 927      BINDING AFFINITY PREDICTED BY RF-SCORE:    0.00 PKD
ROOT
HETATM    1  C   UNL     1     -11.587   9.633  71.435  1.00  0.00    -0.472 C  
HETATM    2  C   UNL     1     -10.940  10.426  70.313  1.00  0.00    -0.353 C  
ENDROOT
BRANCH   2   3
HETATM    3  C   UNL     1     -11.866  11.530  69.817  1.00  0.00    -0.429 C  
BRANCH   3   4
HETATM    4  C   UNL     1     -11.780  11.681  68.299  1.00  0.00    -0.374 C  
BRANCH   4   5
HETATM    5  C   UNL     1     -11.080  12.988  67.955  1.00  0.00    -0.282 C  
BRANCH   5   6
HETATM    6  C   UNL     1     -11.975  13.981  67.273  1.00  0.00    -0.448 C  
HETATM    7  C   UNL     1     -11.721  14.450  66.041  1.00  0.00    -0.378 C  
BRANCH   7   8
HETATM    8  C   UNL     1     -10.524  14.064  65.226  1.00  0.00    -0.398 C  
BRANCH   8   9
HETATM    9  C   UNL     1     -10.869  13.069  64.161  1.00  0.00    -0.433 C  
HETATM   10  C   UNL     1     -10.483  11.784  64.163  1.00  0.00    -0.394 C  
BRANCH  10  11
HETATM   11  C   UNL     1      -9.567  11.167  65.176  1.00  0.00    -0.273 C  
BRANCH  11  12
HETATM   12  C   UNL     1      -9.300   9.719  64.870  1.00  0.00    -0.327 C  
HETATM   13  C   UNL     1      -9.394   8.719  65.760  1.00  0.00    -0.259 C  
BRANCH  13  14
HETATM   14  C   UNL     1      -9.773   8.955  67.190  1.00  0.00    -0.241 C  
BRANCH  14  15
HETATM   15  C   UNL     1      -9.233   7.903  68.150  1.00  0.00    -0.136 C  
BRANCH  15  16
HETATM   16  C   UNL     1      -7.845   8.326  68.631  1.00  0.00    -0.120 C  
BRANCH  16  17
HETATM   17  C   UNL     1      -7.599   9.808  68.389  1.00  0.00    -0.080 C  
HETATM   18  C   UNL     1      -7.291  10.539  69.674  1.00  0.00    -0.149 C  
HETATM   19  O   UNL     1      -7.241  10.032  70.785  1.00  0.00    -0.328 OA 
HETATM   20  O   UNL     1      -7.070  11.858  69.472  1.00  0.00    -0.018 OA 
ENDBRANCH  16  17
ENDBRANCH  15  16
ENDBRANCH  14  15
ENDBRANCH  13  14
ENDBRANCH  11  12
ENDBRANCH  10  11
ENDBRANCH   8   9
ENDBRANCH   7   8
ENDBRANCH   5   6
ENDBRANCH   4   5
ENDBRANCH   3   4
ENDBRANCH   2   3
TORSDOF 12
ENDMDL
MODEL      239
REMARK 921   NORMALIZED FREE ENERGY PREDICTED BY IDOCK:   -3.50 KCAL/MOL
REMARK 922        TOTAL FREE ENERGY PREDICTED BY IDOCK:   -7.92 KCAL/MOL
REMARK 923 INTER-LIGAND FREE ENERGY PREDICTED BY IDOCK:   -5.85 KCAL/MOL
REMARK 924 INTRA-LIGAND FREE ENERGY PREDICTED BY IDOCK:   -2.06 KCAL/MOL
REMARK 927      BINDING AFFINITY PREDICTED BY RF-SCORE:    0.00 PKD
ROOT
HETATM    1  C   UNL     1      -9.393   5.397  68.764  1.00  0.00    -0.159 C  
HETATM    2  C   UNL     1     -10.362   5.383  69.932  1.00  0.00    -0.377 C  
ENDROOT
BRANCH   2   3
HETATM    3  C   UNL     1     -11.489   6.388  69.723  1.00  0.00    -0.468 C  
BRANCH   3   4
HETATM    4  C   UNL     1     -11.970   6.962  71.054  1.00  0.00    -0.422 C  
BRANCH   4   5
HETATM    5  C   UNL     1     -10.869   6.825  72.097  1.00  0.00    -0.257 C  
BRANCH   5   6
HETATM    6  C   UNL     1     -10.361   8.142  72.604  1.00  0.00    -0.398 C  
HETATM    7  C   UNL     1      -9.346   8.795  72.018  1.00  0.00    -0.322 C  
BRANCH   7   8
HETATM    8  C   UNL     1      -8.596   8.284  70.824  1.00  0.00    -0.147 C  
BRANCH   8   9
HETATM    9  C   UNL     1      -8.081   9.398  69.968  1.00  0.00    -0.159 C  
HETATM   10  C   UNL     1      -8.742   9.934  68.931  1.00  0.00    -0.140 C  
BRANCH  10  11
HETATM   11  C   UNL     1     -10.056   9.439  68.406  1.00  0.00    -0.208 C  
BRANCH  11  12
HETATM   12  C   UNL     1     -11.204  10.251  68.936  1.00  0.00    -0.259 C  
HETATM   13  C   UNL     1     -11.820  11.236  68.264  1.00  0.00    -0.299 C  
BRANCH  13  14
HETATM   14  C   UNL     1     -11.403  11.645  66.885  1.00  0.00    -0.364 C  
BRANCH  14  15
HETATM   15  C   UNL     1     -11.545  13.137  66.617  1.00  0.00    -0.403 C  
BRANCH  15  16
HETATM   16  C   UNL     1     -10.604  13.906  67.544  1.00  0.00    -0.256 C  
BRANCH  16  17
HETATM   17  C   UNL     1     -10.609  15.396  67.235  1.00  0.00    -0.294 C  
HETATM   18  C   UNL     1     -10.786  16.223  68.486  1.00  0.00    -0.330 C  
HETATM   19  O   UNL     1     -10.915  15.781  69.618  1.00  0.00    -0.255 OA 
HETATM   20  O   UNL     1     -10.792  17.551  68.224  1.00  0.00    -0.338 OA 
ENDBRANCH  16  17
ENDBRANCH  15  16
ENDBRANCH  14  15
ENDBRANCH  13  14
ENDBRANCH  11  12
ENDBRANCH  10  11
ENDBRANCH   8   9
ENDBRANCH   7   8
ENDBRANCH   5   6
ENDBRANCH   4   5
ENDBRANCH   3   4
ENDBRANCH   2   3
TORSDOF 12
ENDMDL
MODEL      240
REMARK 921   NORMALIZED FREE ENERGY PREDICTED BY IDOCK:   -3.50 KCAL/MOL
REMARK 922        TOTAL FREE ENERGY PREDICTED BY IDOCK:   -7.92 KCAL/MOL
REMARK 923 INTER-LIGAND FREE ENERGY PREDICTED BY IDOCK:   -6.29 KCAL/MOL
REMARK 924 INTRA-LIGAND FREE ENERGY PREDICTED BY IDOCK:   -1.62 KCAL/MOL
REMARK 927      BINDING AFFINITY PREDICTED BY RF-SCORE:    0.00 PKD
ROOT
HETATM    1  C   UNL     1     -11.755  13.233  67.749  1.00  0.00    -0.398 C  
HETATM    2  C   UNL     1     -11.606  14.192  66.581  1.00  0.00    -0.399 C  
ENDROOT
BRANCH   2   3
HETATM    3  C   UNL     1     -12.701  13.971  65.545  1.00  0.00    -0.517 C  
BRANCH   3   4
HETATM    4  C   UNL     1     -12.109  13.750  64.154  1.00  0.00    -0.478 C  
BRANCH   4   5
HETATM    5  C   UNL     1     -12.150  12.267  63.812  1.00  0.00    -0.624 C  
BRANCH   5   6
HETATM    6  C   UNL     1     -10.903  11.777  63.138  1.00  0.00    -0.299 C  
HETATM    7  C   UNL     1     -10.016  10.981  63.756  1.00  0.00    -0.404 C  
BRANCH   7   8
HETATM    8  C   UNL     1     -10.152  10.516  65.175  1.00  0.00    -0.383 C  
BRANCH   8   9
HETATM    9  C   UNL     1      -9.209  11.233  66.091  1.00  0.00    -0.222 C  
HETATM   10  C   UNL     1      -8.880  10.820  67.324  1.00  0.00    -0.133 C  
BRANCH  10  11
HETATM   11  C   UNL     1      -9.477   9.632  68.017  1.00  0.00    -0.146 C  
BRANCH  11  12
HETATM   12  C   UNL     1     -10.905   9.882  68.412  1.00  0.00    -0.263 C  
HETATM   13  C   UNL     1     -11.365   9.868  69.673  1.00  0.00    -0.212 C  
BRANCH  13  14
HETATM   14  C   UNL     1     -10.476   9.581  70.844  1.00  0.00    -0.382 C  
BRANCH  14  15
HETATM   15  C   UNL     1     -11.129   8.718  71.915  1.00  0.00    -0.434 C  
BRANCH  15  16
HETATM   16  C   UNL     1     -10.052   7.894  72.621  1.00  0.00    -0.343 C  
BRANCH  16  17
HETATM   17  C   UNL     1      -8.763   7.852  71.815  1.00  0.00    -0.157 C  
HETATM   18  C   UNL     1      -7.567   8.229  72.656  1.00  0.00    -0.114 C  
HETATM   19  O   UNL     1      -7.599   8.536  73.839  1.00  0.00    -0.340 OA 
HETATM   20  O   UNL     1      -6.413   8.195  71.950  1.00  0.00    -0.046 OA 
ENDBRANCH  16  17
ENDBRANCH  15  16
ENDBRANCH  14  15
ENDBRANCH  13  14
ENDBRANCH  11  12
ENDBRANCH  10  11
ENDBRANCH   8   9
ENDBRANCH   7   8
ENDBRANCH   5   6
ENDBRANCH   4   5
ENDBRANCH   3   4
ENDBRANCH   2   3
TORSDOF 12
ENDMDL
MODEL      241
REMARK 921   NORMALIZED FREE ENERGY PREDICTED BY IDOCK:   -3.50 KCAL/MOL
REMARK 922        TOTAL FREE ENERGY PREDICTED BY IDOCK:   -7.91 KCAL/MOL
REMARK 923 INTER-LIGAND FREE ENERGY PREDICTED BY IDOCK:   -5.63 KCAL/MOL
REMARK 924 INTRA-LIGAND FREE ENERGY PREDICTED BY IDOCK:   -2.27 KCAL/MOL
REMARK 927      BINDING AFFINITY PREDICTED BY RF-SCORE:    0.00 PKD
ROOT
HETATM    1  C   UNL     1      -8.248   3.605  72.171  1.00  0.00    -0.072 C  
HETATM    2  C   UNL     1      -8.591   4.637  71.112  1.00  0.00    -0.128 C  
ENDROOT
BRANCH   2   3
HETATM    3  C   UNL     1     -10.088   4.654  70.825  1.00  0.00    -0.264 C  
BRANCH   3   4
HETATM    4  C   UNL     1     -10.438   5.712  69.779  1.00  0.00    -0.377 C  
BRANCH   4   5
HETATM    5  C   UNL     1     -11.603   6.556  70.277  1.00  0.00    -0.473 C  
BRANCH   5   6
HETATM    6  C   UNL     1     -11.713   6.594  71.773  1.00  0.00    -0.363 C  
HETATM    7  C   UNL     1     -11.205   7.598  72.505  1.00  0.00    -0.399 C  
BRANCH   7   8
HETATM    8  C   UNL     1     -10.459   8.764  71.930  1.00  0.00    -0.423 C  
BRANCH   8   9
HETATM    9  C   UNL     1      -8.976   8.562  71.986  1.00  0.00    -0.301 C  
HETATM   10  C   UNL     1      -8.110   9.001  71.061  1.00  0.00    -0.199 C  
BRANCH  10  11
HETATM   11  C   UNL     1      -8.495   9.676  69.780  1.00  0.00    -0.200 C  
BRANCH  11  12
HETATM   12  C   UNL     1      -8.618   8.692  68.651  1.00  0.00    -0.131 C  
HETATM   13  C   UNL     1      -9.613   8.681  67.749  1.00  0.00    -0.178 C  
BRANCH  13  14
HETATM   14  C   UNL     1     -10.738   9.669  67.789  1.00  0.00    -0.316 C  
BRANCH  14  15
HETATM   15  C   UNL     1     -10.553  10.850  66.846  1.00  0.00    -0.312 C  
BRANCH  15  16
HETATM   16  C   UNL     1     -11.634  11.893  67.128  1.00  0.00    -0.363 C  
BRANCH  16  17
HETATM   17  C   UNL     1     -11.464  12.513  68.508  1.00  0.00    -0.346 C  
HETATM   18  C   UNL     1     -11.113  13.979  68.419  1.00  0.00    -0.253 C  
HETATM   19  O   UNL     1     -10.973  14.615  67.385  1.00  0.00    -0.291 OA 
HETATM   20  O   UNL     1     -10.960  14.542  69.640  1.00  0.00    -0.246 OA 
ENDBRANCH  16  17
ENDBRANCH  15  16
ENDBRANCH  14  15
ENDBRANCH  13  14
ENDBRANCH  11  12
ENDBRANCH  10  11
ENDBRANCH   8   9
ENDBRANCH   7   8
ENDBRANCH   5   6
ENDBRANCH   4   5
ENDBRANCH   3   4
ENDBRANCH   2   3
TORSDOF 12
ENDMDL
MODEL      242
REMARK 921   NORMALIZED FREE ENERGY PREDICTED BY IDOCK:   -3.49 KCAL/MOL
REMARK 922        TOTAL FREE ENERGY PREDICTED BY IDOCK:   -7.89 KCAL/MOL
REMARK 923 INTER-LIGAND FREE ENERGY PREDICTED BY IDOCK:   -6.37 KCAL/MOL
REMARK 924 INTRA-LIGAND FREE ENERGY PREDICTED BY IDOCK:   -1.53 KCAL/MOL
REMARK 927      BINDING AFFINITY PREDICTED BY RF-SCORE:    0.00 PKD
ROOT
HETATM    1  C   UNL     1     -11.840  12.602  68.134  1.00  0.00    -0.366 C  
HETATM    2  C   UNL     1     -11.519  13.889  67.396  1.00  0.00    -0.374 C  
ENDROOT
BRANCH   2   3
HETATM    3  C   UNL     1     -12.527  14.151  66.284  1.00  0.00    -0.395 C  
BRANCH   3   4
HETATM    4  C   UNL     1     -11.878  14.014  64.907  1.00  0.00    -0.402 C  
BRANCH   4   5
HETATM    5  C   UNL     1     -12.325  12.711  64.260  1.00  0.00    -0.517 C  
BRANCH   5   6
HETATM    6  C   UNL     1     -11.406  12.240  63.172  1.00  0.00    -0.254 C  
HETATM    7  C   UNL     1     -10.488  11.282  63.372  1.00  0.00    -0.424 C  
BRANCH   7   8
HETATM    8  C   UNL     1     -10.259  10.598  64.686  1.00  0.00    -0.404 C  
BRANCH   8   9
HETATM    9  C   UNL     1      -9.367  11.398  65.585  1.00  0.00    -0.242 C  
HETATM   10  C   UNL     1      -8.704  10.902  66.640  1.00  0.00    -0.156 C  
BRANCH  10  11
HETATM   11  C   UNL     1      -8.824   9.496  67.144  1.00  0.00    -0.141 C  
BRANCH  11  12
HETATM   12  C   UNL     1     -10.230   9.181  67.575  1.00  0.00    -0.304 C  
HETATM   13  C   UNL     1     -10.640   9.102  68.851  1.00  0.00    -0.214 C  
BRANCH  13  14
HETATM   14  C   UNL     1      -9.708   9.313  70.004  1.00  0.00    -0.234 C  
BRANCH  14  15
HETATM   15  C   UNL     1      -9.192   8.020  70.622  1.00  0.00    -0.156 C  
BRANCH  15  16
HETATM   16  C   UNL     1     -10.313   7.368  71.432  1.00  0.00    -0.208 C  
BRANCH  16  17
HETATM   17  C   UNL     1     -11.138   8.407  72.178  1.00  0.00    -0.415 C  
HETATM   18  C   UNL     1     -12.619   8.179  71.993  1.00  0.00    -0.330 C  
HETATM   19  O   UNL     1     -13.123   7.284  71.331  1.00  0.00    -0.376 OA 
HETATM   20  O   UNL     1     -13.363   9.097  72.653  1.00  0.00    -0.454 OA 
ENDBRANCH  16  17
ENDBRANCH  15  16
ENDBRANCH  14  15
ENDBRANCH  13  14
ENDBRANCH  11  12
ENDBRANCH  10  11
ENDBRANCH   8   9
ENDBRANCH   7   8
ENDBRANCH   5   6
ENDBRANCH   4   5
ENDBRANCH   3   4
ENDBRANCH   2   3
TORSDOF 12
ENDMDL
MODEL      243
REMARK 921   NORMALIZED FREE ENERGY PREDICTED BY IDOCK:   -3.49 KCAL/MOL
REMARK 922        TOTAL FREE ENERGY PREDICTED BY IDOCK:   -7.89 KCAL/MOL
REMARK 923 INTER-LIGAND FREE ENERGY PREDICTED BY IDOCK:   -5.57 KCAL/MOL
REMARK 924 INTRA-LIGAND FREE ENERGY PREDICTED BY IDOCK:   -2.33 KCAL/MOL
REMARK 927      BINDING AFFINITY PREDICTED BY RF-SCORE:    0.00 PKD
ROOT
HETATM    1  C   UNL     1     -10.561   5.423  66.461  1.00  0.00    -0.353 C  
HETATM    2  C   UNL     1     -11.145   6.521  67.331  1.00  0.00    -0.411 C  
ENDROOT
BRANCH   2   3
HETATM    3  C   UNL     1     -10.357   6.674  68.626  1.00  0.00    -0.208 C  
BRANCH   3   4
HETATM    4  C   UNL     1      -9.225   5.651  68.708  1.00  0.00    -0.133 C  
BRANCH   4   5
HETATM    5  C   UNL     1      -8.773   5.505  70.154  1.00  0.00    -0.133 C  
BRANCH   5   6
HETATM    6  C   UNL     1      -9.473   4.400  70.889  1.00  0.00    -0.241 C  
HETATM    7  C   UNL     1     -10.385   4.638  71.845  1.00  0.00    -0.220 C  
BRANCH   7   8
HETATM    8  C   UNL     1     -10.785   6.008  72.301  1.00  0.00    -0.272 C  
BRANCH   8   9
HETATM    9  C   UNL     1     -12.148   6.387  71.808  1.00  0.00    -0.351 C  
HETATM   10  C   UNL     1     -12.574   7.647  71.633  1.00  0.00    -0.365 C  
BRANCH  10  11
HETATM   11  C   UNL     1     -11.792   8.873  71.993  1.00  0.00    -0.438 C  
BRANCH  11  12
HETATM   12  C   UNL     1     -12.447  10.121  71.471  1.00  0.00    -0.526 C  
HETATM   13  C   UNL     1     -12.099  10.753  70.339  1.00  0.00    -0.443 C  
BRANCH  13  14
HETATM   14  C   UNL     1     -10.980  10.271  69.467  1.00  0.00    -0.300 C  
BRANCH  14  15
HETATM   15  C   UNL     1     -11.217  10.499  67.980  1.00  0.00    -0.361 C  
BRANCH  15  16
HETATM   16  C   UNL     1      -9.909  10.946  67.326  1.00  0.00    -0.202 C  
BRANCH  16  17
HETATM   17  C   UNL     1      -8.828   9.883  67.458  1.00  0.00    -0.131 C  
HETATM   18  C   UNL     1      -8.686   9.074  66.191  1.00  0.00    -0.147 C  
HETATM   19  O   UNL     1      -9.343   9.228  65.172  1.00  0.00    -0.240 OA 
HETATM   20  O   UNL     1      -7.726   8.126  66.295  1.00  0.00    -0.090 OA 
ENDBRANCH  16  17
ENDBRANCH  15  16
ENDBRANCH  14  15
ENDBRANCH  13  14
ENDBRANCH  11  12
ENDBRANCH  10  11
ENDBRANCH   8   9
ENDBRANCH   7   8
ENDBRANCH   5   6
ENDBRANCH   4   5
ENDBRANCH   3   4
ENDBRANCH   2   3
TORSDOF 12
ENDMDL
MODEL      244
REMARK 921   NORMALIZED FREE ENERGY PREDICTED BY IDOCK:   -3.48 KCAL/MOL
REMARK 922        TOTAL FREE ENERGY PREDICTED BY IDOCK:   -7.87 KCAL/MOL
REMARK 923 INTER-LIGAND FREE ENERGY PREDICTED BY IDOCK:   -6.00 KCAL/MOL
REMARK 924 INTRA-LIGAND FREE ENERGY PREDICTED BY IDOCK:   -1.87 KCAL/MOL
REMARK 927      BINDING AFFINITY PREDICTED BY RF-SCORE:    0.00 PKD
ROOT
HETATM    1  C   UNL     1     -10.406   4.608  65.928  1.00  0.00    -0.315 C  
HETATM    2  C   UNL     1      -9.339   5.676  66.089  1.00  0.00    -0.167 C  
ENDROOT
BRANCH   2   3
HETATM    3  C   UNL     1      -8.037   5.078  66.611  1.00  0.00    -0.108 C  
BRANCH   3   4
HETATM    4  C   UNL     1      -8.252   3.659  67.134  1.00  0.00    -0.091 C  
BRANCH   4   5
HETATM    5  C   UNL     1      -7.805   3.578  68.587  1.00  0.00    -0.055 C  
BRANCH   5   6
HETATM    6  C   UNL     1      -8.849   3.006  69.500  1.00  0.00    -0.147 C  
HETATM    7  C   UNL     1      -9.663   3.780  70.234  1.00  0.00    -0.222 C  
BRANCH   7   8
HETATM    8  C   UNL     1      -9.612   5.278  70.248  1.00  0.00    -0.241 C  
BRANCH   8   9
HETATM    9  C   UNL     1     -10.731   5.884  69.459  1.00  0.00    -0.414 C  
HETATM   10  C   UNL     1     -11.784   6.522  69.993  1.00  0.00    -0.388 C  
BRANCH  10  11
HETATM   11  C   UNL     1     -12.054   6.646  71.462  1.00  0.00    -0.406 C  
BRANCH  11  12
HETATM   12  C   UNL     1     -12.999   7.778  71.757  1.00  0.00    -0.351 C  
HETATM   13  C   UNL     1     -12.650   9.073  71.811  1.00  0.00    -0.434 C  
BRANCH  13  14
HETATM   14  C   UNL     1     -11.241   9.530  71.590  1.00  0.00    -0.378 C  
BRANCH  14  15
HETATM   15  C   UNL     1     -11.047  10.330  70.309  1.00  0.00    -0.388 C  
BRANCH  15  16
HETATM   16  C   UNL     1     -12.286  11.193  70.064  1.00  0.00    -0.402 C  
BRANCH  16  17
HETATM   17  C   UNL     1     -12.003  12.664  70.338  1.00  0.00    -0.331 C  
HETATM   18  C   UNL     1     -12.754  13.159  71.550  1.00  0.00    -0.269 C  
HETATM   19  O   UNL     1     -13.504  12.488  72.244  1.00  0.00    -0.556 OA 
HETATM   20  O   UNL     1     -12.511  14.465  71.805  1.00  0.00    -0.338 OA 
ENDBRANCH  16  17
ENDBRANCH  15  16
ENDBRANCH  14  15
ENDBRANCH  13  14
ENDBRANCH  11  12
ENDBRANCH  10  11
ENDBRANCH   8   9
ENDBRANCH   7   8
ENDBRANCH   5   6
ENDBRANCH   4   5
ENDBRANCH   3   4
ENDBRANCH   2   3
TORSDOF 12
ENDMDL
MODEL      245
REMARK 921   NORMALIZED FREE ENERGY PREDICTED BY IDOCK:   -3.48 KCAL/MOL
REMARK 922        TOTAL FREE ENERGY PREDICTED BY IDOCK:   -7.87 KCAL/MOL
REMARK 923 INTER-LIGAND FREE ENERGY PREDICTED BY IDOCK:   -5.44 KCAL/MOL
REMARK 924 INTRA-LIGAND FREE ENERGY PREDICTED BY IDOCK:   -2.43 KCAL/MOL
REMARK 927      BINDING AFFINITY PREDICTED BY RF-SCORE:    0.00 PKD
ROOT
HETATM    1  C   UNL     1     -12.095  11.018  69.105  1.00  0.00    -0.333 C  
HETATM    2  C   UNL     1     -12.102  11.046  70.623  1.00  0.00    -0.471 C  
ENDROOT
BRANCH   2   3
HETATM    3  C   UNL     1     -11.482   9.778  71.199  1.00  0.00    -0.472 C  
BRANCH   3   4
HETATM    4  C   UNL     1     -10.658   9.040  70.146  1.00  0.00    -0.250 C  
BRANCH   4   5
HETATM    5  C   UNL     1      -9.182   9.365  70.334  1.00  0.00    -0.305 C  
BRANCH   5   6
HETATM    6  C   UNL     1      -8.375   9.214  69.078  1.00  0.00    -0.127 C  
HETATM    7  C   UNL     1      -8.099  10.251  68.272  1.00  0.00    -0.107 C  
BRANCH   7   8
HETATM    8  C   UNL     1      -8.577  11.652  68.512  1.00  0.00    -0.134 C  
BRANCH   8   9
HETATM    9  C   UNL     1      -8.691  12.430  67.238  1.00  0.00    -0.191 C  
HETATM   10  C   UNL     1      -8.318  13.710  67.089  1.00  0.00    -0.151 C  
BRANCH  10  11
HETATM   11  C   UNL     1      -7.819  14.591  68.194  1.00  0.00    -0.135 C  
BRANCH  11  12
HETATM   12  C   UNL     1      -8.484  15.939  68.170  1.00  0.00    -0.167 C  
HETATM   13  C   UNL     1      -9.535  16.289  68.928  1.00  0.00    -0.252 C  
BRANCH  13  14
HETATM   14  C   UNL     1     -10.176  15.338  69.892  1.00  0.00    -0.233 C  
BRANCH  14  15
HETATM   15  C   UNL     1     -11.318  14.530  69.290  1.00  0.00    -0.317 C  
BRANCH  15  16
HETATM   16  C   UNL     1     -11.704  15.135  67.940  1.00  0.00    -0.275 C  
BRANCH  16  17
HETATM   17  C   UNL     1     -12.062  14.057  66.927  1.00  0.00    -0.465 C  
HETATM   18  C   UNL     1     -11.571  14.408  65.544  1.00  0.00    -0.347 C  
HETATM   19  O   UNL     1     -10.961  15.424  65.243  1.00  0.00    -0.353 OA 
HETATM   20  O   UNL     1     -11.882  13.456  64.634  1.00  0.00    -0.360 OA 
ENDBRANCH  16  17
ENDBRANCH  15  16
ENDBRANCH  14  15
ENDBRANCH  13  14
ENDBRANCH  11  12
ENDBRANCH  10  11
ENDBRANCH   8   9
ENDBRANCH   7   8
ENDBRANCH   5   6
ENDBRANCH   4   5
ENDBRANCH   3   4
ENDBRANCH   2   3
TORSDOF 12
ENDMDL
MODEL      246
REMARK 921   NORMALIZED FREE ENERGY PREDICTED BY IDOCK:   -3.48 KCAL/MOL
REMARK 922        TOTAL FREE ENERGY PREDICTED BY IDOCK:   -7.87 KCAL/MOL
REMARK 923 INTER-LIGAND FREE ENERGY PREDICTED BY IDOCK:   -6.94 KCAL/MOL
REMARK 924 INTRA-LIGAND FREE ENERGY PREDICTED BY IDOCK:   -0.93 KCAL/MOL
REMARK 927      BINDING AFFINITY PREDICTED BY RF-SCORE:    0.00 PKD
ROOT
HETATM    1  C   UNL     1      -8.256   3.766  69.454  1.00  0.00    -0.066 C  
HETATM    2  C   UNL     1      -9.186   3.707  68.255  1.00  0.00    -0.218 C  
ENDROOT
BRANCH   2   3
HETATM    3  C   UNL     1     -10.214   4.832  68.301  1.00  0.00    -0.054 C  
BRANCH   3   4
HETATM    4  C   UNL     1      -9.854   5.865  69.367  1.00  0.00    -0.207 C  
BRANCH   4   5
HETATM    5  C   UNL     1     -11.061   6.119  70.259  1.00  0.00    -0.436 C  
BRANCH   5   6
HETATM    6  C   UNL     1     -10.772   5.935  71.719  1.00  0.00    -0.299 C  
HETATM    7  C   UNL     1     -10.925   6.925  72.612  1.00  0.00    -0.303 C  
BRANCH   7   8
HETATM    8  C   UNL     1     -11.371   8.313  72.261  1.00  0.00    -0.446 C  
BRANCH   8   9
HETATM    9  C   UNL     1     -12.828   8.520  72.536  1.00  0.00    -0.310 C  
HETATM   10  C   UNL     1     -13.650   9.264  71.781  1.00  0.00    -0.465 C  
BRANCH  10  11
HETATM   11  C   UNL     1     -13.222  10.082  70.601  1.00  0.00    -0.174 C  
BRANCH  11  12
HETATM   12  C   UNL     1     -12.460  11.307  71.023  1.00  0.00    -0.503 C  
HETATM   13  C   UNL     1     -11.755  12.093  70.195  1.00  0.00    -0.301 C  
BRANCH  13  14
HETATM   14  C   UNL     1     -11.644  11.813  68.727  1.00  0.00    -0.367 C  
BRANCH  14  15
HETATM   15  C   UNL     1     -12.044  12.987  67.844  1.00  0.00    -0.234 C  
BRANCH  15  16
HETATM   16  C   UNL     1     -11.538  12.741  66.423  1.00  0.00    -0.435 C  
BRANCH  16  17
HETATM   17  C   UNL     1     -12.327  13.550  65.402  1.00  0.00    -0.517 C  
HETATM   18  C   UNL     1     -11.793  13.355  64.004  1.00  0.00    -0.445 C  
HETATM   19  O   UNL     1     -10.845  12.646  63.698  1.00  0.00    -0.426 OA 
HETATM   20  O   UNL     1     -12.487  14.068  63.087  1.00  0.00    -0.733 OA 
ENDBRANCH  16  17
ENDBRANCH  15  16
ENDBRANCH  14  15
ENDBRANCH  13  14
ENDBRANCH  11  12
ENDBRANCH  10  11
ENDBRANCH   8   9
ENDBRANCH   7   8
ENDBRANCH   5   6
ENDBRANCH   4   5
ENDBRANCH   3   4
ENDBRANCH   2   3
TORSDOF 12
ENDMDL
MODEL      247
REMARK 921   NORMALIZED FREE ENERGY PREDICTED BY IDOCK:   -3.48 KCAL/MOL
REMARK 922        TOTAL FREE ENERGY PREDICTED BY IDOCK:   -7.87 KCAL/MOL
REMARK 923 INTER-LIGAND FREE ENERGY PREDICTED BY IDOCK:   -5.67 KCAL/MOL
REMARK 924 INTRA-LIGAND FREE ENERGY PREDICTED BY IDOCK:   -2.20 KCAL/MOL
REMARK 927      BINDING AFFINITY PREDICTED BY RF-SCORE:    0.00 PKD
ROOT
HETATM    1  C   UNL     1      -9.445   8.583  66.406  1.00  0.00    -0.297 C  
HETATM    2  C   UNL     1      -8.192   8.585  67.263  1.00  0.00    -0.108 C  
ENDROOT
BRANCH   2   3
HETATM    3  C   UNL     1      -7.386   9.862  67.057  1.00  0.00    -0.091 C  
BRANCH   3   4
HETATM    4  C   UNL     1      -8.120  10.834  66.133  1.00  0.00    -0.160 C  
BRANCH   4   5
HETATM    5  C   UNL     1      -8.305  12.169  66.842  1.00  0.00    -0.151 C  
BRANCH   5   6
HETATM    6  C   UNL     1      -8.791  12.031  68.254  1.00  0.00    -0.182 C  
HETATM    7  C   UNL     1     -10.089  11.861  68.554  1.00  0.00    -0.211 C  
BRANCH   7   8
HETATM    8  C   UNL     1     -11.188  11.816  67.536  1.00  0.00    -0.354 C  
BRANCH   8   9
HETATM    9  C   UNL     1     -12.025  13.057  67.560  1.00  0.00    -0.360 C  
HETATM   10  C   UNL     1     -11.988  14.022  66.629  1.00  0.00    -0.473 C  
BRANCH  10  11
HETATM   11  C   UNL     1     -11.037  14.059  65.472  1.00  0.00    -0.309 C  
BRANCH  11  12
HETATM   12  C   UNL     1     -10.624  15.466  65.139  1.00  0.00    -0.458 C  
HETATM   13  C   UNL     1      -9.727  16.184  65.833  1.00  0.00    -0.374 C  
BRANCH  13  14
HETATM   14  C   UNL     1      -9.039  15.645  67.050  1.00  0.00    -0.239 C  
BRANCH  14  15
HETATM   15  C   UNL     1      -9.581  16.202  68.359  1.00  0.00    -0.209 C  
BRANCH  15  16
HETATM   16  C   UNL     1      -9.977  17.665  68.157  1.00  0.00    -0.330 C  
BRANCH  16  17
HETATM   17  C   UNL     1      -8.763  18.581  68.194  1.00  0.00    -0.330 C  
HETATM   18  C   UNL     1      -8.912  19.741  67.239  1.00  0.00    -0.326 C  
HETATM   19  O   UNL     1      -9.874  19.944  66.513  1.00  0.00    -0.386 OA 
HETATM   20  O   UNL     1      -7.839  20.565  67.263  1.00  0.00    -0.320 OA 
ENDBRANCH  16  17
ENDBRANCH  15  16
ENDBRANCH  14  15
ENDBRANCH  13  14
ENDBRANCH  11  12
ENDBRANCH  10  11
ENDBRANCH   8   9
ENDBRANCH   7   8
ENDBRANCH   5   6
ENDBRANCH   4   5
ENDBRANCH   3   4
ENDBRANCH   2   3
TORSDOF 12
ENDMDL
MODEL      248
REMARK 921   NORMALIZED FREE ENERGY PREDICTED BY IDOCK:   -3.48 KCAL/MOL
REMARK 922        TOTAL FREE ENERGY PREDICTED BY IDOCK:   -7.87 KCAL/MOL
REMARK 923 INTER-LIGAND FREE ENERGY PREDICTED BY IDOCK:   -6.22 KCAL/MOL
REMARK 924 INTRA-LIGAND FREE ENERGY PREDICTED BY IDOCK:   -1.65 KCAL/MOL
REMARK 927      BINDING AFFINITY PREDICTED BY RF-SCORE:    0.00 PKD
ROOT
HETATM    1  C   UNL     1     -11.603  10.815  70.472  1.00  0.00    -0.425 C  
HETATM    2  C   UNL     1     -10.787   9.556  70.239  1.00  0.00    -0.319 C  
ENDROOT
BRANCH   2   3
HETATM    3  C   UNL     1     -10.594   8.778  71.535  1.00  0.00    -0.379 C  
BRANCH   3   4
HETATM    4  C   UNL     1     -11.665   7.701  71.698  1.00  0.00    -0.313 C  
BRANCH   4   5
HETATM    5  C   UNL     1     -12.011   7.117  70.336  1.00  0.00    -0.190 C  
BRANCH   5   6
HETATM    6  C   UNL     1     -11.043   6.068  69.875  1.00  0.00    -0.469 C  
HETATM    7  C   UNL     1     -10.526   6.061  68.636  1.00  0.00    -0.297 C  
BRANCH   7   8
HETATM    8  C   UNL     1     -10.867   7.068  67.578  1.00  0.00    -0.338 C  
BRANCH   8   9
HETATM    9  C   UNL     1      -9.692   7.380  66.704  1.00  0.00    -0.262 C  
HETATM   10  C   UNL     1      -9.453   8.576  66.144  1.00  0.00    -0.286 C  
BRANCH  10  11
HETATM   11  C   UNL     1     -10.371   9.758  66.224  1.00  0.00    -0.235 C  
BRANCH  11  12
HETATM   12  C   UNL     1     -10.041  10.787  65.179  1.00  0.00    -0.363 C  
HETATM   13  C   UNL     1     -10.720  11.929  64.988  1.00  0.00    -0.341 C  
BRANCH  13  14
HETATM   14  C   UNL     1     -11.917  12.294  65.811  1.00  0.00    -0.362 C  
BRANCH  14  15
HETATM   15  C   UNL     1     -12.063  13.791  66.053  1.00  0.00    -0.470 C  
BRANCH  15  16
HETATM   16  C   UNL     1     -11.332  14.164  67.342  1.00  0.00    -0.346 C  
BRANCH  16  17
HETATM   17  C   UNL     1      -9.927  14.677  67.058  1.00  0.00    -0.246 C  
HETATM   18  C   UNL     1      -8.873  13.710  67.542  1.00  0.00    -0.205 C  
HETATM   19  O   UNL     1      -9.090  12.643  68.099  1.00  0.00    -0.196 OA 
HETATM   20  O   UNL     1      -7.619  14.154  67.294  1.00  0.00    -0.177 OA 
ENDBRANCH  16  17
ENDBRANCH  15  16
ENDBRANCH  14  15
ENDBRANCH  13  14
ENDBRANCH  11  12
ENDBRANCH  10  11
ENDBRANCH   8   9
ENDBRANCH   7   8
ENDBRANCH   5   6
ENDBRANCH   4   5
ENDBRANCH   3   4
ENDBRANCH   2   3
TORSDOF 12
ENDMDL
MODEL      249
REMARK 921   NORMALIZED FREE ENERGY PREDICTED BY IDOCK:   -3.47 KCAL/MOL
REMARK 922        TOTAL FREE ENERGY PREDICTED BY IDOCK:   -7.87 KCAL/MOL
REMARK 923 INTER-LIGAND FREE ENERGY PREDICTED BY IDOCK:   -5.43 KCAL/MOL
REMARK 924 INTRA-LIGAND FREE ENERGY PREDICTED BY IDOCK:   -2.44 KCAL/MOL
REMARK 927      BINDING AFFINITY PREDICTED BY RF-SCORE:    0.00 PKD
ROOT
HETATM    1  C   UNL     1     -12.319  12.588  64.369  1.00  0.00    -0.537 C  
HETATM    2  C   UNL     1     -12.898  13.704  65.222  1.00  0.00    -0.421 C  
ENDROOT
BRANCH   2   3
HETATM    3  C   UNL     1     -11.901  14.159  66.281  1.00  0.00    -0.427 C  
BRANCH   3   4
HETATM    4  C   UNL     1     -12.022  13.316  67.550  1.00  0.00    -0.371 C  
BRANCH   4   5
HETATM    5  C   UNL     1     -11.608  14.149  68.756  1.00  0.00    -0.362 C  
BRANCH   5   6
HETATM    6  C   UNL     1     -11.706  15.627  68.520  1.00  0.00    -0.339 C  
HETATM    7  C   UNL     1     -10.713  16.473  68.839  1.00  0.00    -0.337 C  
BRANCH   7   8
HETATM    8  C   UNL     1      -9.424  16.052  69.479  1.00  0.00    -0.173 C  
BRANCH   8   9
HETATM    9  C   UNL     1      -8.234  16.538  68.711  1.00  0.00    -0.248 C  
HETATM   10  C   UNL     1      -7.770  15.976  67.584  1.00  0.00    -0.165 C  
BRANCH  10  11
HETATM   11  C   UNL     1      -8.310  14.721  66.969  1.00  0.00    -0.228 C  
BRANCH  11  12
HETATM   12  C   UNL     1      -7.888  13.501  67.739  1.00  0.00    -0.167 C  
HETATM   13  C   UNL     1      -8.176  12.237  67.390  1.00  0.00    -0.178 C  
BRANCH  13  14
HETATM   14  C   UNL     1      -8.981  11.909  66.171  1.00  0.00    -0.116 C  
BRANCH  14  15
HETATM   15  C   UNL     1      -9.278  10.424  66.012  1.00  0.00    -0.200 C  
BRANCH  15  16
HETATM   16  C   UNL     1     -10.634  10.112  66.645  1.00  0.00    -0.214 C  
BRANCH  16  17
HETATM   17  C   UNL     1     -10.475   9.410  67.986  1.00  0.00    -0.278 C  
HETATM   18  C   UNL     1     -10.595   7.911  67.847  1.00  0.00    -0.149 C  
HETATM   19  O   UNL     1     -10.798   7.309  66.803  1.00  0.00    -0.311 OA 
HETATM   20  O   UNL     1     -10.455   7.275  69.033  1.00  0.00    -0.204 OA 
ENDBRANCH  16  17
ENDBRANCH  15  16
ENDBRANCH  14  15
ENDBRANCH  13  14
ENDBRANCH  11  12
ENDBRANCH  10  11
ENDBRANCH   8   9
ENDBRANCH   7   8
ENDBRANCH   5   6
ENDBRANCH   4   5
ENDBRANCH   3   4
ENDBRANCH   2   3
TORSDOF 12
ENDMDL
MODEL      250
REMARK 921   NORMALIZED FREE ENERGY PREDICTED BY IDOCK:   -3.47 KCAL/MOL
REMARK 922        TOTAL FREE ENERGY PREDICTED BY IDOCK:   -7.85 KCAL/MOL
REMARK 923 INTER-LIGAND FREE ENERGY PREDICTED BY IDOCK:   -6.32 KCAL/MOL
REMARK 924 INTRA-LIGAND FREE ENERGY PREDICTED BY IDOCK:   -1.53 KCAL/MOL
REMARK 927      BINDING AFFINITY PREDICTED BY RF-SCORE:    0.00 PKD
ROOT
HETATM    1  C   UNL     1      -7.579  10.544  66.375  1.00  0.00    -0.132 C  
HETATM    2  C   UNL     1      -9.052  10.587  66.012  1.00  0.00    -0.191 C  
ENDROOT
BRANCH   2   3
HETATM    3  C   UNL     1      -9.620   9.182  65.849  1.00  0.00    -0.343 C  
BRANCH   3   4
HETATM    4  C   UNL     1     -10.412   8.759  67.086  1.00  0.00    -0.354 C  
BRANCH   4   5
HETATM    5  C   UNL     1      -9.662   7.655  67.818  1.00  0.00    -0.180 C  
BRANCH   5   6
HETATM    6  C   UNL     1     -10.419   6.362  67.882  1.00  0.00    -0.276 C  
HETATM    7  C   UNL     1     -10.891   5.861  69.034  1.00  0.00    -0.383 C  
BRANCH   7   8
HETATM    8  C   UNL     1     -10.699   6.508  70.372  1.00  0.00    -0.306 C  
BRANCH   8   9
HETATM    9  C   UNL     1     -11.984   7.047  70.922  1.00  0.00    -0.409 C  
HETATM   10  C   UNL     1     -12.154   8.296  71.381  1.00  0.00    -0.331 C  
BRANCH  10  11
HETATM   11  C   UNL     1     -11.065   9.318  71.506  1.00  0.00    -0.443 C  
BRANCH  11  12
HETATM   12  C   UNL     1     -10.766   9.972  70.186  1.00  0.00    -0.361 C  
HETATM   13  C   UNL     1     -11.299  11.131  69.767  1.00  0.00    -0.354 C  
BRANCH  13  14
HETATM   14  C   UNL     1     -12.283  11.902  70.593  1.00  0.00    -0.424 C  
BRANCH  14  15
HETATM   15  C   UNL     1     -12.467  13.346  70.142  1.00  0.00    -0.243 C  
BRANCH  15  16
HETATM   16  C   UNL     1     -11.356  13.708  69.156  1.00  0.00    -0.335 C  
BRANCH  16  17
HETATM   17  C   UNL     1     -11.919  14.330  67.886  1.00  0.00    -0.364 C  
HETATM   18  C   UNL     1     -10.897  14.350  66.776  1.00  0.00    -0.301 C  
HETATM   19  O   UNL     1      -9.751  13.930  66.857  1.00  0.00    -0.251 OA 
HETATM   20  O   UNL     1     -11.386  14.900  65.640  1.00  0.00    -0.343 OA 
ENDBRANCH  16  17
ENDBRANCH  15  16
ENDBRANCH  14  15
ENDBRANCH  13  14
ENDBRANCH  11  12
ENDBRANCH  10  11
ENDBRANCH   8   9
ENDBRANCH   7   8
ENDBRANCH   5   6
ENDBRANCH   4   5
ENDBRANCH   3   4
ENDBRANCH   2   3
TORSDOF 12
ENDMDL
MODEL      251
REMARK 921   NORMALIZED FREE ENERGY PREDICTED BY IDOCK:   -3.47 KCAL/MOL
REMARK 922        TOTAL FREE ENERGY PREDICTED BY IDOCK:   -7.85 KCAL/MOL
REMARK 923 INTER-LIGAND FREE ENERGY PREDICTED BY IDOCK:   -5.74 KCAL/MOL
REMARK 924 INTRA-LIGAND FREE ENERGY PREDICTED BY IDOCK:   -2.11 KCAL/MOL
REMARK 927      BINDING AFFINITY PREDICTED BY RF-SCORE:    0.00 PKD
ROOT
HETATM    1  C   UNL     1     -11.776  15.495  69.562  1.00  0.00    -0.380 C  
HETATM    2  C   UNL     1     -12.015  14.513  70.694  1.00  0.00    -0.387 C  
ENDROOT
BRANCH   2   3
HETATM    3  C   UNL     1     -13.435  14.633  71.236  1.00  0.00    -0.451 C  
BRANCH   3   4
HETATM    4  C   UNL     1     -13.841  13.377  72.005  1.00  0.00    -0.484 C  
BRANCH   4   5
HETATM    5  C   UNL     1     -12.926  12.224  71.616  1.00  0.00    -0.416 C  
BRANCH   5   6
HETATM    6  C   UNL     1     -13.517  10.874  71.897  1.00  0.00    -0.306 C  
HETATM    7  C   UNL     1     -12.818   9.738  71.749  1.00  0.00    -0.530 C  
BRANCH   7   8
HETATM    8  C   UNL     1     -11.399   9.682  71.270  1.00  0.00    -0.458 C  
BRANCH   8   9
HETATM    9  C   UNL     1     -11.305   9.208  69.853  1.00  0.00    -0.047 C  
HETATM   10  C   UNL     1     -10.972   9.983  68.809  1.00  0.00    -0.242 C  
BRANCH  10  11
HETATM   11  C   UNL     1     -10.737  11.461  68.881  1.00  0.00    -0.248 C  
BRANCH  11  12
HETATM   12  C   UNL     1     -11.677  12.215  67.982  1.00  0.00    -0.409 C  
HETATM   13  C   UNL     1     -11.347  12.725  66.785  1.00  0.00    -0.362 C  
BRANCH  13  14
HETATM   14  C   UNL     1      -9.967  12.601  66.216  1.00  0.00    -0.266 C  
BRANCH  14  15
HETATM   15  C   UNL     1      -9.879  11.674  65.011  1.00  0.00    -0.280 C  
BRANCH  15  16
HETATM   16  C   UNL     1      -8.553  10.913  65.059  1.00  0.00    -0.056 C  
BRANCH  16  17
HETATM   17  C   UNL     1      -8.466  10.022  66.290  1.00  0.00    -0.134 C  
HETATM   18  C   UNL     1      -7.487  10.565  67.303  1.00  0.00    -0.095 C  
HETATM   19  O   UNL     1      -6.830  11.588  67.178  1.00  0.00    -0.116 OA 
HETATM   20  O   UNL     1      -7.401   9.781  68.402  1.00  0.00    -0.077 OA 
ENDBRANCH  16  17
ENDBRANCH  15  16
ENDBRANCH  14  15
ENDBRANCH  13  14
ENDBRANCH  11  12
ENDBRANCH  10  11
ENDBRANCH   8   9
ENDBRANCH   7   8
ENDBRANCH   5   6
ENDBRANCH   4   5
ENDBRANCH   3   4
ENDBRANCH   2   3
TORSDOF 12
ENDMDL
MODEL      252
REMARK 921   NORMALIZED FREE ENERGY PREDICTED BY IDOCK:   -3.46 KCAL/MOL
REMARK 922        TOTAL FREE ENERGY PREDICTED BY IDOCK:   -7.85 KCAL/MOL
REMARK 923 INTER-LIGAND FREE ENERGY PREDICTED BY IDOCK:   -5.95 KCAL/MOL
REMARK 924 INTRA-LIGAND FREE ENERGY PREDICTED BY IDOCK:   -1.90 KCAL/MOL
REMARK 927      BINDING AFFINITY PREDICTED BY RF-SCORE:    0.00 PKD
ROOT
HETATM    1  C   UNL     1     -10.749  11.508  65.638  1.00  0.00    -0.323 C  
HETATM    2  C   UNL     1     -11.644  11.906  66.798  1.00  0.00    -0.341 C  
ENDROOT
BRANCH   2   3
HETATM    3  C   UNL     1     -12.302  13.258  66.546  1.00  0.00    -0.311 C  
BRANCH   3   4
HETATM    4  C   UNL     1     -11.771  14.318  67.509  1.00  0.00    -0.415 C  
BRANCH   4   5
HETATM    5  C   UNL     1     -11.200  13.642  68.748  1.00  0.00    -0.314 C  
BRANCH   5   6
HETATM    6  C   UNL     1     -11.925  14.003  70.011  1.00  0.00    -0.404 C  
HETATM    7  C   UNL     1     -12.386  13.076  70.865  1.00  0.00    -0.376 C  
BRANCH   7   8
HETATM    8  C   UNL     1     -12.257  11.598  70.650  1.00  0.00    -0.461 C  
BRANCH   8   9
HETATM    9  C   UNL     1     -13.206  10.823  71.511  1.00  0.00    -0.434 C  
HETATM   10  C   UNL     1     -12.934   9.633  72.069  1.00  0.00    -0.518 C  
BRANCH  10  11
HETATM   11  C   UNL     1     -11.678   8.848  71.841  1.00  0.00    -0.439 C  
BRANCH  11  12
HETATM   12  C   UNL     1     -11.951   7.571  71.098  1.00  0.00    -0.334 C  
HETATM   13  C   UNL     1     -11.208   7.101  70.083  1.00  0.00    -0.295 C  
BRANCH  13  14
HETATM   14  C   UNL     1     -10.006   7.833  69.567  1.00  0.00    -0.187 C  
BRANCH  14  15
HETATM   15  C   UNL     1     -10.345   9.048  68.715  1.00  0.00    -0.236 C  
BRANCH  15  16
HETATM   16  C   UNL     1      -9.049   9.716  68.255  1.00  0.00    -0.123 C  
BRANCH  16  17
HETATM   17  C   UNL     1      -8.930  11.133  68.797  1.00  0.00    -0.136 C  
HETATM   18  C   UNL     1      -7.658  11.801  68.333  1.00  0.00    -0.123 C  
HETATM   19  O   UNL     1      -6.809  11.293  67.615  1.00  0.00    -0.071 OA 
HETATM   20  O   UNL     1      -7.541  13.063  68.807  1.00  0.00    -0.108 OA 
ENDBRANCH  16  17
ENDBRANCH  15  16
ENDBRANCH  14  15
ENDBRANCH  13  14
ENDBRANCH  11  12
ENDBRANCH  10  11
ENDBRANCH   8   9
ENDBRANCH   7   8
ENDBRANCH   5   6
ENDBRANCH   4   5
ENDBRANCH   3   4
ENDBRANCH   2   3
TORSDOF 12
ENDMDL
MODEL      253
REMARK 921   NORMALIZED FREE ENERGY PREDICTED BY IDOCK:   -3.46 KCAL/MOL
REMARK 922        TOTAL FREE ENERGY PREDICTED BY IDOCK:   -7.84 KCAL/MOL
REMARK 923 INTER-LIGAND FREE ENERGY PREDICTED BY IDOCK:   -5.95 KCAL/MOL
REMARK 924 INTRA-LIGAND FREE ENERGY PREDICTED BY IDOCK:   -1.89 KCAL/MOL
REMARK 927      BINDING AFFINITY PREDICTED BY RF-SCORE:    0.00 PKD
ROOT
HETATM    1  C   UNL     1      -7.746  11.236  67.091  1.00  0.00    -0.147 C  
HETATM    2  C   UNL     1      -8.347  11.963  68.280  1.00  0.00    -0.159 C  
ENDROOT
BRANCH   2   3
HETATM    3  C   UNL     1      -8.224  13.474  68.119  1.00  0.00    -0.162 C  
BRANCH   3   4
HETATM    4  C   UNL     1      -6.769  13.925  68.229  1.00  0.00    -0.109 C  
BRANCH   4   5
HETATM    5  C   UNL     1      -6.706  15.283  68.913  1.00  0.00    -0.115 C  
BRANCH   5   6
HETATM    6  C   UNL     1      -5.874  16.286  68.170  1.00  0.00    -0.113 C  
HETATM    7  C   UNL     1      -6.342  16.963  67.109  1.00  0.00    -0.221 C  
BRANCH   7   8
HETATM    8  C   UNL     1      -7.715  16.783  66.537  1.00  0.00    -0.334 C  
BRANCH   8   9
HETATM    9  C   UNL     1      -8.425  18.090  66.363  1.00  0.00    -0.262 C  
HETATM   10  C   UNL     1      -9.663  18.352  66.808  1.00  0.00    -0.331 C  
BRANCH  10  11
HETATM   11  C   UNL     1     -10.567  17.352  67.462  1.00  0.00    -0.330 C  
BRANCH  11  12
HETATM   12  C   UNL     1     -10.022  16.897  68.787  1.00  0.00    -0.276 C  
HETATM   13  C   UNL     1     -10.630  16.023  69.606  1.00  0.00    -0.311 C  
BRANCH  13  14
HETATM   14  C   UNL     1     -11.956  15.409  69.277  1.00  0.00    -0.335 C  
BRANCH  14  15
HETATM   15  C   UNL     1     -11.852  14.048  68.600  1.00  0.00    -0.396 C  
BRANCH  15  16
HETATM   16  C   UNL     1     -12.145  14.206  67.108  1.00  0.00    -0.432 C  
BRANCH  16  17
HETATM   17  C   UNL     1     -11.283  13.275  66.268  1.00  0.00    -0.321 C  
HETATM   18  C   UNL     1     -12.080  12.622  65.164  1.00  0.00    -0.455 C  
HETATM   19  O   UNL     1     -13.270  12.798  64.948  1.00  0.00    -0.808 OA 
HETATM   20  O   UNL     1     -11.323  11.792  64.409  1.00  0.00    -0.330 OA 
ENDBRANCH  16  17
ENDBRANCH  15  16
ENDBRANCH  14  15
ENDBRANCH  13  14
ENDBRANCH  11  12
ENDBRANCH  10  11
ENDBRANCH   8   9
ENDBRANCH   7   8
ENDBRANCH   5   6
ENDBRANCH   4   5
ENDBRANCH   3   4
ENDBRANCH   2   3
TORSDOF 12
ENDMDL
MODEL      254
REMARK 921   NORMALIZED FREE ENERGY PREDICTED BY IDOCK:   -3.45 KCAL/MOL
REMARK 922        TOTAL FREE ENERGY PREDICTED BY IDOCK:   -7.83 KCAL/MOL
REMARK 923 INTER-LIGAND FREE ENERGY PREDICTED BY IDOCK:   -5.88 KCAL/MOL
REMARK 924 INTRA-LIGAND FREE ENERGY PREDICTED BY IDOCK:   -1.95 KCAL/MOL
REMARK 927      BINDING AFFINITY PREDICTED BY RF-SCORE:    0.00 PKD
ROOT
HETATM    1  C   UNL     1     -11.120   6.256  68.723  1.00  0.00    -0.424 C  
HETATM    2  C   UNL     1     -10.947   6.573  67.249  1.00  0.00    -0.475 C  
ENDROOT
BRANCH   2   3
HETATM    3  C   UNL     1     -10.529   5.334  66.466  1.00  0.00    -0.354 C  
BRANCH   3   4
HETATM    4  C   UNL     1      -9.240   4.734  67.027  1.00  0.00    -0.133 C  
BRANCH   4   5
HETATM    5  C   UNL     1      -8.150   5.797  67.048  1.00  0.00    -0.102 C  
BRANCH   5   6
HETATM    6  C   UNL     1      -7.339   5.843  65.786  1.00  0.00    -0.076 C  
HETATM    7  C   UNL     1      -7.406   6.870  64.926  1.00  0.00    -0.087 C  
BRANCH   7   8
HETATM    8  C   UNL     1      -8.299   8.061  65.106  1.00  0.00    -0.139 C  
BRANCH   8   9
HETATM    9  C   UNL     1      -7.600   9.184  65.807  1.00  0.00    -0.091 C  
HETATM   10  C   UNL     1      -8.150   9.945  66.766  1.00  0.00    -0.117 C  
BRANCH  10  11
HETATM   11  C   UNL     1      -9.575   9.855  67.219  1.00  0.00    -0.195 C  
BRANCH  11  12
HETATM   12  C   UNL     1      -9.678   9.815  68.718  1.00  0.00    -0.165 C  
HETATM   13  C   UNL     1     -10.606  10.464  69.439  1.00  0.00    -0.267 C  
BRANCH  13  14
HETATM   14  C   UNL     1     -11.652  11.328  68.804  1.00  0.00    -0.383 C  
BRANCH  14  15
HETATM   15  C   UNL     1     -11.261  12.796  68.706  1.00  0.00    -0.327 C  
BRANCH  15  16
HETATM   16  C   UNL     1     -11.963  13.424  67.502  1.00  0.00    -0.381 C  
BRANCH  16  17
HETATM   17  C   UNL     1     -11.845  12.544  66.266  1.00  0.00    -0.453 C  
HETATM   18  C   UNL     1     -12.596  13.127  65.093  1.00  0.00    -0.465 C  
HETATM   19  O   UNL     1     -13.231  14.171  65.104  1.00  0.00    -0.743 OA 
HETATM   20  O   UNL     1     -12.497  12.353  63.987  1.00  0.00    -0.505 OA 
ENDBRANCH  16  17
ENDBRANCH  15  16
ENDBRANCH  14  15
ENDBRANCH  13  14
ENDBRANCH  11  12
ENDBRANCH  10  11
ENDBRANCH   8   9
ENDBRANCH   7   8
ENDBRANCH   5   6
ENDBRANCH   4   5
ENDBRANCH   3   4
ENDBRANCH   2   3
TORSDOF 12
ENDMDL
MODEL      255
REMARK 921   NORMALIZED FREE ENERGY PREDICTED BY IDOCK:   -3.44 KCAL/MOL
REMARK 922        TOTAL FREE ENERGY PREDICTED BY IDOCK:   -7.81 KCAL/MOL
REMARK 923 INTER-LIGAND FREE ENERGY PREDICTED BY IDOCK:   -6.43 KCAL/MOL
REMARK 924 INTRA-LIGAND FREE ENERGY PREDICTED BY IDOCK:   -1.38 KCAL/MOL
REMARK 927      BINDING AFFINITY PREDICTED BY RF-SCORE:    0.00 PKD
ROOT
HETATM    1  C   UNL     1      -5.903  10.737  65.177  1.00  0.00    -0.030 C  
HETATM    2  C   UNL     1      -5.441   9.965  63.954  1.00  0.00    -0.093 C  
ENDROOT
BRANCH   2   3
HETATM    3  C   UNL     1      -6.334  10.253  62.753  1.00  0.00    -0.138 C  
BRANCH   3   4
HETATM    4  C   UNL     1      -7.550   9.328  62.735  1.00  0.00    -0.108 C  
BRANCH   4   5
HETATM    5  C   UNL     1      -8.819  10.151  62.906  1.00  0.00    -0.231 C  
BRANCH   5   6
HETATM    6  C   UNL     1      -9.467   9.973  64.248  1.00  0.00    -0.336 C  
HETATM    7  C   UNL     1     -10.227  10.926  64.811  1.00  0.00    -0.398 C  
BRANCH   7   8
HETATM    8  C   UNL     1     -10.493  12.264  64.190  1.00  0.00    -0.402 C  
BRANCH   8   9
HETATM    9  C   UNL     1     -11.941  12.636  64.261  1.00  0.00    -0.480 C  
HETATM   10  C   UNL     1     -12.468  13.491  65.151  1.00  0.00    -0.495 C  
BRANCH  10  11
HETATM   11  C   UNL     1     -11.709  14.134  66.272  1.00  0.00    -0.402 C  
BRANCH  11  12
HETATM   12  C   UNL     1     -11.898  13.391  67.565  1.00  0.00    -0.408 C  
HETATM   13  C   UNL     1     -11.948  13.965  68.778  1.00  0.00    -0.393 C  
BRANCH  13  14
HETATM   14  C   UNL     1     -11.804  15.444  68.969  1.00  0.00    -0.357 C  
BRANCH  14  15
HETATM   15  C   UNL     1     -10.563  15.844  69.757  1.00  0.00    -0.322 C  
BRANCH  15  16
HETATM   16  C   UNL     1      -9.687  16.748  68.890  1.00  0.00    -0.257 C  
BRANCH  16  17
HETATM   17  C   UNL     1     -10.525  17.592  67.940  1.00  0.00    -0.392 C  
HETATM   18  C   UNL     1     -10.197  19.061  68.064  1.00  0.00    -0.399 C  
HETATM   19  O   UNL     1      -9.370  19.542  68.825  1.00  0.00    -0.375 OA 
HETATM   20  O   UNL     1     -10.935  19.822  67.224  1.00  0.00    -0.414 OA 
ENDBRANCH  16  17
ENDBRANCH  15  16
ENDBRANCH  14  15
ENDBRANCH  13  14
ENDBRANCH  11  12
ENDBRANCH  10  11
ENDBRANCH   8   9
ENDBRANCH   7   8
ENDBRANCH   5   6
ENDBRANCH   4   5
ENDBRANCH   3   4
ENDBRANCH   2   3
TORSDOF 12
ENDMDL
MODEL      256
REMARK 921   NORMALIZED FREE ENERGY PREDICTED BY IDOCK:   -3.44 KCAL/MOL
REMARK 922        TOTAL FREE ENERGY PREDICTED BY IDOCK:   -7.81 KCAL/MOL
REMARK 923 INTER-LIGAND FREE ENERGY PREDICTED BY IDOCK:   -6.02 KCAL/MOL
REMARK 924 INTRA-LIGAND FREE ENERGY PREDICTED BY IDOCK:   -1.79 KCAL/MOL
REMARK 927      BINDING AFFINITY PREDICTED BY RF-SCORE:    0.00 PKD
ROOT
HETATM    1  C   UNL     1     -10.092   5.874  71.295  1.00  0.00    -0.245 C  
HETATM    2  C   UNL     1     -10.976   6.263  70.123  1.00  0.00    -0.411 C  
ENDROOT
BRANCH   2   3
HETATM    3  C   UNL     1     -11.254   7.762  70.119  1.00  0.00    -0.168 C  
BRANCH   3   4
HETATM    4  C   UNL     1      -9.957   8.564  70.024  1.00  0.00    -0.191 C  
BRANCH   4   5
HETATM    5  C   UNL     1      -9.737   9.008  68.584  1.00  0.00    -0.168 C  
BRANCH   5   6
HETATM    6  C   UNL     1     -10.927   9.696  67.985  1.00  0.00    -0.197 C  
HETATM    7  C   UNL     1     -11.084  11.029  68.027  1.00  0.00    -0.343 C  
BRANCH   7   8
HETATM    8  C   UNL     1     -10.120  11.967  68.688  1.00  0.00    -0.170 C  
BRANCH   8   9
HETATM    9  C   UNL     1      -9.009  12.367  67.768  1.00  0.00    -0.182 C  
HETATM   10  C   UNL     1      -8.991  13.490  67.034  1.00  0.00    -0.237 C  
BRANCH  10  11
HETATM   11  C   UNL     1     -10.120  14.473  66.945  1.00  0.00    -0.257 C  
BRANCH  11  12
HETATM   12  C   UNL     1     -10.281  15.005  65.549  1.00  0.00    -0.406 C  
HETATM   13  C   UNL     1     -11.336  14.764  64.755  1.00  0.00    -0.399 C  
BRANCH  13  14
HETATM   14  C   UNL     1     -12.484  13.904  65.189  1.00  0.00    -0.479 C  
BRANCH  14  15
HETATM   15  C   UNL     1     -12.211  12.410  65.073  1.00  0.00    -0.465 C  
BRANCH  15  16
HETATM   16  C   UNL     1     -11.047  12.186  64.107  1.00  0.00    -0.424 C  
BRANCH  16  17
HETATM   17  C   UNL     1     -10.372  10.844  64.349  1.00  0.00    -0.430 C  
HETATM   18  C   UNL     1      -9.339  10.541  63.290  1.00  0.00    -0.314 C  
HETATM   19  O   UNL     1      -9.060  11.263  62.344  1.00  0.00    -0.317 OA 
HETATM   20  O   UNL     1      -8.730   9.350  63.495  1.00  0.00    -0.214 OA 
ENDBRANCH  16  17
ENDBRANCH  15  16
ENDBRANCH  14  15
ENDBRANCH  13  14
ENDBRANCH  11  12
ENDBRANCH  10  11
ENDBRANCH   8   9
ENDBRANCH   7   8
ENDBRANCH   5   6
ENDBRANCH   4   5
ENDBRANCH   3   4
ENDBRANCH   2   3
TORSDOF 12
ENDMDL
MODEL      257
REMARK 921   NORMALIZED FREE ENERGY PREDICTED BY IDOCK:   -3.44 KCAL/MOL
REMARK 922        TOTAL FREE ENERGY PREDICTED BY IDOCK:   -7.80 KCAL/MOL
REMARK 923 INTER-LIGAND FREE ENERGY PREDICTED BY IDOCK:   -6.76 KCAL/MOL
REMARK 924 INTRA-LIGAND FREE ENERGY PREDICTED BY IDOCK:   -1.04 KCAL/MOL
REMARK 927      BINDING AFFINITY PREDICTED BY RF-SCORE:    0.00 PKD
ROOT
HETATM    1  C   UNL     1     -11.630  10.390  70.480  1.00  0.00    -0.433 C  
HETATM    2  C   UNL     1     -10.609   9.286  70.691  1.00  0.00    -0.324 C  
ENDROOT
BRANCH   2   3
HETATM    3  C   UNL     1     -10.896   8.510  71.971  1.00  0.00    -0.405 C  
BRANCH   3   4
HETATM    4  C   UNL     1     -11.974   7.451  71.745  1.00  0.00    -0.338 C  
BRANCH   4   5
HETATM    5  C   UNL     1     -11.922   6.971  70.301  1.00  0.00    -0.197 C  
BRANCH   5   6
HETATM    6  C   UNL     1     -10.794   6.020  70.030  1.00  0.00    -0.429 C  
HETATM    7  C   UNL     1     -10.245   5.885  68.812  1.00  0.00    -0.243 C  
BRANCH   7   8
HETATM    8  C   UNL     1     -10.700   6.636  67.597  1.00  0.00    -0.373 C  
BRANCH   8   9
HETATM    9  C   UNL     1      -9.620   6.738  66.565  1.00  0.00    -0.191 C  
HETATM   10  C   UNL     1      -9.204   7.884  66.006  1.00  0.00    -0.162 C  
BRANCH  10  11
HETATM   11  C   UNL     1      -9.818   9.229  66.252  1.00  0.00    -0.361 C  
BRANCH  11  12
HETATM   12  C   UNL     1      -9.416  10.222  65.198  1.00  0.00    -0.309 C  
HETATM   13  C   UNL     1      -9.728  11.528  65.216  1.00  0.00    -0.268 C  
BRANCH  13  14
HETATM   14  C   UNL     1     -10.544  12.139  66.314  1.00  0.00    -0.285 C  
BRANCH  14  15
HETATM   15  C   UNL     1     -12.014  12.322  65.959  1.00  0.00    -0.342 C  
BRANCH  15  16
HETATM   16  C   UNL     1     -12.459  13.724  66.375  1.00  0.00    -0.404 C  
BRANCH  16  17
HETATM   17  C   UNL     1     -12.492  14.674  65.186  1.00  0.00    -0.206 C  
HETATM   18  C   UNL     1     -11.353  15.664  65.233  1.00  0.00    -0.139 C  
HETATM   19  O   UNL     1     -10.499  15.723  66.105  1.00  0.00    -0.294 OA 
HETATM   20  O   UNL     1     -11.371  16.514  64.180  1.00  0.00    -1.060 OA 
ENDBRANCH  16  17
ENDBRANCH  15  16
ENDBRANCH  14  15
ENDBRANCH  13  14
ENDBRANCH  11  12
ENDBRANCH  10  11
ENDBRANCH   8   9
ENDBRANCH   7   8
ENDBRANCH   5   6
ENDBRANCH   4   5
ENDBRANCH   3   4
ENDBRANCH   2   3
TORSDOF 12
ENDMDL
MODEL      258
REMARK 921   NORMALIZED FREE ENERGY PREDICTED BY IDOCK:   -3.42 KCAL/MOL
REMARK 922        TOTAL FREE ENERGY PREDICTED BY IDOCK:   -7.78 KCAL/MOL
REMARK 923 INTER-LIGAND FREE ENERGY PREDICTED BY IDOCK:   -6.50 KCAL/MOL
REMARK 924 INTRA-LIGAND FREE ENERGY PREDICTED BY IDOCK:   -1.28 KCAL/MOL
REMARK 927      BINDING AFFINITY PREDICTED BY RF-SCORE:    0.00 PKD
ROOT
HETATM    1  C   UNL     1     -11.407   6.436  69.707  1.00  0.00    -0.494 C  
HETATM    2  C   UNL     1     -10.402   5.307  69.567  1.00  0.00    -0.333 C  
ENDROOT
BRANCH   2   3
HETATM    3  C   UNL     1     -10.190   4.939  68.103  1.00  0.00    -0.104 C  
BRANCH   3   4
HETATM    4  C   UNL     1      -8.896   5.545  67.563  1.00  0.00    -0.105 C  
BRANCH   4   5
HETATM    5  C   UNL     1      -9.226   6.682  66.606  1.00  0.00    -0.179 C  
BRANCH   5   6
HETATM    6  C   UNL     1      -8.498   7.956  66.921  1.00  0.00    -0.128 C  
HETATM    7  C   UNL     1      -9.140   9.113  67.147  1.00  0.00    -0.146 C  
BRANCH   7   8
HETATM    8  C   UNL     1     -10.629   9.274  67.089  1.00  0.00    -0.286 C  
BRANCH   8   9
HETATM    9  C   UNL     1     -11.090  10.489  67.832  1.00  0.00    -0.367 C  
HETATM   10  C   UNL     1     -11.394  11.664  67.260  1.00  0.00    -0.372 C  
BRANCH  10  11
HETATM   11  C   UNL     1     -11.229  11.976  65.804  1.00  0.00    -0.383 C  
BRANCH  11  12
HETATM   12  C   UNL     1     -12.312  12.893  65.308  1.00  0.00    -0.544 C  
HETATM   13  C   UNL     1     -12.228  14.232  65.281  1.00  0.00    -0.414 C  
BRANCH  13  14
HETATM   14  C   UNL     1     -11.017  14.967  65.768  1.00  0.00    -0.351 C  
BRANCH  14  15
HETATM   15  C   UNL     1     -11.094  15.376  67.233  1.00  0.00    -0.302 C  
BRANCH  15  16
HETATM   16  C   UNL     1     -10.258  16.638  67.447  1.00  0.00    -0.286 C  
BRANCH  16  17
HETATM   17  C   UNL     1     -10.324  17.562  66.239  1.00  0.00    -0.335 C  
HETATM   18  C   UNL     1     -10.522  19.001  66.650  1.00  0.00    -0.437 C  
HETATM   19  O   UNL     1     -10.623  19.405  67.799  1.00  0.00    -0.429 OA 
HETATM   20  O   UNL     1     -10.582  19.833  65.584  1.00  0.00    -0.507 OA 
ENDBRANCH  16  17
ENDBRANCH  15  16
ENDBRANCH  14  15
ENDBRANCH  13  14
ENDBRANCH  11  12
ENDBRANCH  10  11
ENDBRANCH   8   9
ENDBRANCH   7   8
ENDBRANCH   5   6
ENDBRANCH   4   5
ENDBRANCH   3   4
ENDBRANCH   2   3
TORSDOF 12
ENDMDL
MODEL      259
REMARK 921   NORMALIZED FREE ENERGY PREDICTED BY IDOCK:   -3.42 KCAL/MOL
REMARK 922        TOTAL FREE ENERGY PREDICTED BY IDOCK:   -7.78 KCAL/MOL
REMARK 923 INTER-LIGAND FREE ENERGY PREDICTED BY IDOCK:   -6.59 KCAL/MOL
REMARK 924 INTRA-LIGAND FREE ENERGY PREDICTED BY IDOCK:   -1.20 KCAL/MOL
REMARK 927      BINDING AFFINITY PREDICTED BY RF-SCORE:    0.00 PKD
ROOT
HETATM    1  C   UNL     1      -6.381  19.513  67.751  1.00  0.00    -0.236 C  
HETATM    2  C   UNL     1      -7.701  20.173  67.395  1.00  0.00    -0.341 C  
ENDROOT
BRANCH   2   3
HETATM    3  C   UNL     1      -8.389  19.442  66.247  1.00  0.00    -0.346 C  
BRANCH   3   4
HETATM    4  C   UNL     1      -9.907  19.449  66.420  1.00  0.00    -0.476 C  
BRANCH   4   5
HETATM    5  C   UNL     1     -10.380  18.062  66.831  1.00  0.00    -0.377 C  
BRANCH   5   6
HETATM    6  C   UNL     1     -10.358  17.841  68.315  1.00  0.00    -0.387 C  
HETATM    7  C   UNL     1     -10.077  16.646  68.859  1.00  0.00    -0.274 C  
BRANCH   7   8
HETATM    8  C   UNL     1      -9.784  15.409  68.065  1.00  0.00    -0.207 C  
BRANCH   8   9
HETATM    9  C   UNL     1     -10.569  14.232  68.553  1.00  0.00    -0.260 C  
HETATM   10  C   UNL     1     -11.596  13.673  67.895  1.00  0.00    -0.376 C  
BRANCH  10  11
HETATM   11  C   UNL     1     -12.180  14.195  66.617  1.00  0.00    -0.450 C  
BRANCH  11  12
HETATM   12  C   UNL     1     -11.109  14.548  65.623  1.00  0.00    -0.327 C  
HETATM   13  C   UNL     1     -11.085  14.138  64.345  1.00  0.00    -0.265 C  
BRANCH  13  14
HETATM   14  C   UNL     1     -12.147  13.251  63.771  1.00  0.00    -0.546 C  
BRANCH  14  15
HETATM   15  C   UNL     1     -11.912  11.768  64.024  1.00  0.00    -0.380 C  
BRANCH  15  16
HETATM   16  C   UNL     1     -10.412  11.479  63.961  1.00  0.00    -0.424 C  
BRANCH  16  17
HETATM   17  C   UNL     1     -10.026  10.328  64.878  1.00  0.00    -0.393 C  
HETATM   18  C   UNL     1      -9.284  10.813  66.100  1.00  0.00    -0.180 C  
HETATM   19  O   UNL     1      -9.010  11.978  66.348  1.00  0.00    -0.203 OA 
HETATM   20  O   UNL     1      -8.937   9.798  66.925  1.00  0.00    -0.136 OA 
ENDBRANCH  16  17
ENDBRANCH  15  16
ENDBRANCH  14  15
ENDBRANCH  13  14
ENDBRANCH  11  12
ENDBRANCH  10  11
ENDBRANCH   8   9
ENDBRANCH   7   8
ENDBRANCH   5   6
ENDBRANCH   4   5
ENDBRANCH   3   4
ENDBRANCH   2   3
TORSDOF 12
ENDMDL
MODEL      260
REMARK 921   NORMALIZED FREE ENERGY PREDICTED BY IDOCK:   -3.42 KCAL/MOL
REMARK 922        TOTAL FREE ENERGY PREDICTED BY IDOCK:   -7.78 KCAL/MOL
REMARK 923 INTER-LIGAND FREE ENERGY PREDICTED BY IDOCK:   -5.46 KCAL/MOL
REMARK 924 INTRA-LIGAND FREE ENERGY PREDICTED BY IDOCK:   -2.32 KCAL/MOL
REMARK 927      BINDING AFFINITY PREDICTED BY RF-SCORE:    0.00 PKD
ROOT
HETATM    1  C   UNL     1     -10.727   5.748  69.646  1.00  0.00    -0.416 C  
HETATM    2  C   UNL     1     -10.966   6.593  68.407  1.00  0.00    -0.313 C  
ENDROOT
BRANCH   2   3
HETATM    3  C   UNL     1     -10.376   5.930  67.168  1.00  0.00    -0.286 C  
BRANCH   3   4
HETATM    4  C   UNL     1      -8.849   5.912  67.225  1.00  0.00    -0.106 C  
BRANCH   4   5
HETATM    5  C   UNL     1      -8.321   7.340  67.179  1.00  0.00    -0.118 C  
BRANCH   5   6
HETATM    6  C   UNL     1      -8.326   7.931  65.800  1.00  0.00    -0.139 C  
HETATM    7  C   UNL     1      -9.099   8.978  65.470  1.00  0.00    -0.271 C  
BRANCH   7   8
HETATM    8  C   UNL     1     -10.049   9.651  66.414  1.00  0.00    -0.317 C  
BRANCH   8   9
HETATM    9  C   UNL     1      -9.459  10.890  67.014  1.00  0.00    -0.184 C  
HETATM   10  C   UNL     1      -9.024  10.993  68.279  1.00  0.00    -0.155 C  
BRANCH  10  11
HETATM   11  C   UNL     1      -9.148   9.920  69.318  1.00  0.00    -0.196 C  
BRANCH  11  12
HETATM   12  C   UNL     1      -7.920   9.840  70.180  1.00  0.00    -0.201 C  
HETATM   13  C   UNL     1      -7.723   8.935  71.152  1.00  0.00    -0.158 C  
BRANCH  13  14
HETATM   14  C   UNL     1      -8.745   7.893  71.491  1.00  0.00    -0.150 C  
BRANCH  14  15
HETATM   15  C   UNL     1      -9.546   8.204  72.749  1.00  0.00    -0.353 C  
BRANCH  15  16
HETATM   16  C   UNL     1     -11.038   8.103  72.431  1.00  0.00    -0.437 C  
BRANCH  16  17
HETATM   17  C   UNL     1     -11.517   9.295  71.614  1.00  0.00    -0.468 C  
HETATM   18  C   UNL     1     -12.972   9.600  71.875  1.00  0.00    -0.435 C  
HETATM   19  O   UNL     1     -13.702   8.984  72.637  1.00  0.00    -0.470 OA 
HETATM   20  O   UNL     1     -13.409  10.660  71.155  1.00  0.00    -0.286 OA 
ENDBRANCH  16  17
ENDBRANCH  15  16
ENDBRANCH  14  15
ENDBRANCH  13  14
ENDBRANCH  11  12
ENDBRANCH  10  11
ENDBRANCH   8   9
ENDBRANCH   7   8
ENDBRANCH   5   6
ENDBRANCH   4   5
ENDBRANCH   3   4
ENDBRANCH   2   3
TORSDOF 12
ENDMDL
MODEL      261
REMARK 921   NORMALIZED FREE ENERGY PREDICTED BY IDOCK:   -3.42 KCAL/MOL
REMARK 922        TOTAL FREE ENERGY PREDICTED BY IDOCK:   -7.78 KCAL/MOL
REMARK 923 INTER-LIGAND FREE ENERGY PREDICTED BY IDOCK:   -6.41 KCAL/MOL
REMARK 924 INTRA-LIGAND FREE ENERGY PREDICTED BY IDOCK:   -1.37 KCAL/MOL
REMARK 927      BINDING AFFINITY PREDICTED BY RF-SCORE:    0.00 PKD
ROOT
HETATM    1  C   UNL     1     -13.210  11.275  71.952  1.00  0.00    -0.491 C  
HETATM    2  C   UNL     1     -13.242  12.785  72.101  1.00  0.00    -0.546 C  
ENDROOT
BRANCH   2   3
HETATM    3  C   UNL     1     -12.536  13.468  70.935  1.00  0.00    -0.448 C  
BRANCH   3   4
HETATM    4  C   UNL     1     -11.837  14.749  71.387  1.00  0.00    -0.394 C  
BRANCH   4   5
HETATM    5  C   UNL     1     -10.817  15.171  70.338  1.00  0.00    -0.249 C  
BRANCH   5   6
HETATM    6  C   UNL     1     -11.227  16.389  69.565  1.00  0.00    -0.250 C  
HETATM    7  C   UNL     1     -11.140  16.455  68.228  1.00  0.00    -0.337 C  
BRANCH   7   8
HETATM    8  C   UNL     1     -10.610  15.349  67.365  1.00  0.00    -0.289 C  
BRANCH   8   9
HETATM    9  C   UNL     1     -11.697  14.426  66.907  1.00  0.00    -0.422 C  
HETATM   10  C   UNL     1     -11.518  13.137  66.582  1.00  0.00    -0.389 C  
BRANCH  10  11
HETATM   11  C   UNL     1     -10.191  12.443  66.534  1.00  0.00    -0.244 C  
BRANCH  11  12
HETATM   12  C   UNL     1     -10.051  11.603  65.295  1.00  0.00    -0.305 C  
HETATM   13  C   UNL     1      -9.594  10.341  65.273  1.00  0.00    -0.324 C  
BRANCH  13  14
HETATM   14  C   UNL     1      -9.152   9.629  66.515  1.00  0.00    -0.185 C  
BRANCH  14  15
HETATM   15  C   UNL     1     -10.266   8.861  67.213  1.00  0.00    -0.326 C  
BRANCH  15  16
HETATM   16  C   UNL     1     -10.182   9.113  68.719  1.00  0.00    -0.228 C  
BRANCH  16  17
HETATM   17  C   UNL     1     -10.641   7.899  69.513  1.00  0.00    -0.220 C  
HETATM   18  C   UNL     1     -10.567   8.147  71.001  1.00  0.00    -0.210 C  
HETATM   19  O   UNL     1     -10.187   9.181  71.531  1.00  0.00    -0.323 OA 
HETATM   20  O   UNL     1     -10.974   7.075  71.719  1.00  0.00    -0.229 OA 
ENDBRANCH  16  17
ENDBRANCH  15  16
ENDBRANCH  14  15
ENDBRANCH  13  14
ENDBRANCH  11  12
ENDBRANCH  10  11
ENDBRANCH   8   9
ENDBRANCH   7   8
ENDBRANCH   5   6
ENDBRANCH   4   5
ENDBRANCH   3   4
ENDBRANCH   2   3
TORSDOF 12
ENDMDL
MODEL      262
REMARK 921   NORMALIZED FREE ENERGY PREDICTED BY IDOCK:   -3.42 KCAL/MOL
REMARK 922        TOTAL FREE ENERGY PREDICTED BY IDOCK:   -7.78 KCAL/MOL
REMARK 923 INTER-LIGAND FREE ENERGY PREDICTED BY IDOCK:   -5.40 KCAL/MOL
REMARK 924 INTRA-LIGAND FREE ENERGY PREDICTED BY IDOCK:   -2.38 KCAL/MOL
REMARK 927      BINDING AFFINITY PREDICTED BY RF-SCORE:    0.00 PKD
ROOT
HETATM    1  C   UNL     1      -8.149   5.119  71.273  1.00  0.00    -0.113 C  
HETATM    2  C   UNL     1      -9.069   5.496  70.126  1.00  0.00    -0.162 C  
ENDROOT
BRANCH   2   3
HETATM    3  C   UNL     1     -10.497   5.712  70.614  1.00  0.00    -0.340 C  
BRANCH   3   4
HETATM    4  C   UNL     1     -11.410   6.154  69.472  1.00  0.00    -0.426 C  
BRANCH   4   5
HETATM    5  C   UNL     1     -10.744   5.845  68.138  1.00  0.00    -0.329 C  
BRANCH   5   6
HETATM    6  C   UNL     1     -11.005   6.883  67.087  1.00  0.00    -0.427 C  
HETATM    7  C   UNL     1     -10.242   7.979  66.954  1.00  0.00    -0.385 C  
BRANCH   7   8
HETATM    8  C   UNL     1      -9.076   8.303  67.839  1.00  0.00    -0.137 C  
BRANCH   8   9
HETATM    9  C   UNL     1      -7.799   8.409  67.065  1.00  0.00    -0.096 C  
HETATM   10  C   UNL     1      -7.072   9.530  66.940  1.00  0.00    -0.086 C  
BRANCH  10  11
HETATM   11  C   UNL     1      -7.470  10.872  67.474  1.00  0.00    -0.097 C  
BRANCH  11  12
HETATM   12  C   UNL     1      -8.378  11.599  66.522  1.00  0.00    -0.122 C  
HETATM   13  C   UNL     1      -9.605  12.050  66.827  1.00  0.00    -0.215 C  
BRANCH  13  14
HETATM   14  C   UNL     1     -10.214  11.855  68.182  1.00  0.00    -0.203 C  
BRANCH  14  15
HETATM   15  C   UNL     1     -11.584  11.190  68.150  1.00  0.00    -0.350 C  
BRANCH  15  16
HETATM   16  C   UNL     1     -12.047  10.928  69.583  1.00  0.00    -0.400 C  
BRANCH  16  17
HETATM   17  C   UNL     1     -11.046  10.072  70.346  1.00  0.00    -0.393 C  
HETATM   18  C   UNL     1     -11.656   9.479  71.593  1.00  0.00    -0.381 C  
HETATM   19  O   UNL     1     -12.806   9.650  71.972  1.00  0.00    -0.390 OA 
HETATM   20  O   UNL     1     -10.776   8.715  72.280  1.00  0.00    -0.344 OA 
ENDBRANCH  16  17
ENDBRANCH  15  16
ENDBRANCH  14  15
ENDBRANCH  13  14
ENDBRANCH  11  12
ENDBRANCH  10  11
ENDBRANCH   8   9
ENDBRANCH   7   8
ENDBRANCH   5   6
ENDBRANCH   4   5
ENDBRANCH   3   4
ENDBRANCH   2   3
TORSDOF 12
ENDMDL
MODEL      263
REMARK 921   NORMALIZED FREE ENERGY PREDICTED BY IDOCK:   -3.41 KCAL/MOL
REMARK 922        TOTAL FREE ENERGY PREDICTED BY IDOCK:   -7.76 KCAL/MOL
REMARK 923 INTER-LIGAND FREE ENERGY PREDICTED BY IDOCK:   -5.16 KCAL/MOL
REMARK 924 INTRA-LIGAND FREE ENERGY PREDICTED BY IDOCK:   -2.60 KCAL/MOL
REMARK 927      BINDING AFFINITY PREDICTED BY RF-SCORE:    0.00 PKD
ROOT
HETATM    1  C   UNL     1     -10.798  10.726  67.170  1.00  0.00    -0.335 C  
HETATM    2  C   UNL     1      -9.303  10.562  67.379  1.00  0.00    -0.158 C  
ENDROOT
BRANCH   2   3
HETATM    3  C   UNL     1      -8.755   9.409  66.548  1.00  0.00    -0.148 C  
BRANCH   3   4
HETATM    4  C   UNL     1      -9.835   8.363  66.276  1.00  0.00    -0.257 C  
BRANCH   4   5
HETATM    5  C   UNL     1      -9.637   7.173  67.205  1.00  0.00    -0.191 C  
BRANCH   5   6
HETATM    6  C   UNL     1     -10.924   6.580  67.696  1.00  0.00    -0.426 C  
HETATM    7  C   UNL     1     -11.015   5.929  68.867  1.00  0.00    -0.337 C  
BRANCH   7   8
HETATM    8  C   UNL     1      -9.858   5.699  69.792  1.00  0.00    -0.245 C  
BRANCH   8   9
HETATM    9  C   UNL     1     -10.190   4.712  70.868  1.00  0.00    -0.213 C  
HETATM   10  C   UNL     1     -10.763   5.024  72.040  1.00  0.00    -0.205 C  
BRANCH  10  11
HETATM   11  C   UNL     1     -11.074   6.417  72.498  1.00  0.00    -0.298 C  
BRANCH  11  12
HETATM   12  C   UNL     1     -12.336   6.937  71.869  1.00  0.00    -0.364 C  
HETATM   13  C   UNL     1     -12.524   8.203  71.464  1.00  0.00    -0.333 C  
BRANCH  13  14
HETATM   14  C   UNL     1     -11.470   9.256  71.617  1.00  0.00    -0.468 C  
BRANCH  14  15
HETATM   15  C   UNL     1     -10.425   9.246  70.509  1.00  0.00    -0.312 C  
BRANCH  15  16
HETATM   16  C   UNL     1      -9.037   9.087  71.130  1.00  0.00    -0.316 C  
BRANCH  16  17
HETATM   17  C   UNL     1      -8.009   8.656  70.094  1.00  0.00    -0.103 C  
HETATM   18  C   UNL     1      -6.842   9.612  70.036  1.00  0.00    -0.085 C  
HETATM   19  O   UNL     1      -6.712  10.616  70.721  1.00  0.00    -0.322 OA 
HETATM   20  O   UNL     1      -5.919   9.238  69.119  1.00  0.00    -0.041 OA 
ENDBRANCH  16  17
ENDBRANCH  15  16
ENDBRANCH  14  15
ENDBRANCH  13  14
ENDBRANCH  11  12
ENDBRANCH  10  11
ENDBRANCH   8   9
ENDBRANCH   7   8
ENDBRANCH   5   6
ENDBRANCH   4   5
ENDBRANCH   3   4
ENDBRANCH   2   3
TORSDOF 12
ENDMDL
MODEL      264
REMARK 921   NORMALIZED FREE ENERGY PREDICTED BY IDOCK:   -3.41 KCAL/MOL
REMARK 922        TOTAL FREE ENERGY PREDICTED BY IDOCK:   -7.75 KCAL/MOL
REMARK 923 INTER-LIGAND FREE ENERGY PREDICTED BY IDOCK:   -6.41 KCAL/MOL
REMARK 924 INTRA-LIGAND FREE ENERGY PREDICTED BY IDOCK:   -1.34 KCAL/MOL
REMARK 927      BINDING AFFINITY PREDICTED BY RF-SCORE:    0.00 PKD
ROOT
HETATM    1  C   UNL     1     -11.019   6.381  67.319  1.00  0.00    -0.474 C  
HETATM    2  C   UNL     1     -10.092   5.807  68.375  1.00  0.00    -0.216 C  
ENDROOT
BRANCH   2   3
HETATM    3  C   UNL     1      -9.727   6.858  69.416  1.00  0.00    -0.157 C  
BRANCH   3   4
HETATM    4  C   UNL     1      -9.417   8.202  68.759  1.00  0.00    -0.148 C  
BRANCH   4   5
HETATM    5  C   UNL     1      -9.385   9.293  69.819  1.00  0.00    -0.199 C  
BRANCH   5   6
HETATM    6  C   UNL     1     -10.362   9.069  70.935  1.00  0.00    -0.323 C  
HETATM    7  C   UNL     1     -11.544   9.703  70.994  1.00  0.00    -0.436 C  
BRANCH   7   8
HETATM    8  C   UNL     1     -12.008  10.710  69.985  1.00  0.00    -0.408 C  
BRANCH   8   9
HETATM    9  C   UNL     1     -12.410  12.001  70.627  1.00  0.00    -0.394 C  
HETATM   10  C   UNL     1     -12.032  13.216  70.201  1.00  0.00    -0.381 C  
BRANCH  10  11
HETATM   11  C   UNL     1     -11.074  13.470  69.077  1.00  0.00    -0.293 C  
BRANCH  11  12
HETATM   12  C   UNL     1     -11.793  13.679  67.774  1.00  0.00    -0.403 C  
HETATM   13  C   UNL     1     -11.191  13.855  66.587  1.00  0.00    -0.328 C  
BRANCH  13  14
HETATM   14  C   UNL     1      -9.700  13.873  66.442  1.00  0.00    -0.309 C  
BRANCH  14  15
HETATM   15  C   UNL     1      -9.139  15.225  66.022  1.00  0.00    -0.244 C  
BRANCH  15  16
HETATM   16  C   UNL     1     -10.276  16.246  65.972  1.00  0.00    -0.376 C  
BRANCH  16  17
HETATM   17  C   UNL     1      -9.794  17.636  66.361  1.00  0.00    -0.315 C  
HETATM   18  C   UNL     1     -10.104  17.950  67.805  1.00  0.00    -0.348 C  
HETATM   19  O   UNL     1     -10.673  17.203  68.587  1.00  0.00    -0.343 OA 
HETATM   20  O   UNL     1      -9.679  19.184  68.163  1.00  0.00    -0.322 OA 
ENDBRANCH  16  17
ENDBRANCH  15  16
ENDBRANCH  14  15
ENDBRANCH  13  14
ENDBRANCH  11  12
ENDBRANCH  10  11
ENDBRANCH   8   9
ENDBRANCH   7   8
ENDBRANCH   5   6
ENDBRANCH   4   5
ENDBRANCH   3   4
ENDBRANCH   2   3
TORSDOF 12
ENDMDL
MODEL      265
REMARK 921   NORMALIZED FREE ENERGY PREDICTED BY IDOCK:   -3.40 KCAL/MOL
REMARK 922        TOTAL FREE ENERGY PREDICTED BY IDOCK:   -7.75 KCAL/MOL
REMARK 923 INTER-LIGAND FREE ENERGY PREDICTED BY IDOCK:   -5.66 KCAL/MOL
REMARK 924 INTRA-LIGAND FREE ENERGY PREDICTED BY IDOCK:   -2.08 KCAL/MOL
REMARK 927      BINDING AFFINITY PREDICTED BY RF-SCORE:    0.00 PKD
ROOT
HETATM    1  C   UNL     1     -10.703  11.702  64.666  1.00  0.00    -0.371 C  
HETATM    2  C   UNL     1     -11.638  12.306  65.698  1.00  0.00    -0.433 C  
ENDROOT
BRANCH   2   3
HETATM    3  C   UNL     1     -11.409  11.691  67.074  1.00  0.00    -0.373 C  
BRANCH   3   4
HETATM    4  C   UNL     1     -12.094  12.511  68.166  1.00  0.00    -0.124 C  
BRANCH   4   5
HETATM    5  C   UNL     1     -11.376  12.296  69.491  1.00  0.00    -0.258 C  
BRANCH   5   6
HETATM    6  C   UNL     1     -12.166  11.479  70.471  1.00  0.00    -0.469 C  
HETATM    7  C   UNL     1     -11.945  10.168  70.656  1.00  0.00    -0.423 C  
BRANCH   7   8
HETATM    8  C   UNL     1     -10.920   9.374  69.903  1.00  0.00    -0.251 C  
BRANCH   8   9
HETATM    9  C   UNL     1      -9.565   9.471  70.533  1.00  0.00    -0.312 C  
HETATM   10  C   UNL     1      -8.468   9.937  69.916  1.00  0.00    -0.210 C  
BRANCH  10  11
HETATM   11  C   UNL     1      -8.403  10.344  68.476  1.00  0.00    -0.124 C  
BRANCH  11  12
HETATM   12  C   UNL     1      -7.173  11.158  68.186  1.00  0.00    -0.080 C  
HETATM   13  C   UNL     1      -7.158  12.490  68.022  1.00  0.00    -0.103 C  
BRANCH  13  14
HETATM   14  C   UNL     1      -8.403  13.320  68.101  1.00  0.00    -0.161 C  
BRANCH  14  15
HETATM   15  C   UNL     1      -8.664  14.157  66.856  1.00  0.00    -0.187 C  
BRANCH  15  16
HETATM   16  C   UNL     1      -8.158  15.580  67.093  1.00  0.00    -0.249 C  
BRANCH  16  17
HETATM   17  C   UNL     1      -8.747  16.556  66.085  1.00  0.00    -0.335 C  
HETATM   18  C   UNL     1      -9.909  17.325  66.667  1.00  0.00    -0.295 C  
HETATM   19  O   UNL     1     -10.346  17.199  67.802  1.00  0.00    -0.319 OA 
HETATM   20  O   UNL     1     -10.441  18.198  65.780  1.00  0.00    -0.584 OA 
ENDBRANCH  16  17
ENDBRANCH  15  16
ENDBRANCH  14  15
ENDBRANCH  13  14
ENDBRANCH  11  12
ENDBRANCH  10  11
ENDBRANCH   8   9
ENDBRANCH   7   8
ENDBRANCH   5   6
ENDBRANCH   4   5
ENDBRANCH   3   4
ENDBRANCH   2   3
TORSDOF 12
ENDMDL
MODEL      266
REMARK 921   NORMALIZED FREE ENERGY PREDICTED BY IDOCK:   -3.40 KCAL/MOL
REMARK 922        TOTAL FREE ENERGY PREDICTED BY IDOCK:   -7.74 KCAL/MOL
REMARK 923 INTER-LIGAND FREE ENERGY PREDICTED BY IDOCK:   -5.39 KCAL/MOL
REMARK 924 INTRA-LIGAND FREE ENERGY PREDICTED BY IDOCK:   -2.36 KCAL/MOL
REMARK 927      BINDING AFFINITY PREDICTED BY RF-SCORE:    0.00 PKD
ROOT
HETATM    1  C   UNL     1      -9.029   4.965  69.139  1.00  0.00    -0.132 C  
HETATM    2  C   UNL     1     -10.243   5.162  70.030  1.00  0.00    -0.354 C  
ENDROOT
BRANCH   2   3
HETATM    3  C   UNL     1     -11.154   6.255  69.484  1.00  0.00    -0.476 C  
BRANCH   3   4
HETATM    4  C   UNL     1     -11.653   7.167  70.603  1.00  0.00    -0.354 C  
BRANCH   4   5
HETATM    5  C   UNL     1     -11.430   6.492  71.949  1.00  0.00    -0.345 C  
BRANCH   5   6
HETATM    6  C   UNL     1     -11.079   7.452  73.047  1.00  0.00    -0.390 C  
HETATM    7  C   UNL     1      -9.842   7.536  73.561  1.00  0.00    -0.372 C  
BRANCH   7   8
HETATM    8  C   UNL     1      -8.692   6.678  73.125  1.00  0.00    -0.134 C  
BRANCH   8   9
HETATM    9  C   UNL     1      -7.453   7.484  72.883  1.00  0.00    -0.095 C  
HETATM   10  C   UNL     1      -7.213   8.201  71.775  1.00  0.00    -0.089 C  
BRANCH  10  11
HETATM   11  C   UNL     1      -8.098   8.233  70.567  1.00  0.00    -0.105 C  
BRANCH  11  12
HETATM   12  C   UNL     1      -8.558   9.629  70.254  1.00  0.00    -0.234 C  
HETATM   13  C   UNL     1      -9.160  10.000  69.113  1.00  0.00    -0.188 C  
BRANCH  13  14
HETATM   14  C   UNL     1      -9.428   9.033  68.001  1.00  0.00    -0.157 C  
BRANCH  14  15
HETATM   15  C   UNL     1     -10.388   9.563  66.944  1.00  0.00    -0.307 C  
BRANCH  15  16
HETATM   16  C   UNL     1      -9.635  10.513  66.012  1.00  0.00    -0.242 C  
BRANCH  16  17
HETATM   17  C   UNL     1     -10.377  10.711  64.699  1.00  0.00    -0.353 C  
HETATM   18  C   UNL     1     -11.239  11.950  64.728  1.00  0.00    -0.297 C  
HETATM   19  O   UNL     1     -11.351  12.715  65.674  1.00  0.00    -0.298 OA 
HETATM   20  O   UNL     1     -11.904  12.137  63.564  1.00  0.00    -0.464 OA 
ENDBRANCH  16  17
ENDBRANCH  15  16
ENDBRANCH  14  15
ENDBRANCH  13  14
ENDBRANCH  11  12
ENDBRANCH  10  11
ENDBRANCH   8   9
ENDBRANCH   7   8
ENDBRANCH   5   6
ENDBRANCH   4   5
ENDBRANCH   3   4
ENDBRANCH   2   3
TORSDOF 12
ENDMDL
MODEL      267
REMARK 921   NORMALIZED FREE ENERGY PREDICTED BY IDOCK:   -3.40 KCAL/MOL
REMARK 922        TOTAL FREE ENERGY PREDICTED BY IDOCK:   -7.73 KCAL/MOL
REMARK 923 INTER-LIGAND FREE ENERGY PREDICTED BY IDOCK:   -5.88 KCAL/MOL
REMARK 924 INTRA-LIGAND FREE ENERGY PREDICTED BY IDOCK:   -1.85 KCAL/MOL
REMARK 927      BINDING AFFINITY PREDICTED BY RF-SCORE:    0.00 PKD
ROOT
HETATM    1  C   UNL     1      -6.536  10.103  63.311  1.00  0.00    -0.134 C  
HETATM    2  C   UNL     1      -7.414   8.942  62.878  1.00  0.00    -0.106 C  
ENDROOT
BRANCH   2   3
HETATM    3  C   UNL     1      -8.742   8.949  63.625  1.00  0.00    -0.041 C  
BRANCH   3   4
HETATM    4  C   UNL     1      -8.873  10.190  64.506  1.00  0.00    -0.228 C  
BRANCH   4   5
HETATM    5  C   UNL     1     -10.287  10.745  64.399  1.00  0.00    -0.405 C  
BRANCH   5   6
HETATM    6  C   UNL     1     -10.377  11.991  63.568  1.00  0.00    -0.492 C  
HETATM    7  C   UNL     1     -11.393  12.860  63.683  1.00  0.00    -0.455 C  
BRANCH   7   8
HETATM    8  C   UNL     1     -12.549  12.681  64.620  1.00  0.00    -0.517 C  
BRANCH   8   9
HETATM    9  C   UNL     1     -12.770  13.891  65.473  1.00  0.00    -0.536 C  
HETATM   10  C   UNL     1     -12.159  14.121  66.645  1.00  0.00    -0.480 C  
BRANCH  10  11
HETATM   11  C   UNL     1     -11.234  13.163  67.331  1.00  0.00    -0.319 C  
BRANCH  11  12
HETATM   12  C   UNL     1     -11.897  12.499  68.506  1.00  0.00    -0.341 C  
HETATM   13  C   UNL     1     -11.456  11.379  69.101  1.00  0.00    -0.365 C  
BRANCH  13  14
HETATM   14  C   UNL     1     -10.233  10.653  68.632  1.00  0.00    -0.196 C  
BRANCH  14  15
HETATM   15  C   UNL     1     -10.533   9.448  67.751  1.00  0.00    -0.310 C  
BRANCH  15  16
HETATM   16  C   UNL     1      -9.987   8.187  68.422  1.00  0.00    -0.210 C  
BRANCH  16  17
HETATM   17  C   UNL     1      -9.012   7.450  67.515  1.00  0.00    -0.126 C  
HETATM   18  C   UNL     1      -9.701   6.366  66.722  1.00  0.00    -0.158 C  
HETATM   19  O   UNL     1     -10.890   6.089  66.781  1.00  0.00    -0.315 OA 
HETATM   20  O   UNL     1      -8.845   5.703  65.910  1.00  0.00    -0.145 OA 
ENDBRANCH  16  17
ENDBRANCH  15  16
ENDBRANCH  14  15
ENDBRANCH  13  14
ENDBRANCH  11  12
ENDBRANCH  10  11
ENDBRANCH   8   9
ENDBRANCH   7   8
ENDBRANCH   5   6
ENDBRANCH   4   5
ENDBRANCH   3   4
ENDBRANCH   2   3
TORSDOF 12
ENDMDL
MODEL      268
REMARK 921   NORMALIZED FREE ENERGY PREDICTED BY IDOCK:   -3.39 KCAL/MOL
REMARK 922        TOTAL FREE ENERGY PREDICTED BY IDOCK:   -7.72 KCAL/MOL
REMARK 923 INTER-LIGAND FREE ENERGY PREDICTED BY IDOCK:   -6.26 KCAL/MOL
REMARK 924 INTRA-LIGAND FREE ENERGY PREDICTED BY IDOCK:   -1.46 KCAL/MOL
REMARK 927      BINDING AFFINITY PREDICTED BY RF-SCORE:    0.00 PKD
ROOT
HETATM    1  C   UNL     1      -6.444   8.784  71.080  1.00  0.00    -0.056 C  
HETATM    2  C   UNL     1      -7.906   9.182  71.183  1.00  0.00    -0.119 C  
ENDROOT
BRANCH   2   3
HETATM    3  C   UNL     1      -8.684   8.198  72.049  1.00  0.00    -0.221 C  
BRANCH   3   4
HETATM    4  C   UNL     1     -10.115   8.679  72.282  1.00  0.00    -0.363 C  
BRANCH   4   5
HETATM    5  C   UNL     1     -11.005   7.490  72.616  1.00  0.00    -0.385 C  
BRANCH   5   6
HETATM    6  C   UNL     1     -12.205   7.374  71.724  1.00  0.00    -0.359 C  
HETATM    7  C   UNL     1     -12.148   6.794  70.514  1.00  0.00    -0.332 C  
BRANCH   7   8
HETATM    8  C   UNL     1     -10.898   6.226  69.913  1.00  0.00    -0.399 C  
BRANCH   8   9
HETATM    9  C   UNL     1     -10.884   6.359  68.422  1.00  0.00    -0.383 C  
HETATM   10  C   UNL     1     -10.459   7.444  67.756  1.00  0.00    -0.298 C  
BRANCH  10  11
HETATM   11  C   UNL     1     -10.023   8.726  68.397  1.00  0.00    -0.200 C  
BRANCH  11  12
HETATM   12  C   UNL     1      -8.663   9.151  67.917  1.00  0.00    -0.128 C  
HETATM   13  C   UNL     1      -8.440  10.071  66.966  1.00  0.00    -0.125 C  
BRANCH  13  14
HETATM   14  C   UNL     1      -9.557  10.777  66.259  1.00  0.00    -0.234 C  
BRANCH  14  15
HETATM   15  C   UNL     1      -9.753  12.220  66.707  1.00  0.00    -0.219 C  
BRANCH  15  16
HETATM   16  C   UNL     1     -10.240  13.052  65.520  1.00  0.00    -0.296 C  
BRANCH  16  17
HETATM   17  C   UNL     1     -11.088  12.222  64.568  1.00  0.00    -0.368 C  
HETATM   18  C   UNL     1     -12.370  12.931  64.202  1.00  0.00    -0.376 C  
HETATM   19  O   UNL     1     -12.712  14.033  64.606  1.00  0.00    -0.648 OA 
HETATM   20  O   UNL     1     -13.133  12.203  63.354  1.00  0.00    -0.752 OA 
ENDBRANCH  16  17
ENDBRANCH  15  16
ENDBRANCH  14  15
ENDBRANCH  13  14
ENDBRANCH  11  12
ENDBRANCH  10  11
ENDBRANCH   8   9
ENDBRANCH   7   8
ENDBRANCH   5   6
ENDBRANCH   4   5
ENDBRANCH   3   4
ENDBRANCH   2   3
TORSDOF 12
ENDMDL
MODEL      269
REMARK 921   NORMALIZED FREE ENERGY PREDICTED BY IDOCK:   -3.39 KCAL/MOL
REMARK 922        TOTAL FREE ENERGY PREDICTED BY IDOCK:   -7.72 KCAL/MOL
REMARK 923 INTER-LIGAND FREE ENERGY PREDICTED BY IDOCK:   -6.16 KCAL/MOL
REMARK 924 INTRA-LIGAND FREE ENERGY PREDICTED BY IDOCK:   -1.56 KCAL/MOL
REMARK 927      BINDING AFFINITY PREDICTED BY RF-SCORE:    0.00 PKD
ROOT
HETATM    1  C   UNL     1     -10.744  16.598  69.445  1.00  0.00    -0.331 C  
HETATM    2  C   UNL     1     -10.742  17.185  68.044  1.00  0.00    -0.372 C  
ENDROOT
BRANCH   2   3
HETATM    3  C   UNL     1      -9.719  16.486  67.157  1.00  0.00    -0.246 C  
BRANCH   3   4
HETATM    4  C   UNL     1     -10.234  16.344  65.726  1.00  0.00    -0.370 C  
BRANCH   4   5
HETATM    5  C   UNL     1     -10.411  14.869  65.392  1.00  0.00    -0.406 C  
BRANCH   5   6
HETATM    6  C   UNL     1     -11.799  14.362  65.651  1.00  0.00    -0.355 C  
HETATM    7  C   UNL     1     -12.099  13.599  66.714  1.00  0.00    -0.445 C  
BRANCH   7   8
HETATM    8  C   UNL     1     -11.098  13.149  67.735  1.00  0.00    -0.287 C  
BRANCH   8   9
HETATM    9  C   UNL     1     -11.701  13.043  69.101  1.00  0.00    -0.378 C  
HETATM   10  C   UNL     1     -11.782  11.909  69.814  1.00  0.00    -0.403 C  
BRANCH  10  11
HETATM   11  C   UNL     1     -11.371  10.556  69.319  1.00  0.00    -0.325 C  
BRANCH  11  12
HETATM   12  C   UNL     1      -9.895  10.328  69.495  1.00  0.00    -0.244 C  
HETATM   13  C   UNL     1      -9.256   9.185  69.198  1.00  0.00    -0.144 C  
BRANCH  13  14
HETATM   14  C   UNL     1      -9.973   7.985  68.659  1.00  0.00    -0.200 C  
BRANCH  14  15
HETATM   15  C   UNL     1      -9.335   6.660  69.052  1.00  0.00    -0.133 C  
BRANCH  15  16
HETATM   16  C   UNL     1     -10.189   5.993  70.131  1.00  0.00    -0.267 C  
BRANCH  16  17
HETATM   17  C   UNL     1     -11.632   6.475  70.078  1.00  0.00    -0.455 C  
HETATM   18  C   UNL     1     -12.255   6.519  71.452  1.00  0.00    -0.247 C  
HETATM   19  O   UNL     1     -11.698   6.210  72.495  1.00  0.00    -0.278 OA 
HETATM   20  O   UNL     1     -13.538   6.948  71.418  1.00  0.00    -0.275 OA 
ENDBRANCH  16  17
ENDBRANCH  15  16
ENDBRANCH  14  15
ENDBRANCH  13  14
ENDBRANCH  11  12
ENDBRANCH  10  11
ENDBRANCH   8   9
ENDBRANCH   7   8
ENDBRANCH   5   6
ENDBRANCH   4   5
ENDBRANCH   3   4
ENDBRANCH   2   3
TORSDOF 12
ENDMDL
MODEL      270
REMARK 921   NORMALIZED FREE ENERGY PREDICTED BY IDOCK:   -3.38 KCAL/MOL
REMARK 922        TOTAL FREE ENERGY PREDICTED BY IDOCK:   -7.70 KCAL/MOL
REMARK 923 INTER-LIGAND FREE ENERGY PREDICTED BY IDOCK:   -6.19 KCAL/MOL
REMARK 924 INTRA-LIGAND FREE ENERGY PREDICTED BY IDOCK:   -1.51 KCAL/MOL
REMARK 927      BINDING AFFINITY PREDICTED BY RF-SCORE:    0.00 PKD
ROOT
HETATM    1  C   UNL     1     -12.175  14.480  70.634  1.00  0.00    -0.401 C  
HETATM    2  C   UNL     1     -11.114  14.616  69.557  1.00  0.00    -0.294 C  
ENDROOT
BRANCH   2   3
HETATM    3  C   UNL     1     -11.737  14.977  68.214  1.00  0.00    -0.338 C  
BRANCH   3   4
HETATM    4  C   UNL     1     -11.193  14.088  67.096  1.00  0.00    -0.327 C  
BRANCH   4   5
HETATM    5  C   UNL     1     -10.561  12.841  67.699  1.00  0.00    -0.230 C  
BRANCH   5   6
HETATM    6  C   UNL     1     -11.316  11.582  67.390  1.00  0.00    -0.367 C  
HETATM    7  C   UNL     1     -11.756  10.754  68.351  1.00  0.00    -0.232 C  
BRANCH   7   8
HETATM    8  C   UNL     1     -11.528  10.971  69.816  1.00  0.00    -0.387 C  
BRANCH   8   9
HETATM    9  C   UNL     1     -10.458  10.072  70.355  1.00  0.00    -0.304 C  
HETATM   10  C   UNL     1     -10.643   9.160  71.322  1.00  0.00    -0.399 C  
BRANCH  10  11
HETATM   11  C   UNL     1     -11.920   8.963  72.081  1.00  0.00    -0.419 C  
BRANCH  11  12
HETATM   12  C   UNL     1     -12.816   7.964  71.405  1.00  0.00    -0.305 C  
HETATM   13  C   UNL     1     -12.621   6.636  71.407  1.00  0.00    -0.257 C  
BRANCH  13  14
HETATM   14  C   UNL     1     -11.449   6.001  72.091  1.00  0.00    -0.356 C  
BRANCH  14  15
HETATM   15  C   UNL     1     -10.441   5.380  71.134  1.00  0.00    -0.295 C  
BRANCH  15  16
HETATM   16  C   UNL     1     -10.859   5.686  69.695  1.00  0.00    -0.365 C  
BRANCH  16  17
HETATM   17  C   UNL     1      -9.851   5.142  68.693  1.00  0.00    -0.225 C  
HETATM   18  C   UNL     1     -10.140   5.630  67.294  1.00  0.00    -0.177 C  
HETATM   19  O   UNL     1     -11.061   6.367  66.974  1.00  0.00    -0.384 OA 
HETATM   20  O   UNL     1      -9.249   5.154  66.393  1.00  0.00    -0.132 OA 
ENDBRANCH  16  17
ENDBRANCH  15  16
ENDBRANCH  14  15
ENDBRANCH  13  14
ENDBRANCH  11  12
ENDBRANCH  10  11
ENDBRANCH   8   9
ENDBRANCH   7   8
ENDBRANCH   5   6
ENDBRANCH   4   5
ENDBRANCH   3   4
ENDBRANCH   2   3
TORSDOF 12
ENDMDL
MODEL      271
REMARK 921   NORMALIZED FREE ENERGY PREDICTED BY IDOCK:   -3.38 KCAL/MOL
REMARK 922        TOTAL FREE ENERGY PREDICTED BY IDOCK:   -7.70 KCAL/MOL
REMARK 923 INTER-LIGAND FREE ENERGY PREDICTED BY IDOCK:   -6.37 KCAL/MOL
REMARK 924 INTRA-LIGAND FREE ENERGY PREDICTED BY IDOCK:   -1.33 KCAL/MOL
REMARK 927      BINDING AFFINITY PREDICTED BY RF-SCORE:    0.00 PKD
ROOT
HETATM    1  C   UNL     1      -6.011  20.156  69.152  1.00  0.00    -0.347 C  
HETATM    2  C   UNL     1      -7.136  19.354  68.521  1.00  0.00    -0.350 C  
ENDROOT
BRANCH   2   3
HETATM    3  C   UNL     1      -8.218  20.271  67.963  1.00  0.00    -0.132 C  
BRANCH   3   4
HETATM    4  C   UNL     1      -8.508  19.954  66.497  1.00  0.00    -0.379 C  
BRANCH   4   5
HETATM    5  C   UNL     1     -10.004  19.749  66.306  1.00  0.00    -0.581 C  
BRANCH   5   6
HETATM    6  C   UNL     1     -10.641  18.951  67.404  1.00  0.00    -0.534 C  
HETATM    7  C   UNL     1     -10.884  17.636  67.290  1.00  0.00    -0.141 C  
BRANCH   7   8
HETATM    8  C   UNL     1     -10.575  16.829  66.065  1.00  0.00    -0.232 C  
BRANCH   8   9
HETATM    9  C   UNL     1      -9.472  15.845  66.305  1.00  0.00    -0.350 C  
HETATM   10  C   UNL     1      -9.642  14.619  66.823  1.00  0.00    -0.266 C  
BRANCH  10  11
HETATM   11  C   UNL     1     -10.943  14.076  67.330  1.00  0.00    -0.302 C  
BRANCH  11  12
HETATM   12  C   UNL     1     -11.604  13.185  66.315  1.00  0.00    -0.399 C  
HETATM   13  C   UNL     1     -11.569  11.844  66.336  1.00  0.00    -0.315 C  
BRANCH  13  14
HETATM   14  C   UNL     1     -10.836  11.080  67.396  1.00  0.00    -0.327 C  
BRANCH  14  15
HETATM   15  C   UNL     1      -9.624  10.316  66.877  1.00  0.00    -0.211 C  
BRANCH  15  16
HETATM   16  C   UNL     1      -9.975   9.671  65.536  1.00  0.00    -0.279 C  
BRANCH  16  17
HETATM   17  C   UNL     1      -8.958  10.028  64.462  1.00  0.00    -0.261 C  
HETATM   18  C   UNL     1      -9.585  10.825  63.344  1.00  0.00    -0.338 C  
HETATM   19  O   UNL     1     -10.760  11.155  63.280  1.00  0.00    -0.319 OA 
HETATM   20  O   UNL     1      -8.689  11.150  62.383  1.00  0.00    -0.305 OA 
ENDBRANCH  16  17
ENDBRANCH  15  16
ENDBRANCH  14  15
ENDBRANCH  13  14
ENDBRANCH  11  12
ENDBRANCH  10  11
ENDBRANCH   8   9
ENDBRANCH   7   8
ENDBRANCH   5   6
ENDBRANCH   4   5
ENDBRANCH   3   4
ENDBRANCH   2   3
TORSDOF 12
ENDMDL
MODEL      272
REMARK 921   NORMALIZED FREE ENERGY PREDICTED BY IDOCK:   -3.38 KCAL/MOL
REMARK 922        TOTAL FREE ENERGY PREDICTED BY IDOCK:   -7.70 KCAL/MOL
REMARK 923 INTER-LIGAND FREE ENERGY PREDICTED BY IDOCK:   -6.65 KCAL/MOL
REMARK 924 INTRA-LIGAND FREE ENERGY PREDICTED BY IDOCK:   -1.05 KCAL/MOL
REMARK 927      BINDING AFFINITY PREDICTED BY RF-SCORE:    0.00 PKD
ROOT
HETATM    1  C   UNL     1      -6.151   3.543  65.176  1.00  0.00    -0.023 C  
HETATM    2  C   UNL     1      -7.292   3.763  66.153  1.00  0.00    -0.072 C  
ENDROOT
BRANCH   2   3
HETATM    3  C   UNL     1      -7.702   5.230  66.197  1.00  0.00    -0.088 C  
BRANCH   3   4
HETATM    4  C   UNL     1      -9.219   5.377  66.305  1.00  0.00    -0.157 C  
BRANCH   4   5
HETATM    5  C   UNL     1      -9.567   6.163  67.561  1.00  0.00    -0.117 C  
BRANCH   5   6
HETATM    6  C   UNL     1      -9.515   5.338  68.813  1.00  0.00    -0.171 C  
HETATM    7  C   UNL     1     -10.436   5.445  69.783  1.00  0.00    -0.378 C  
BRANCH   7   8
HETATM    8  C   UNL     1     -11.591   6.401  69.744  1.00  0.00    -0.397 C  
BRANCH   8   9
HETATM    9  C   UNL     1     -11.988   6.855  71.114  1.00  0.00    -0.413 C  
HETATM   10  C   UNL     1     -11.801   8.094  71.592  1.00  0.00    -0.334 C  
BRANCH  10  11
HETATM   11  C   UNL     1     -11.079   9.191  70.869  1.00  0.00    -0.356 C  
BRANCH  11  12
HETATM   12  C   UNL     1     -12.013  10.302  70.476  1.00  0.00    -0.415 C  
HETATM   13  C   UNL     1     -11.852  11.094  69.404  1.00  0.00    -0.415 C  
BRANCH  13  14
HETATM   14  C   UNL     1     -10.686  10.954  68.475  1.00  0.00    -0.239 C  
BRANCH  14  15
HETATM   15  C   UNL     1     -10.708  11.932  67.308  1.00  0.00    -0.276 C  
BRANCH  15  16
HETATM   16  C   UNL     1     -12.030  12.700  67.322  1.00  0.00    -0.321 C  
BRANCH  16  17
HETATM   17  C   UNL     1     -11.987  13.902  66.389  1.00  0.00    -0.467 C  
HETATM   18  C   UNL     1     -12.587  13.582  65.041  1.00  0.00    -0.391 C  
HETATM   19  O   UNL     1     -13.053  12.502  64.709  1.00  0.00    -0.853 OA 
HETATM   20  O   UNL     1     -12.555  14.644  64.203  1.00  0.00    -0.766 OA 
ENDBRANCH  16  17
ENDBRANCH  15  16
ENDBRANCH  14  15
ENDBRANCH  13  14
ENDBRANCH  11  12
ENDBRANCH  10  11
ENDBRANCH   8   9
ENDBRANCH   7   8
ENDBRANCH   5   6
ENDBRANCH   4   5
ENDBRANCH   3   4
ENDBRANCH   2   3
TORSDOF 12
ENDMDL
MODEL      273
REMARK 921   NORMALIZED FREE ENERGY PREDICTED BY IDOCK:   -3.37 KCAL/MOL
REMARK 922        TOTAL FREE ENERGY PREDICTED BY IDOCK:   -7.69 KCAL/MOL
REMARK 923 INTER-LIGAND FREE ENERGY PREDICTED BY IDOCK:   -6.74 KCAL/MOL
REMARK 924 INTRA-LIGAND FREE ENERGY PREDICTED BY IDOCK:   -0.95 KCAL/MOL
REMARK 927      BINDING AFFINITY PREDICTED BY RF-SCORE:    0.00 PKD
ROOT
HETATM    1  C   UNL     1      -9.293   3.842  72.669  1.00  0.00    -0.154 C  
HETATM    2  C   UNL     1     -10.746   4.105  73.023  1.00  0.00    -0.256 C  
ENDROOT
BRANCH   2   3
HETATM    3  C   UNL     1     -11.107   5.570  72.809  1.00  0.00    -0.340 C  
BRANCH   3   4
HETATM    4  C   UNL     1     -11.039   5.945  71.329  1.00  0.00    -0.307 C  
BRANCH   4   5
HETATM    5  C   UNL     1     -12.042   7.053  71.038  1.00  0.00    -0.413 C  
BRANCH   5   6
HETATM    6  C   UNL     1     -12.043   8.142  72.069  1.00  0.00    -0.388 C  
HETATM    7  C   UNL     1     -11.752   9.417  71.769  1.00  0.00    -0.444 C  
BRANCH   7   8
HETATM    8  C   UNL     1     -11.374   9.892  70.398  1.00  0.00    -0.376 C  
BRANCH   8   9
HETATM    9  C   UNL     1     -12.156  11.101  69.989  1.00  0.00    -0.437 C  
HETATM   10  C   UNL     1     -11.903  11.843  68.900  1.00  0.00    -0.366 C  
BRANCH  10  11
HETATM   11  C   UNL     1     -10.743  11.636  67.974  1.00  0.00    -0.246 C  
BRANCH  11  12
HETATM   12  C   UNL     1     -11.197  11.415  66.558  1.00  0.00    -0.276 C  
HETATM   13  C   UNL     1     -11.665  12.376  65.746  1.00  0.00    -0.470 C  
BRANCH  13  14
HETATM   14  C   UNL     1     -11.797  13.802  66.187  1.00  0.00    -0.424 C  
BRANCH  14  15
HETATM   15  C   UNL     1     -11.523  14.815  65.083  1.00  0.00    -0.371 C  
BRANCH  15  16
HETATM   16  C   UNL     1     -10.187  15.506  65.356  1.00  0.00    -0.409 C  
BRANCH  16  17
HETATM   17  C   UNL     1      -9.741  15.309  66.798  1.00  0.00    -0.249 C  
HETATM   18  C   UNL     1      -9.806  16.597  67.582  1.00  0.00    -0.256 C  
HETATM   19  O   UNL     1     -10.163  17.680  67.141  1.00  0.00    -0.318 OA 
HETATM   20  O   UNL     1      -9.413  16.435  68.867  1.00  0.00    -0.235 OA 
ENDBRANCH  16  17
ENDBRANCH  15  16
ENDBRANCH  14  15
ENDBRANCH  13  14
ENDBRANCH  11  12
ENDBRANCH  10  11
ENDBRANCH   8   9
ENDBRANCH   7   8
ENDBRANCH   5   6
ENDBRANCH   4   5
ENDBRANCH   3   4
ENDBRANCH   2   3
TORSDOF 12
ENDMDL
MODEL      274
REMARK 921   NORMALIZED FREE ENERGY PREDICTED BY IDOCK:   -3.37 KCAL/MOL
REMARK 922        TOTAL FREE ENERGY PREDICTED BY IDOCK:   -7.68 KCAL/MOL
REMARK 923 INTER-LIGAND FREE ENERGY PREDICTED BY IDOCK:   -5.94 KCAL/MOL
REMARK 924 INTRA-LIGAND FREE ENERGY PREDICTED BY IDOCK:   -1.74 KCAL/MOL
REMARK 927      BINDING AFFINITY PREDICTED BY RF-SCORE:    0.00 PKD
ROOT
HETATM    1  C   UNL     1      -6.630  10.463  64.744  1.00  0.00    -0.045 C  
HETATM    2  C   UNL     1      -7.140   9.309  63.898  1.00  0.00    -0.095 C  
ENDROOT
BRANCH   2   3
HETATM    3  C   UNL     1      -8.416   8.719  64.487  1.00  0.00    -0.158 C  
BRANCH   3   4
HETATM    4  C   UNL     1      -8.183   7.297  64.995  1.00  0.00    -0.100 C  
BRANCH   4   5
HETATM    5  C   UNL     1      -9.166   6.990  66.117  1.00  0.00    -0.119 C  
BRANCH   5   6
HETATM    6  C   UNL     1     -10.113   8.117  66.405  1.00  0.00    -0.196 C  
HETATM    7  C   UNL     1     -10.518   8.415  67.649  1.00  0.00    -0.307 C  
BRANCH   7   8
HETATM    8  C   UNL     1     -10.102   7.655  68.873  1.00  0.00    -0.202 C  
BRANCH   8   9
HETATM    9  C   UNL     1      -9.459   8.545  69.892  1.00  0.00    -0.163 C  
HETATM   10  C   UNL     1     -10.112   9.447  70.639  1.00  0.00    -0.356 C  
BRANCH  10  11
HETATM   11  C   UNL     1     -11.568   9.776  70.506  1.00  0.00    -0.365 C  
BRANCH  11  12
HETATM   12  C   UNL     1     -11.820  11.249  70.669  1.00  0.00    -0.368 C  
HETATM   13  C   UNL     1     -11.942  12.122  69.657  1.00  0.00    -0.351 C  
BRANCH  13  14
HETATM   14  C   UNL     1     -11.823  11.704  68.223  1.00  0.00    -0.335 C  
BRANCH  14  15
HETATM   15  C   UNL     1     -10.457  11.988  67.612  1.00  0.00    -0.226 C  
BRANCH  15  16
HETATM   16  C   UNL     1     -10.625  12.942  66.429  1.00  0.00    -0.285 C  
BRANCH  16  17
HETATM   17  C   UNL     1     -11.045  12.199  65.169  1.00  0.00    -0.369 C  
HETATM   18  C   UNL     1     -12.302  12.785  64.571  1.00  0.00    -0.445 C  
HETATM   19  O   UNL     1     -12.928  13.733  65.022  1.00  0.00    -0.732 OA 
HETATM   20  O   UNL     1     -12.687  12.134  63.449  1.00  0.00    -0.722 OA 
ENDBRANCH  16  17
ENDBRANCH  15  16
ENDBRANCH  14  15
ENDBRANCH  13  14
ENDBRANCH  11  12
ENDBRANCH  10  11
ENDBRANCH   8   9
ENDBRANCH   7   8
ENDBRANCH   5   6
ENDBRANCH   4   5
ENDBRANCH   3   4
ENDBRANCH   2   3
TORSDOF 12
ENDMDL
MODEL      275
REMARK 921   NORMALIZED FREE ENERGY PREDICTED BY IDOCK:   -3.36 KCAL/MOL
REMARK 922        TOTAL FREE ENERGY PREDICTED BY IDOCK:   -7.68 KCAL/MOL
REMARK 923 INTER-LIGAND FREE ENERGY PREDICTED BY IDOCK:   -5.82 KCAL/MOL
REMARK 924 INTRA-LIGAND FREE ENERGY PREDICTED BY IDOCK:   -1.85 KCAL/MOL
REMARK 927      BINDING AFFINITY PREDICTED BY RF-SCORE:    0.00 PKD
ROOT
HETATM    1  C   UNL     1      -8.465  14.919  68.357  1.00  0.00    -0.153 C  
HETATM    2  C   UNL     1      -9.917  15.241  68.662  1.00  0.00    -0.216 C  
ENDROOT
BRANCH   2   3
HETATM    3  C   UNL     1     -10.724  15.408  67.380  1.00  0.00    -0.296 C  
BRANCH   3   4
HETATM    4  C   UNL     1      -9.859  15.155  66.147  1.00  0.00    -0.325 C  
BRANCH   4   5
HETATM    5  C   UNL     1     -10.723  15.225  64.895  1.00  0.00    -0.423 C  
BRANCH   5   6
HETATM    6  C   UNL     1     -11.926  14.329  64.951  1.00  0.00    -0.430 C  
HETATM    7  C   UNL     1     -11.887  13.048  64.555  1.00  0.00    -0.431 C  
BRANCH   7   8
HETATM    8  C   UNL     1     -10.667  12.378  63.996  1.00  0.00    -0.441 C  
BRANCH   8   9
HETATM    9  C   UNL     1     -10.507  10.983  64.516  1.00  0.00    -0.411 C  
HETATM   10  C   UNL     1     -10.118  10.672  65.762  1.00  0.00    -0.327 C  
BRANCH  10  11
HETATM   11  C   UNL     1      -9.691  11.667  66.799  1.00  0.00    -0.220 C  
BRANCH  11  12
HETATM   12  C   UNL     1     -10.811  11.993  67.746  1.00  0.00    -0.256 C  
HETATM   13  C   UNL     1     -10.938  11.489  68.984  1.00  0.00    -0.285 C  
BRANCH  13  14
HETATM   14  C   UNL     1      -9.956  10.512  69.554  1.00  0.00    -0.187 C  
BRANCH  14  15
HETATM   15  C   UNL     1     -10.480   9.746  70.761  1.00  0.00    -0.339 C  
BRANCH  15  16
HETATM   16  C   UNL     1     -10.076   8.276  70.636  1.00  0.00    -0.212 C  
BRANCH  16  17
HETATM   17  C   UNL     1     -11.022   7.514  69.719  1.00  0.00    -0.195 C  
HETATM   18  C   UNL     1     -10.378   7.204  68.389  1.00  0.00    -0.194 C  
HETATM   19  O   UNL     1      -9.243   7.517  68.059  1.00  0.00    -0.137 OA 
HETATM   20  O   UNL     1     -11.208   6.525  67.564  1.00  0.00    -0.343 OA 
ENDBRANCH  16  17
ENDBRANCH  15  16
ENDBRANCH  14  15
ENDBRANCH  13  14
ENDBRANCH  11  12
ENDBRANCH  10  11
ENDBRANCH   8   9
ENDBRANCH   7   8
ENDBRANCH   5   6
ENDBRANCH   4   5
ENDBRANCH   3   4
ENDBRANCH   2   3
TORSDOF 12
ENDMDL
MODEL      276
REMARK 921   NORMALIZED FREE ENERGY PREDICTED BY IDOCK:   -3.36 KCAL/MOL
REMARK 922        TOTAL FREE ENERGY PREDICTED BY IDOCK:   -7.68 KCAL/MOL
REMARK 923 INTER-LIGAND FREE ENERGY PREDICTED BY IDOCK:   -5.59 KCAL/MOL
REMARK 924 INTRA-LIGAND FREE ENERGY PREDICTED BY IDOCK:   -2.09 KCAL/MOL
REMARK 927      BINDING AFFINITY PREDICTED BY RF-SCORE:    0.00 PKD
ROOT
HETATM    1  C   UNL     1      -6.982  19.451  69.238  1.00  0.00    -0.371 C  
HETATM    2  C   UNL     1      -6.242  18.125  69.243  1.00  0.00    -0.253 C  
ENDROOT
BRANCH   2   3
HETATM    3  C   UNL     1      -7.195  16.963  68.988  1.00  0.00    -0.232 C  
BRANCH   3   4
HETATM    4  C   UNL     1      -7.176  16.546  67.518  1.00  0.00    -0.168 C  
BRANCH   4   5
HETATM    5  C   UNL     1      -7.920  15.228  67.353  1.00  0.00    -0.211 C  
BRANCH   5   6
HETATM    6  C   UNL     1      -7.549  14.202  68.382  1.00  0.00    -0.130 C  
HETATM    7  C   UNL     1      -7.662  12.883  68.156  1.00  0.00    -0.138 C  
BRANCH   7   8
HETATM    8  C   UNL     1      -8.185  12.291  66.882  1.00  0.00    -0.112 C  
BRANCH   8   9
HETATM    9  C   UNL     1      -9.259  11.279  67.135  1.00  0.00    -0.169 C  
HETATM   10  C   UNL     1     -10.116  10.827  66.208  1.00  0.00    -0.285 C  
BRANCH  10  11
HETATM   11  C   UNL     1     -10.199  11.333  64.799  1.00  0.00    -0.347 C  
BRANCH  11  12
HETATM   12  C   UNL     1     -11.547  11.928  64.504  1.00  0.00    -0.344 C  
HETATM   13  C   UNL     1     -11.819  13.243  64.501  1.00  0.00    -0.433 C  
BRANCH  13  14
HETATM   14  C   UNL     1     -10.780  14.275  64.816  1.00  0.00    -0.435 C  
BRANCH  14  15
HETATM   15  C   UNL     1     -10.985  14.965  66.157  1.00  0.00    -0.334 C  
BRANCH  15  16
HETATM   16  C   UNL     1     -11.996  14.168  66.983  1.00  0.00    -0.471 C  
BRANCH  16  17
HETATM   17  C   UNL     1     -11.436  13.805  68.351  1.00  0.00    -0.351 C  
HETATM   18  C   UNL     1     -11.535  14.961  69.317  1.00  0.00    -0.303 C  
HETATM   19  O   UNL     1     -11.999  16.063  69.062  1.00  0.00    -0.342 OA 
HETATM   20  O   UNL     1     -11.042  14.650  70.538  1.00  0.00    -0.156 OA 
ENDBRANCH  16  17
ENDBRANCH  15  16
ENDBRANCH  14  15
ENDBRANCH  13  14
ENDBRANCH  11  12
ENDBRANCH  10  11
ENDBRANCH   8   9
ENDBRANCH   7   8
ENDBRANCH   5   6
ENDBRANCH   4   5
ENDBRANCH   3   4
ENDBRANCH   2   3
TORSDOF 12
ENDMDL
MODEL      277
REMARK 921   NORMALIZED FREE ENERGY PREDICTED BY IDOCK:   -3.35 KCAL/MOL
REMARK 922        TOTAL FREE ENERGY PREDICTED BY IDOCK:   -7.65 KCAL/MOL
REMARK 923 INTER-LIGAND FREE ENERGY PREDICTED BY IDOCK:   -5.53 KCAL/MOL
REMARK 924 INTRA-LIGAND FREE ENERGY PREDICTED BY IDOCK:   -2.13 KCAL/MOL
REMARK 927      BINDING AFFINITY PREDICTED BY RF-SCORE:    0.00 PKD
ROOT
HETATM    1  C   UNL     1     -10.930   5.910  69.252  1.00  0.00    -0.397 C  
HETATM    2  C   UNL     1     -11.615   6.533  70.455  1.00  0.00    -0.470 C  
ENDROOT
BRANCH   2   3
HETATM    3  C   UNL     1     -11.010   6.023  71.757  1.00  0.00    -0.323 C  
BRANCH   3   4
HETATM    4  C   UNL     1     -10.525   7.179  72.630  1.00  0.00    -0.269 C  
BRANCH   4   5
HETATM    5  C   UNL     1      -9.014   7.313  72.503  1.00  0.00    -0.152 C  
BRANCH   5   6
HETATM    6  C   UNL     1      -8.573   8.674  72.049  1.00  0.00    -0.216 C  
HETATM    7  C   UNL     1      -8.182   8.919  70.789  1.00  0.00    -0.198 C  
BRANCH   7   8
HETATM    8  C   UNL     1      -8.116   7.878  69.712  1.00  0.00    -0.116 C  
BRANCH   8   9
HETATM    9  C   UNL     1      -7.544   8.424  68.441  1.00  0.00    -0.097 C  
HETATM   10  C   UNL     1      -8.261   8.724  67.347  1.00  0.00    -0.109 C  
BRANCH  10  11
HETATM   11  C   UNL     1      -9.730   8.471  67.191  1.00  0.00    -0.251 C  
BRANCH  11  12
HETATM   12  C   UNL     1     -10.324   9.318  66.100  1.00  0.00    -0.118 C  
HETATM   13  C   UNL     1     -10.699  10.599  66.243  1.00  0.00    -0.172 C  
BRANCH  13  14
HETATM   14  C   UNL     1     -10.574  11.327  67.546  1.00  0.00    -0.257 C  
BRANCH  14  15
HETATM   15  C   UNL     1     -11.708  11.043  68.522  1.00  0.00    -0.348 C  
BRANCH  15  16
HETATM   16  C   UNL     1     -11.191  11.202  69.952  1.00  0.00    -0.293 C  
BRANCH  16  17
HETATM   17  C   UNL     1     -11.568  10.008  70.817  1.00  0.00    -0.444 C  
HETATM   18  C   UNL     1     -12.687  10.344  71.773  1.00  0.00    -0.421 C  
HETATM   19  O   UNL     1     -13.239  11.430  71.867  1.00  0.00    -0.484 OA 
HETATM   20  O   UNL     1     -13.032   9.289  72.547  1.00  0.00    -0.393 OA 
ENDBRANCH  16  17
ENDBRANCH  15  16
ENDBRANCH  14  15
ENDBRANCH  13  14
ENDBRANCH  11  12
ENDBRANCH  10  11
ENDBRANCH   8   9
ENDBRANCH   7   8
ENDBRANCH   5   6
ENDBRANCH   4   5
ENDBRANCH   3   4
ENDBRANCH   2   3
TORSDOF 12
ENDMDL
MODEL      278
REMARK 921   NORMALIZED FREE ENERGY PREDICTED BY IDOCK:   -3.33 KCAL/MOL
REMARK 922        TOTAL FREE ENERGY PREDICTED BY IDOCK:   -7.63 KCAL/MOL
REMARK 923 INTER-LIGAND FREE ENERGY PREDICTED BY IDOCK:   -5.80 KCAL/MOL
REMARK 924 INTRA-LIGAND FREE ENERGY PREDICTED BY IDOCK:   -1.82 KCAL/MOL
REMARK 927      BINDING AFFINITY PREDICTED BY RF-SCORE:    0.00 PKD
ROOT
HETATM    1  C   UNL     1      -8.519   8.406  70.723  1.00  0.00    -0.151 C  
HETATM    2  C   UNL     1      -9.845   7.978  70.120  1.00  0.00    -0.184 C  
ENDROOT
BRANCH   2   3
HETATM    3  C   UNL     1      -9.751   6.579  69.523  1.00  0.00    -0.161 C  
BRANCH   3   4
HETATM    4  C   UNL     1     -11.051   6.190  68.821  1.00  0.00    -0.398 C  
BRANCH   4   5
HETATM    5  C   UNL     1     -10.956   6.540  67.342  1.00  0.00    -0.458 C  
BRANCH   5   6
HETATM    6  C   UNL     1      -9.546   6.609  66.835  1.00  0.00    -0.194 C  
HETATM    7  C   UNL     1      -9.018   7.735  66.330  1.00  0.00    -0.209 C  
BRANCH   7   8
HETATM    8  C   UNL     1      -9.768   9.026  66.191  1.00  0.00    -0.354 C  
BRANCH   8   9
HETATM    9  C   UNL     1      -9.366  10.021  67.235  1.00  0.00    -0.170 C  
HETATM   10  C   UNL     1     -10.095  11.089  67.593  1.00  0.00    -0.208 C  
BRANCH  10  11
HETATM   11  C   UNL     1     -11.377  11.508  66.940  1.00  0.00    -0.324 C  
BRANCH  11  12
HETATM   12  C   UNL     1     -11.134  12.464  65.806  1.00  0.00    -0.351 C  
HETATM   13  C   UNL     1     -11.329  13.791  65.867  1.00  0.00    -0.311 C  
BRANCH  13  14
HETATM   14  C   UNL     1     -11.836  14.467  67.104  1.00  0.00    -0.412 C  
BRANCH  14  15
HETATM   15  C   UNL     1     -10.967  15.628  67.570  1.00  0.00    -0.309 C  
BRANCH  15  16
HETATM   16  C   UNL     1     -10.497  15.359  69.000  1.00  0.00    -0.249 C  
BRANCH  16  17
HETATM   17  C   UNL     1     -11.376  14.328  69.692  1.00  0.00    -0.292 C  
HETATM   18  C   UNL     1     -12.003  14.885  70.948  1.00  0.00    -0.316 C  
HETATM   19  O   UNL     1     -11.841  16.016  71.382  1.00  0.00    -0.425 OA 
HETATM   20  O   UNL     1     -12.789  13.977  71.573  1.00  0.00    -0.328 OA 
ENDBRANCH  16  17
ENDBRANCH  15  16
ENDBRANCH  14  15
ENDBRANCH  13  14
ENDBRANCH  11  12
ENDBRANCH  10  11
ENDBRANCH   8   9
ENDBRANCH   7   8
ENDBRANCH   5   6
ENDBRANCH   4   5
ENDBRANCH   3   4
ENDBRANCH   2   3
TORSDOF 12
ENDMDL
MODEL      279
REMARK 921   NORMALIZED FREE ENERGY PREDICTED BY IDOCK:   -3.33 KCAL/MOL
REMARK 922        TOTAL FREE ENERGY PREDICTED BY IDOCK:   -7.63 KCAL/MOL
REMARK 923 INTER-LIGAND FREE ENERGY PREDICTED BY IDOCK:   -6.24 KCAL/MOL
REMARK 924 INTRA-LIGAND FREE ENERGY PREDICTED BY IDOCK:   -1.39 KCAL/MOL
REMARK 927      BINDING AFFINITY PREDICTED BY RF-SCORE:    0.00 PKD
ROOT
HETATM    1  C   UNL     1      -7.927   8.396  71.134  1.00  0.00    -0.127 C  
HETATM    2  C   UNL     1      -7.084   7.139  71.016  1.00  0.00    -0.069 C  
ENDROOT
BRANCH   2   3
HETATM    3  C   UNL     1      -7.871   6.009  70.363  1.00  0.00    -0.106 C  
BRANCH   3   4
HETATM    4  C   UNL     1      -8.575   5.149  71.411  1.00  0.00    -0.132 C  
BRANCH   4   5
HETATM    5  C   UNL     1      -9.918   4.681  70.867  1.00  0.00    -0.273 C  
BRANCH   5   6
HETATM    6  C   UNL     1     -10.367   5.441  69.655  1.00  0.00    -0.361 C  
HETATM    7  C   UNL     1     -11.348   6.356  69.702  1.00  0.00    -0.479 C  
BRANCH   7   8
HETATM    8  C   UNL     1     -12.114   6.703  70.944  1.00  0.00    -0.379 C  
BRANCH   8   9
HETATM    9  C   UNL     1     -11.323   7.583  71.861  1.00  0.00    -0.298 C  
HETATM   10  C   UNL     1     -11.485   8.910  71.975  1.00  0.00    -0.431 C  
BRANCH  10  11
HETATM   11  C   UNL     1     -12.413   9.734  71.136  1.00  0.00    -0.443 C  
BRANCH  11  12
HETATM   12  C   UNL     1     -13.202  10.703  71.972  1.00  0.00    -0.473 C  
HETATM   13  C   UNL     1     -13.205  12.035  71.802  1.00  0.00    -0.421 C  
BRANCH  13  14
HETATM   14  C   UNL     1     -12.390  12.707  70.740  1.00  0.00    -0.372 C  
BRANCH  14  15
HETATM   15  C   UNL     1     -12.407  14.228  70.823  1.00  0.00    -0.427 C  
BRANCH  15  16
HETATM   16  C   UNL     1     -11.726  14.805  69.581  1.00  0.00    -0.354 C  
BRANCH  16  17
HETATM   17  C   UNL     1     -11.859  13.871  68.387  1.00  0.00    -0.409 C  
HETATM   18  C   UNL     1     -10.510  13.490  67.826  1.00  0.00    -0.240 C  
HETATM   19  O   UNL     1      -9.430  13.869  68.253  1.00  0.00    -0.208 OA 
HETATM   20  O   UNL     1     -10.615  12.658  66.763  1.00  0.00    -0.235 OA 
ENDBRANCH  16  17
ENDBRANCH  15  16
ENDBRANCH  14  15
ENDBRANCH  13  14
ENDBRANCH  11  12
ENDBRANCH  10  11
ENDBRANCH   8   9
ENDBRANCH   7   8
ENDBRANCH   5   6
ENDBRANCH   4   5
ENDBRANCH   3   4
ENDBRANCH   2   3
TORSDOF 12
ENDMDL
MODEL      280
REMARK 921   NORMALIZED FREE ENERGY PREDICTED BY IDOCK:   -3.33 KCAL/MOL
REMARK 922        TOTAL FREE ENERGY PREDICTED BY IDOCK:   -7.63 KCAL/MOL
REMARK 923 INTER-LIGAND FREE ENERGY PREDICTED BY IDOCK:   -6.23 KCAL/MOL
REMARK 924 INTRA-LIGAND FREE ENERGY PREDICTED BY IDOCK:   -1.40 KCAL/MOL
REMARK 927      BINDING AFFINITY PREDICTED BY RF-SCORE:    0.00 PKD
ROOT
HETATM    1  C   UNL     1      -7.279   8.539  66.393  1.00  0.00    -0.079 C  
HETATM    2  C   UNL     1      -7.078   9.478  65.216  1.00  0.00    -0.099 C  
ENDROOT
BRANCH   2   3
HETATM    3  C   UNL     1      -8.398  10.101  64.779  1.00  0.00    -0.167 C  
BRANCH   3   4
HETATM    4  C   UNL     1      -9.568   9.541  65.587  1.00  0.00    -0.346 C  
BRANCH   4   5
HETATM    5  C   UNL     1     -10.344  10.686  66.222  1.00  0.00    -0.296 C  
BRANCH   5   6
HETATM    6  C   UNL     1      -9.591  11.983  66.230  1.00  0.00    -0.243 C  
HETATM    7  C   UNL     1     -10.170  13.148  66.561  1.00  0.00    -0.277 C  
BRANCH   7   8
HETATM    8  C   UNL     1     -11.617  13.293  66.930  1.00  0.00    -0.408 C  
BRANCH   8   9
HETATM    9  C   UNL     1     -11.833  13.166  68.406  1.00  0.00    -0.386 C  
HETATM   10  C   UNL     1     -11.935  14.200  69.254  1.00  0.00    -0.382 C  
BRANCH  10  11
HETATM   11  C   UNL     1     -11.753  15.639  68.877  1.00  0.00    -0.396 C  
BRANCH  11  12
HETATM   12  C   UNL     1     -10.329  16.084  69.062  1.00  0.00    -0.242 C  
HETATM   13  C   UNL     1      -9.803  17.204  68.542  1.00  0.00    -0.297 C  
BRANCH  13  14
HETATM   14  C   UNL     1     -10.603  18.142  67.691  1.00  0.00    -0.424 C  
BRANCH  14  15
HETATM   15  C   UNL     1     -10.082  19.574  67.697  1.00  0.00    -0.526 C  
BRANCH  15  16
HETATM   16  C   UNL     1      -8.568  19.556  67.905  1.00  0.00    -0.357 C  
BRANCH  16  17
HETATM   17  C   UNL     1      -7.829  20.047  66.668  1.00  0.00    -0.337 C  
HETATM   18  C   UNL     1      -7.248  18.902  65.875  1.00  0.00    -0.244 C  
HETATM   19  O   UNL     1      -7.340  17.718  66.166  1.00  0.00    -0.271 OA 
HETATM   20  O   UNL     1      -6.590  19.326  64.772  1.00  0.00    -0.455 OA 
ENDBRANCH  16  17
ENDBRANCH  15  16
ENDBRANCH  14  15
ENDBRANCH  13  14
ENDBRANCH  11  12
ENDBRANCH  10  11
ENDBRANCH   8   9
ENDBRANCH   7   8
ENDBRANCH   5   6
ENDBRANCH   4   5
ENDBRANCH   3   4
ENDBRANCH   2   3
TORSDOF 12
ENDMDL
MODEL      281
REMARK 921   NORMALIZED FREE ENERGY PREDICTED BY IDOCK:   -3.33 KCAL/MOL
REMARK 922        TOTAL FREE ENERGY PREDICTED BY IDOCK:   -7.63 KCAL/MOL
REMARK 923 INTER-LIGAND FREE ENERGY PREDICTED BY IDOCK:   -5.50 KCAL/MOL
REMARK 924 INTRA-LIGAND FREE ENERGY PREDICTED BY IDOCK:   -2.13 KCAL/MOL
REMARK 927      BINDING AFFINITY PREDICTED BY RF-SCORE:    0.00 PKD
ROOT
HETATM    1  C   UNL     1      -9.034   5.308  73.814  1.00  0.00    -0.123 C  
HETATM    2  C   UNL     1     -10.122   6.362  73.919  1.00  0.00    -0.305 C  
ENDROOT
BRANCH   2   3
HETATM    3  C   UNL     1      -9.787   7.583  73.071  1.00  0.00    -0.292 C  
BRANCH   3   4
HETATM    4  C   UNL     1     -11.029   8.117  72.359  1.00  0.00    -0.414 C  
BRANCH   4   5
HETATM    5  C   UNL     1     -10.904   7.872  70.862  1.00  0.00    -0.245 C  
BRANCH   5   6
HETATM    6  C   UNL     1     -11.440   6.540  70.430  1.00  0.00    -0.465 C  
HETATM    7  C   UNL     1     -10.652   5.576  69.928  1.00  0.00    -0.387 C  
BRANCH   7   8
HETATM    8  C   UNL     1      -9.174   5.722  69.721  1.00  0.00    -0.161 C  
BRANCH   8   9
HETATM    9  C   UNL     1      -8.753   5.268  68.358  1.00  0.00    -0.099 C  
HETATM   10  C   UNL     1      -8.501   6.086  67.324  1.00  0.00    -0.104 C  
BRANCH  10  11
HETATM   11  C   UNL     1      -8.694   7.572  67.341  1.00  0.00    -0.124 C  
BRANCH  11  12
HETATM   12  C   UNL     1     -10.074   7.956  66.885  1.00  0.00    -0.362 C  
HETATM   13  C   UNL     1     -10.731   9.059  67.278  1.00  0.00    -0.222 C  
BRANCH  13  14
HETATM   14  C   UNL     1     -10.143  10.037  68.248  1.00  0.00    -0.182 C  
BRANCH  14  15
HETATM   15  C   UNL     1     -11.163  10.989  68.856  1.00  0.00    -0.326 C  
BRANCH  15  16
HETATM   16  C   UNL     1     -11.733  11.885  67.755  1.00  0.00    -0.362 C  
BRANCH  16  17
HETATM   17  C   UNL     1     -10.722  12.930  67.307  1.00  0.00    -0.260 C  
HETATM   18  C   UNL     1     -11.307  13.865  66.277  1.00  0.00    -0.324 C  
HETATM   19  O   UNL     1     -12.446  13.813  65.835  1.00  0.00    -0.457 OA 
HETATM   20  O   UNL     1     -10.417  14.800  65.871  1.00  0.00    -0.284 OA 
ENDBRANCH  16  17
ENDBRANCH  15  16
ENDBRANCH  14  15
ENDBRANCH  13  14
ENDBRANCH  11  12
ENDBRANCH  10  11
ENDBRANCH   8   9
ENDBRANCH   7   8
ENDBRANCH   5   6
ENDBRANCH   4   5
ENDBRANCH   3   4
ENDBRANCH   2   3
TORSDOF 12
ENDMDL
MODEL      282
REMARK 921   NORMALIZED FREE ENERGY PREDICTED BY IDOCK:   -3.32 KCAL/MOL
REMARK 922        TOTAL FREE ENERGY PREDICTED BY IDOCK:   -7.61 KCAL/MOL
REMARK 923 INTER-LIGAND FREE ENERGY PREDICTED BY IDOCK:   -5.68 KCAL/MOL
REMARK 924 INTRA-LIGAND FREE ENERGY PREDICTED BY IDOCK:   -1.93 KCAL/MOL
REMARK 927      BINDING AFFINITY PREDICTED BY RF-SCORE:    0.00 PKD
ROOT
HETATM    1  C   UNL     1     -11.877  11.694  68.586  1.00  0.00    -0.370 C  
HETATM    2  C   UNL     1     -11.420  11.041  69.878  1.00  0.00    -0.400 C  
ENDROOT
BRANCH   2   3
HETATM    3  C   UNL     1     -12.513  11.097  70.939  1.00  0.00    -0.509 C  
BRANCH   3   4
HETATM    4  C   UNL     1     -12.597   9.784  71.716  1.00  0.00    -0.506 C  
BRANCH   4   5
HETATM    5  C   UNL     1     -11.216   9.147  71.788  1.00  0.00    -0.451 C  
BRANCH   5   6
HETATM    6  C   UNL     1     -11.195   7.858  72.556  1.00  0.00    -0.436 C  
HETATM    7  C   UNL     1     -11.368   6.666  71.965  1.00  0.00    -0.317 C  
BRANCH   7   8
HETATM    8  C   UNL     1     -11.624   6.485  70.499  1.00  0.00    -0.455 C  
BRANCH   8   9
HETATM    9  C   UNL     1     -10.675   5.504  69.882  1.00  0.00    -0.358 C  
HETATM   10  C   UNL     1     -10.344   5.475  68.582  1.00  0.00    -0.255 C  
BRANCH  10  11
HETATM   11  C   UNL     1     -10.943   6.355  67.527  1.00  0.00    -0.454 C  
BRANCH  11  12
HETATM   12  C   UNL     1     -10.717   7.810  67.826  1.00  0.00    -0.197 C  
HETATM   13  C   UNL     1      -9.517   8.412  67.839  1.00  0.00    -0.164 C  
BRANCH  13  14
HETATM   14  C   UNL     1      -8.247   7.667  67.563  1.00  0.00    -0.121 C  
BRANCH  14  15
HETATM   15  C   UNL     1      -7.126   7.977  68.547  1.00  0.00    -0.080 C  
BRANCH  15  16
HETATM   16  C   UNL     1      -7.223   7.022  69.736  1.00  0.00    -0.079 C  
BRANCH  16  17
HETATM   17  C   UNL     1      -7.783   7.719  70.968  1.00  0.00    -0.084 C  
HETATM   18  C   UNL     1      -6.688   8.108  71.933  1.00  0.00    -0.070 C  
HETATM   19  O   UNL     1      -5.495   7.899  71.774  1.00  0.00    -0.035 OA 
HETATM   20  O   UNL     1      -7.173   8.730  73.032  1.00  0.00    -0.341 OA 
ENDBRANCH  16  17
ENDBRANCH  15  16
ENDBRANCH  14  15
ENDBRANCH  13  14
ENDBRANCH  11  12
ENDBRANCH  10  11
ENDBRANCH   8   9
ENDBRANCH   7   8
ENDBRANCH   5   6
ENDBRANCH   4   5
ENDBRANCH   3   4
ENDBRANCH   2   3
TORSDOF 12
ENDMDL
MODEL      283
REMARK 921   NORMALIZED FREE ENERGY PREDICTED BY IDOCK:   -3.32 KCAL/MOL
REMARK 922        TOTAL FREE ENERGY PREDICTED BY IDOCK:   -7.61 KCAL/MOL
REMARK 923 INTER-LIGAND FREE ENERGY PREDICTED BY IDOCK:   -5.17 KCAL/MOL
REMARK 924 INTRA-LIGAND FREE ENERGY PREDICTED BY IDOCK:   -2.44 KCAL/MOL
REMARK 927      BINDING AFFINITY PREDICTED BY RF-SCORE:    0.00 PKD
ROOT
HETATM    1  C   UNL     1      -9.242   9.812  69.727  1.00  0.00    -0.248 C  
HETATM    2  C   UNL     1     -10.580  10.529  69.674  1.00  0.00    -0.281 C  
ENDROOT
BRANCH   2   3
HETATM    3  C   UNL     1     -11.204  10.427  68.288  1.00  0.00    -0.330 C  
BRANCH   3   4
HETATM    4  C   UNL     1     -10.221  10.874  67.206  1.00  0.00    -0.242 C  
BRANCH   4   5
HETATM    5  C   UNL     1     -10.278   9.904  66.034  1.00  0.00    -0.269 C  
BRANCH   5   6
HETATM    6  C   UNL     1      -9.066   9.027  65.928  1.00  0.00    -0.264 C  
HETATM    7  C   UNL     1      -9.010   7.807  66.484  1.00  0.00    -0.191 C  
BRANCH   7   8
HETATM    8  C   UNL     1     -10.122   7.198  67.285  1.00  0.00    -0.278 C  
BRANCH   8   9
HETATM    9  C   UNL     1     -10.872   6.163  66.503  1.00  0.00    -0.165 C  
HETATM   10  C   UNL     1     -10.436   4.916  66.272  1.00  0.00    -0.349 C  
BRANCH  10  11
HETATM   11  C   UNL     1      -9.091   4.391  66.675  1.00  0.00    -0.130 C  
BRANCH  11  12
HETATM   12  C   UNL     1      -9.210   3.122  67.472  1.00  0.00    -0.233 C  
HETATM   13  C   UNL     1      -9.226   3.059  68.813  1.00  0.00    -0.229 C  
BRANCH  13  14
HETATM   14  C   UNL     1      -9.111   4.282  69.672  1.00  0.00    -0.179 C  
BRANCH  14  15
HETATM   15  C   UNL     1     -10.402   4.655  70.386  1.00  0.00    -0.101 C  
BRANCH  15  16
HETATM   16  C   UNL     1     -10.344   6.128  70.791  1.00  0.00    -0.266 C  
BRANCH  16  17
HETATM   17  C   UNL     1     -11.677   6.825  70.556  1.00  0.00    -0.430 C  
HETATM   18  C   UNL     1     -12.116   7.610  71.768  1.00  0.00    -0.305 C  
HETATM   19  O   UNL     1     -11.502   7.693  72.822  1.00  0.00    -0.355 OA 
HETATM   20  O   UNL     1     -13.300   8.235  71.571  1.00  0.00    -0.325 OA 
ENDBRANCH  16  17
ENDBRANCH  15  16
ENDBRANCH  14  15
ENDBRANCH  13  14
ENDBRANCH  11  12
ENDBRANCH  10  11
ENDBRANCH   8   9
ENDBRANCH   7   8
ENDBRANCH   5   6
ENDBRANCH   4   5
ENDBRANCH   3   4
ENDBRANCH   2   3
TORSDOF 12
ENDMDL
MODEL      284
REMARK 921   NORMALIZED FREE ENERGY PREDICTED BY IDOCK:   -3.32 KCAL/MOL
REMARK 922        TOTAL FREE ENERGY PREDICTED BY IDOCK:   -7.60 KCAL/MOL
REMARK 923 INTER-LIGAND FREE ENERGY PREDICTED BY IDOCK:   -5.78 KCAL/MOL
REMARK 924 INTRA-LIGAND FREE ENERGY PREDICTED BY IDOCK:   -1.83 KCAL/MOL
REMARK 927      BINDING AFFINITY PREDICTED BY RF-SCORE:    0.00 PKD
ROOT
HETATM    1  C   UNL     1     -10.304   6.121  71.716  1.00  0.00    -0.250 C  
HETATM    2  C   UNL     1     -11.311   7.217  71.417  1.00  0.00    -0.282 C  
ENDROOT
BRANCH   2   3
HETATM    3  C   UNL     1     -10.823   8.567  71.931  1.00  0.00    -0.392 C  
BRANCH   3   4
HETATM    4  C   UNL     1     -10.186   9.387  70.810  1.00  0.00    -0.368 C  
BRANCH   4   5
HETATM    5  C   UNL     1     -11.235  10.295  70.184  1.00  0.00    -0.387 C  
BRANCH   5   6
HETATM    6  C   UNL     1     -12.285  10.750  71.154  1.00  0.00    -0.457 C  
HETATM    7  C   UNL     1     -12.752  12.008  71.170  1.00  0.00    -0.365 C  
BRANCH   7   8
HETATM    8  C   UNL     1     -12.272  13.094  70.255  1.00  0.00    -0.376 C  
BRANCH   8   9
HETATM    9  C   UNL     1     -12.659  14.454  70.749  1.00  0.00    -0.426 C  
HETATM   10  C   UNL     1     -12.303  15.608  70.166  1.00  0.00    -0.366 C  
BRANCH  10  11
HETATM   11  C   UNL     1     -11.386  15.725  68.987  1.00  0.00    -0.354 C  
BRANCH  11  12
HETATM   12  C   UNL     1     -10.076  16.358  69.365  1.00  0.00    -0.243 C  
HETATM   13  C   UNL     1      -8.907  16.124  68.749  1.00  0.00    -0.233 C  
BRANCH  13  14
HETATM   14  C   UNL     1      -8.785  15.171  67.600  1.00  0.00    -0.177 C  
BRANCH  14  15
HETATM   15  C   UNL     1      -7.927  13.950  67.902  1.00  0.00    -0.160 C  
BRANCH  15  16
HETATM   16  C   UNL     1      -8.833  12.786  68.303  1.00  0.00    -0.168 C  
BRANCH  16  17
HETATM   17  C   UNL     1      -9.948  12.572  67.289  1.00  0.00    -0.211 C  
HETATM   18  C   UNL     1      -9.783  11.268  66.546  1.00  0.00    -0.202 C  
HETATM   19  O   UNL     1      -8.877  10.465  66.713  1.00  0.00    -0.130 OA 
HETATM   20  O   UNL     1     -10.769  11.067  65.642  1.00  0.00    -0.231 OA 
ENDBRANCH  16  17
ENDBRANCH  15  16
ENDBRANCH  14  15
ENDBRANCH  13  14
ENDBRANCH  11  12
ENDBRANCH  10  11
ENDBRANCH   8   9
ENDBRANCH   7   8
ENDBRANCH   5   6
ENDBRANCH   4   5
ENDBRANCH   3   4
ENDBRANCH   2   3
TORSDOF 12
ENDMDL
MODEL      285
REMARK 921   NORMALIZED FREE ENERGY PREDICTED BY IDOCK:   -3.32 KCAL/MOL
REMARK 922        TOTAL FREE ENERGY PREDICTED BY IDOCK:   -7.60 KCAL/MOL
REMARK 923 INTER-LIGAND FREE ENERGY PREDICTED BY IDOCK:   -5.60 KCAL/MOL
REMARK 924 INTRA-LIGAND FREE ENERGY PREDICTED BY IDOCK:   -2.00 KCAL/MOL
REMARK 927      BINDING AFFINITY PREDICTED BY RF-SCORE:    0.00 PKD
ROOT
HETATM    1  C   UNL     1      -7.216   3.526  65.737  1.00  0.00    -0.068 C  
HETATM    2  C   UNL     1      -8.650   3.650  66.220  1.00  0.00    -0.115 C  
ENDROOT
BRANCH   2   3
HETATM    3  C   UNL     1      -9.052   5.112  66.378  1.00  0.00    -0.131 C  
BRANCH   3   4
HETATM    4  C   UNL     1     -10.568   5.257  66.501  1.00  0.00    -0.348 C  
BRANCH   4   5
HETATM    5  C   UNL     1     -10.905   6.043  67.760  1.00  0.00    -0.380 C  
BRANCH   5   6
HETATM    6  C   UNL     1     -10.218   5.524  68.988  1.00  0.00    -0.298 C  
HETATM    7  C   UNL     1     -10.675   5.769  70.226  1.00  0.00    -0.380 C  
BRANCH   7   8
HETATM    8  C   UNL     1     -11.890   6.597  70.524  1.00  0.00    -0.430 C  
BRANCH   8   9
HETATM    9  C   UNL     1     -11.920   7.052  71.950  1.00  0.00    -0.355 C  
HETATM   10  C   UNL     1     -11.615   8.292  72.362  1.00  0.00    -0.464 C  
BRANCH  10  11
HETATM   11  C   UNL     1     -11.105   9.388  71.477  1.00  0.00    -0.446 C  
BRANCH  11  12
HETATM   12  C   UNL     1     -12.213  10.299  71.029  1.00  0.00    -0.487 C  
HETATM   13  C   UNL     1     -12.166  11.086  69.943  1.00  0.00    -0.408 C  
BRANCH  13  14
HETATM   14  C   UNL     1     -10.964  11.147  69.052  1.00  0.00    -0.286 C  
BRANCH  14  15
HETATM   15  C   UNL     1     -11.178  10.509  67.686  1.00  0.00    -0.338 C  
BRANCH  15  16
HETATM   16  C   UNL     1      -9.928   9.718  67.300  1.00  0.00    -0.242 C  
BRANCH  16  17
HETATM   17  C   UNL     1      -9.208   9.178  68.528  1.00  0.00    -0.136 C  
HETATM   18  C   UNL     1      -7.955   8.424  68.152  1.00  0.00    -0.119 C  
HETATM   19  O   UNL     1      -7.546   8.249  67.014  1.00  0.00    -0.090 OA 
HETATM   20  O   UNL     1      -7.305   7.940  69.236  1.00  0.00    -0.078 OA 
ENDBRANCH  16  17
ENDBRANCH  15  16
ENDBRANCH  14  15
ENDBRANCH  13  14
ENDBRANCH  11  12
ENDBRANCH  10  11
ENDBRANCH   8   9
ENDBRANCH   7   8
ENDBRANCH   5   6
ENDBRANCH   4   5
ENDBRANCH   3   4
ENDBRANCH   2   3
TORSDOF 12
ENDMDL
MODEL      286
REMARK 921   NORMALIZED FREE ENERGY PREDICTED BY IDOCK:   -3.31 KCAL/MOL
REMARK 922        TOTAL FREE ENERGY PREDICTED BY IDOCK:   -7.59 KCAL/MOL
REMARK 923 INTER-LIGAND FREE ENERGY PREDICTED BY IDOCK:   -5.71 KCAL/MOL
REMARK 924 INTRA-LIGAND FREE ENERGY PREDICTED BY IDOCK:   -1.88 KCAL/MOL
REMARK 927      BINDING AFFINITY PREDICTED BY RF-SCORE:    0.00 PKD
ROOT
HETATM    1  C   UNL     1      -6.674  19.581  69.491  1.00  0.00    -0.354 C  
HETATM    2  C   UNL     1      -5.890  18.307  69.232  1.00  0.00    -0.234 C  
ENDROOT
BRANCH   2   3
HETATM    3  C   UNL     1      -6.811  17.178  68.783  1.00  0.00    -0.209 C  
BRANCH   3   4
HETATM    4  C   UNL     1      -6.201  16.399  67.619  1.00  0.00    -0.165 C  
BRANCH   4   5
HETATM    5  C   UNL     1      -7.047  15.166  67.332  1.00  0.00    -0.219 C  
BRANCH   5   6
HETATM    6  C   UNL     1      -7.051  14.172  68.455  1.00  0.00    -0.103 C  
HETATM    7  C   UNL     1      -7.943  13.172  68.527  1.00  0.00    -0.094 C  
BRANCH   7   8
HETATM    8  C   UNL     1      -9.036  12.948  67.526  1.00  0.00    -0.191 C  
BRANCH   8   9
HETATM    9  C   UNL     1     -10.264  12.368  68.158  1.00  0.00    -0.225 C  
HETATM   10  C   UNL     1     -11.368  12.002  67.489  1.00  0.00    -0.387 C  
BRANCH  10  11
HETATM   11  C   UNL     1     -11.584  12.203  66.020  1.00  0.00    -0.420 C  
BRANCH  11  12
HETATM   12  C   UNL     1     -12.500  13.364  65.749  1.00  0.00    -0.496 C  
HETATM   13  C   UNL     1     -12.123  14.521  65.181  1.00  0.00    -0.363 C  
BRANCH  13  14
HETATM   14  C   UNL     1     -10.708  14.781  64.762  1.00  0.00    -0.380 C  
BRANCH  14  15
HETATM   15  C   UNL     1     -10.004  15.842  65.597  1.00  0.00    -0.378 C  
BRANCH  15  16
HETATM   16  C   UNL     1     -11.030  16.876  66.064  1.00  0.00     0.141 C  
BRANCH  16  17
HETATM   17  C   UNL     1     -10.533  17.645  67.279  1.00  0.00    -0.338 C  
HETATM   18  C   UNL     1     -10.350  19.112  66.972  1.00  0.00    -0.414 C  
HETATM   19  O   UNL     1     -10.563  19.644  65.892  1.00  0.00    -0.502 OA 
HETATM   20  O   UNL     1      -9.909  19.808  68.045  1.00  0.00    -0.373 OA 
ENDBRANCH  16  17
ENDBRANCH  15  16
ENDBRANCH  14  15
ENDBRANCH  13  14
ENDBRANCH  11  12
ENDBRANCH  10  11
ENDBRANCH   8   9
ENDBRANCH   7   8
ENDBRANCH   5   6
ENDBRANCH   4   5
ENDBRANCH   3   4
ENDBRANCH   2   3
TORSDOF 12
ENDMDL
MODEL      287
REMARK 921   NORMALIZED FREE ENERGY PREDICTED BY IDOCK:   -3.31 KCAL/MOL
REMARK 922        TOTAL FREE ENERGY PREDICTED BY IDOCK:   -7.58 KCAL/MOL
REMARK 923 INTER-LIGAND FREE ENERGY PREDICTED BY IDOCK:   -5.71 KCAL/MOL
REMARK 924 INTRA-LIGAND FREE ENERGY PREDICTED BY IDOCK:   -1.87 KCAL/MOL
REMARK 927      BINDING AFFINITY PREDICTED BY RF-SCORE:    0.00 PKD
ROOT
HETATM    1  C   UNL     1     -10.447   7.241  73.400  1.00  0.00    -0.423 C  
HETATM    2  C   UNL     1     -11.661   7.902  72.772  1.00  0.00    -0.387 C  
ENDROOT
BRANCH   2   3
HETATM    3  C   UNL     1     -11.385   8.296  71.325  1.00  0.00    -0.308 C  
BRANCH   3   4
HETATM    4  C   UNL     1     -11.493   7.089  70.395  1.00  0.00    -0.355 C  
BRANCH   4   5
HETATM    5  C   UNL     1     -10.189   6.919  69.628  1.00  0.00    -0.206 C  
BRANCH   5   6
HETATM    6  C   UNL     1      -9.235   8.062  69.813  1.00  0.00    -0.149 C  
HETATM    7  C   UNL     1      -8.825   8.828  68.790  1.00  0.00    -0.134 C  
BRANCH   7   8
HETATM    8  C   UNL     1      -9.242   8.622  67.365  1.00  0.00    -0.158 C  
BRANCH   8   9
HETATM    9  C   UNL     1     -10.454   9.428  67.014  1.00  0.00    -0.302 C  
HETATM   10  C   UNL     1     -10.429  10.595  66.354  1.00  0.00    -0.276 C  
BRANCH  10  11
HETATM   11  C   UNL     1      -9.184  11.323  65.947  1.00  0.00    -0.229 C  
BRANCH  11  12
HETATM   12  C   UNL     1      -8.757  12.315  66.993  1.00  0.00    -0.199 C  
HETATM   13  C   UNL     1      -9.035  13.627  66.964  1.00  0.00    -0.244 C  
BRANCH  13  14
HETATM   14  C   UNL     1      -9.810  14.255  65.845  1.00  0.00    -0.322 C  
BRANCH  14  15
HETATM   15  C   UNL     1     -11.069  14.980  66.301  1.00  0.00    -0.334 C  
BRANCH  15  16
HETATM   16  C   UNL     1     -11.958  14.006  67.073  1.00  0.00    -0.472 C  
BRANCH  16  17
HETATM   17  C   UNL     1     -12.140  14.442  68.520  1.00  0.00    -0.278 C  
HETATM   18  C   UNL     1     -11.951  13.290  69.477  1.00  0.00    -0.307 C  
HETATM   19  O   UNL     1     -11.688  12.139  69.160  1.00  0.00    -0.288 OA 
HETATM   20  O   UNL     1     -12.109  13.666  70.767  1.00  0.00    -0.340 OA 
ENDBRANCH  16  17
ENDBRANCH  15  16
ENDBRANCH  14  15
ENDBRANCH  13  14
ENDBRANCH  11  12
ENDBRANCH  10  11
ENDBRANCH   8   9
ENDBRANCH   7   8
ENDBRANCH   5   6
ENDBRANCH   4   5
ENDBRANCH   3   4
ENDBRANCH   2   3
TORSDOF 12
ENDMDL
MODEL      288
REMARK 921   NORMALIZED FREE ENERGY PREDICTED BY IDOCK:   -3.30 KCAL/MOL
REMARK 922        TOTAL FREE ENERGY PREDICTED BY IDOCK:   -7.57 KCAL/MOL
REMARK 923 INTER-LIGAND FREE ENERGY PREDICTED BY IDOCK:   -5.46 KCAL/MOL
REMARK 924 INTRA-LIGAND FREE ENERGY PREDICTED BY IDOCK:   -2.11 KCAL/MOL
REMARK 927      BINDING AFFINITY PREDICTED BY RF-SCORE:    0.00 PKD
ROOT
HETATM    1  C   UNL     1      -7.281  13.559  67.601  1.00  0.00    -0.175 C  
HETATM    2  C   UNL     1      -7.871  14.914  67.946  1.00  0.00    -0.145 C  
ENDROOT
BRANCH   2   3
HETATM    3  C   UNL     1      -7.996  15.791  66.705  1.00  0.00    -0.273 C  
BRANCH   3   4
HETATM    4  C   UNL     1      -7.397  17.176  66.946  1.00  0.00    -0.242 C  
BRANCH   4   5
HETATM    5  C   UNL     1      -7.933  17.743  68.253  1.00  0.00    -0.282 C  
BRANCH   5   6
HETATM    6  C   UNL     1      -9.194  18.537  68.085  1.00  0.00    -0.329 C  
HETATM    7  C   UNL     1     -10.389  18.085  68.498  1.00  0.00    -0.359 C  
BRANCH   7   8
HETATM    8  C   UNL     1     -10.604  16.748  69.141  1.00  0.00    -0.343 C  
BRANCH   8   9
HETATM    9  C   UNL     1     -11.651  15.948  68.430  1.00  0.00    -0.317 C  
HETATM   10  C   UNL     1     -11.883  14.642  68.632  1.00  0.00    -0.346 C  
BRANCH  10  11
HETATM   11  C   UNL     1     -11.071  13.757  69.529  1.00  0.00    -0.156 C  
BRANCH  11  12
HETATM   12  C   UNL     1     -11.943  12.961  70.459  1.00  0.00    -0.282 C  
HETATM   13  C   UNL     1     -12.285  11.676  70.276  1.00  0.00    -0.401 C  
BRANCH  13  14
HETATM   14  C   UNL     1     -11.829  10.890  69.085  1.00  0.00    -0.389 C  
BRANCH  14  15
HETATM   15  C   UNL     1     -10.505  10.167  69.296  1.00  0.00    -0.246 C  
BRANCH  15  16
HETATM   16  C   UNL     1      -9.709  10.186  67.991  1.00  0.00    -0.161 C  
BRANCH  16  17
HETATM   17  C   UNL     1     -10.273  11.202  67.009  1.00  0.00    -0.251 C  
HETATM   18  C   UNL     1     -10.351  10.641  65.609  1.00  0.00    -0.216 C  
HETATM   19  O   UNL     1     -10.008   9.516  65.276  1.00  0.00    -0.247 OA 
HETATM   20  O   UNL     1     -10.852  11.535  64.726  1.00  0.00    -0.305 OA 
ENDBRANCH  16  17
ENDBRANCH  15  16
ENDBRANCH  14  15
ENDBRANCH  13  14
ENDBRANCH  11  12
ENDBRANCH  10  11
ENDBRANCH   8   9
ENDBRANCH   7   8
ENDBRANCH   5   6
ENDBRANCH   4   5
ENDBRANCH   3   4
ENDBRANCH   2   3
TORSDOF 12
ENDMDL
MODEL      289
REMARK 921   NORMALIZED FREE ENERGY PREDICTED BY IDOCK:   -3.29 KCAL/MOL
REMARK 922        TOTAL FREE ENERGY PREDICTED BY IDOCK:   -7.55 KCAL/MOL
REMARK 923 INTER-LIGAND FREE ENERGY PREDICTED BY IDOCK:   -5.78 KCAL/MOL
REMARK 924 INTRA-LIGAND FREE ENERGY PREDICTED BY IDOCK:   -1.78 KCAL/MOL
REMARK 927      BINDING AFFINITY PREDICTED BY RF-SCORE:    0.00 PKD
ROOT
HETATM    1  C   UNL     1     -11.180  10.377  68.101  1.00  0.00    -0.333 C  
HETATM    2  C   UNL     1     -10.382   9.575  67.088  1.00  0.00    -0.320 C  
ENDROOT
BRANCH   2   3
HETATM    3  C   UNL     1     -10.248   8.120  67.522  1.00  0.00    -0.309 C  
BRANCH   3   4
HETATM    4  C   UNL     1      -8.932   7.517  67.032  1.00  0.00    -0.143 C  
BRANCH   4   5
HETATM    5  C   UNL     1      -7.890   8.617  66.888  1.00  0.00    -0.091 C  
BRANCH   5   6
HETATM    6  C   UNL     1      -6.879   8.343  65.815  1.00  0.00    -0.067 C  
HETATM    7  C   UNL     1      -7.190   8.375  64.509  1.00  0.00    -0.087 C  
BRANCH   7   8
HETATM    8  C   UNL     1      -8.564   8.659  63.980  1.00  0.00    -0.026 C  
BRANCH   8   9
HETATM    9  C   UNL     1      -8.538   9.652  62.859  1.00  0.00    -0.202 C  
HETATM   10  C   UNL     1      -9.073  10.880  62.915  1.00  0.00    -0.327 C  
BRANCH  10  11
HETATM   11  C   UNL     1      -9.864  11.418  64.069  1.00  0.00    -0.316 C  
BRANCH  11  12
HETATM   12  C   UNL     1     -11.334  11.469  63.756  1.00  0.00    -0.420 C  
HETATM   13  C   UNL     1     -12.160  12.462  64.119  1.00  0.00    -0.539 C  
BRANCH  13  14
HETATM   14  C   UNL     1     -11.688  13.647  64.905  1.00  0.00    -0.379 C  
BRANCH  14  15
HETATM   15  C   UNL     1     -12.274  13.726  66.309  1.00  0.00    -0.489 C  
BRANCH  15  16
HETATM   16  C   UNL     1     -11.148  13.995  67.308  1.00  0.00    -0.314 C  
BRANCH  16  17
HETATM   17  C   UNL     1     -11.669  14.040  68.737  1.00  0.00    -0.388 C  
HETATM   18  C   UNL     1     -11.829  15.460  69.226  1.00  0.00    -0.343 C  
HETATM   19  O   UNL     1     -11.577  16.466  68.581  1.00  0.00    -0.311 OA 
HETATM   20  O   UNL     1     -12.293  15.513  70.496  1.00  0.00    -0.375 OA 
ENDBRANCH  16  17
ENDBRANCH  15  16
ENDBRANCH  14  15
ENDBRANCH  13  14
ENDBRANCH  11  12
ENDBRANCH  10  11
ENDBRANCH   8   9
ENDBRANCH   7   8
ENDBRANCH   5   6
ENDBRANCH   4   5
ENDBRANCH   3   4
ENDBRANCH   2   3
TORSDOF 12
ENDMDL
MODEL      290
REMARK 921   NORMALIZED FREE ENERGY PREDICTED BY IDOCK:   -3.29 KCAL/MOL
REMARK 922        TOTAL FREE ENERGY PREDICTED BY IDOCK:   -7.55 KCAL/MOL
REMARK 923 INTER-LIGAND FREE ENERGY PREDICTED BY IDOCK:   -6.41 KCAL/MOL
REMARK 924 INTRA-LIGAND FREE ENERGY PREDICTED BY IDOCK:   -1.14 KCAL/MOL
REMARK 927      BINDING AFFINITY PREDICTED BY RF-SCORE:    0.00 PKD
ROOT
HETATM    1  C   UNL     1     -11.801  12.052  68.673  1.00  0.00    -0.366 C  
HETATM    2  C   UNL     1     -11.424  13.349  69.366  1.00  0.00    -0.333 C  
ENDROOT
BRANCH   2   3
HETATM    3  C   UNL     1     -12.350  13.633  70.543  1.00  0.00    -0.425 C  
BRANCH   3   4
HETATM    4  C   UNL     1     -12.602  15.131  70.698  1.00  0.00    -0.450 C  
BRANCH   4   5
HETATM    5  C   UNL     1     -11.997  15.875  69.515  1.00  0.00    -0.274 C  
BRANCH   5   6
HETATM    6  C   UNL     1     -10.641  16.448  69.803  1.00  0.00    -0.288 C  
HETATM    7  C   UNL     1      -9.951  17.154  68.893  1.00  0.00    -0.304 C  
BRANCH   7   8
HETATM    8  C   UNL     1     -10.433  17.427  67.500  1.00  0.00    -0.354 C  
BRANCH   8   9
HETATM    9  C   UNL     1      -9.662  16.650  66.479  1.00  0.00    -0.291 C  
HETATM   10  C   UNL     1     -10.126  15.572  65.828  1.00  0.00    -0.388 C  
BRANCH  10  11
HETATM   11  C   UNL     1     -11.449  14.919  66.088  1.00  0.00    -0.272 C  
BRANCH  11  12
HETATM   12  C   UNL     1     -12.156  14.572  64.808  1.00  0.00    -0.454 C  
HETATM   13  C   UNL     1     -11.837  13.538  64.013  1.00  0.00    -0.476 C  
BRANCH  13  14
HETATM   14  C   UNL     1     -10.703  12.610  64.326  1.00  0.00    -0.409 C  
BRANCH  14  15
HETATM   15  C   UNL     1     -10.548  11.470  63.327  1.00  0.00    -0.405 C  
BRANCH  15  16
HETATM   16  C   UNL     1      -9.074  11.334  62.946  1.00  0.00    -0.299 C  
BRANCH  16  17
HETATM   17  C   UNL     1      -8.324  10.444  63.927  1.00  0.00    -0.143 C  
HETATM   18  C   UNL     1      -8.259   9.015  63.444  1.00  0.00    -0.182 C  
HETATM   19  O   UNL     1      -8.741   8.595  62.402  1.00  0.00    -0.198 OA 
HETATM   20  O   UNL     1      -7.594   8.213  64.307  1.00  0.00    -0.101 OA 
ENDBRANCH  16  17
ENDBRANCH  15  16
ENDBRANCH  14  15
ENDBRANCH  13  14
ENDBRANCH  11  12
ENDBRANCH  10  11
ENDBRANCH   8   9
ENDBRANCH   7   8
ENDBRANCH   5   6
ENDBRANCH   4   5
ENDBRANCH   3   4
ENDBRANCH   2   3
TORSDOF 12
ENDMDL
MODEL      291
REMARK 921   NORMALIZED FREE ENERGY PREDICTED BY IDOCK:   -3.29 KCAL/MOL
REMARK 922        TOTAL FREE ENERGY PREDICTED BY IDOCK:   -7.55 KCAL/MOL
REMARK 923 INTER-LIGAND FREE ENERGY PREDICTED BY IDOCK:   -5.04 KCAL/MOL
REMARK 924 INTRA-LIGAND FREE ENERGY PREDICTED BY IDOCK:   -2.51 KCAL/MOL
REMARK 927      BINDING AFFINITY PREDICTED BY RF-SCORE:    0.00 PKD
ROOT
HETATM    1  C   UNL     1      -7.768  11.267  67.207  1.00  0.00    -0.138 C  
HETATM    2  C   UNL     1      -8.013  10.656  68.575  1.00  0.00    -0.122 C  
ENDROOT
BRANCH   2   3
HETATM    3  C   UNL     1      -8.970   9.473  68.485  1.00  0.00    -0.128 C  
BRANCH   3   4
HETATM    4  C   UNL     1      -9.637   9.406  67.112  1.00  0.00    -0.202 C  
BRANCH   4   5
HETATM    5  C   UNL     1      -9.528   7.991  66.562  1.00  0.00    -0.278 C  
BRANCH   5   6
HETATM    6  C   UNL     1      -8.120   7.475  66.518  1.00  0.00    -0.120 C  
HETATM    7  C   UNL     1      -7.396   7.457  65.388  1.00  0.00    -0.072 C  
BRANCH   7   8
HETATM    8  C   UNL     1      -7.906   7.918  64.056  1.00  0.00    -0.138 C  
BRANCH   8   9
HETATM    9  C   UNL     1      -7.494   9.325  63.755  1.00  0.00    -0.106 C  
HETATM   10  C   UNL     1      -8.341  10.358  63.624  1.00  0.00    -0.153 C  
BRANCH  10  11
HETATM   11  C   UNL     1      -9.835  10.250  63.663  1.00  0.00    -0.178 C  
BRANCH  11  12
HETATM   12  C   UNL     1     -10.493  11.481  63.106  1.00  0.00    -0.350 C  
HETATM   13  C   UNL     1     -10.832  12.561  63.829  1.00  0.00    -0.489 C  
BRANCH  13  14
HETATM   14  C   UNL     1     -10.594  12.641  65.306  1.00  0.00    -0.317 C  
BRANCH  14  15
HETATM   15  C   UNL     1     -11.861  12.515  66.141  1.00  0.00    -0.459 C  
BRANCH  15  16
HETATM   16  C   UNL     1     -11.540  12.860  67.595  1.00  0.00    -0.406 C  
BRANCH  16  17
HETATM   17  C   UNL     1     -11.711  11.653  68.506  1.00  0.00    -0.378 C  
HETATM   18  C   UNL     1     -11.982  12.065  69.933  1.00  0.00    -0.318 C  
HETATM   19  O   UNL     1     -12.058  13.216  70.337  1.00  0.00    -0.351 OA 
HETATM   20  O   UNL     1     -12.137  11.000  70.752  1.00  0.00    -0.335 OA 
ENDBRANCH  16  17
ENDBRANCH  15  16
ENDBRANCH  14  15
ENDBRANCH  13  14
ENDBRANCH  11  12
ENDBRANCH  10  11
ENDBRANCH   8   9
ENDBRANCH   7   8
ENDBRANCH   5   6
ENDBRANCH   4   5
ENDBRANCH   3   4
ENDBRANCH   2   3
TORSDOF 12
ENDMDL
MODEL      292
REMARK 921   NORMALIZED FREE ENERGY PREDICTED BY IDOCK:   -3.29 KCAL/MOL
REMARK 922        TOTAL FREE ENERGY PREDICTED BY IDOCK:   -7.55 KCAL/MOL
REMARK 923 INTER-LIGAND FREE ENERGY PREDICTED BY IDOCK:   -6.04 KCAL/MOL
REMARK 924 INTRA-LIGAND FREE ENERGY PREDICTED BY IDOCK:   -1.50 KCAL/MOL
REMARK 927      BINDING AFFINITY PREDICTED BY RF-SCORE:    0.00 PKD
ROOT
HETATM    1  C   UNL     1      -8.342   7.503  66.904  1.00  0.00    -0.125 C  
HETATM    2  C   UNL     1      -9.436   6.455  66.801  1.00  0.00    -0.176 C  
ENDROOT
BRANCH   2   3
HETATM    3  C   UNL     1     -10.675   6.875  67.583  1.00  0.00    -0.344 C  
BRANCH   3   4
HETATM    4  C   UNL     1     -11.019   5.852  68.664  1.00  0.00    -0.289 C  
BRANCH   4   5
HETATM    5  C   UNL     1     -10.031   5.976  69.816  1.00  0.00    -0.223 C  
BRANCH   5   6
HETATM    6  C   UNL     1     -10.640   5.688  71.156  1.00  0.00    -0.312 C  
HETATM    7  C   UNL     1     -11.452   6.558  71.777  1.00  0.00    -0.346 C  
BRANCH   7   8
HETATM    8  C   UNL     1     -11.821   7.903  71.229  1.00  0.00    -0.321 C  
BRANCH   8   9
HETATM    9  C   UNL     1     -10.695   8.883  71.347  1.00  0.00    -0.382 C  
HETATM   10  C   UNL     1     -10.616  10.041  70.674  1.00  0.00    -0.272 C  
BRANCH  10  11
HETATM   11  C   UNL     1     -11.591  10.492  69.629  1.00  0.00    -0.342 C  
BRANCH  11  12
HETATM   12  C   UNL     1     -11.040  10.308  68.243  1.00  0.00    -0.311 C  
HETATM   13  C   UNL     1     -10.463  11.275  67.513  1.00  0.00    -0.234 C  
BRANCH  13  14
HETATM   14  C   UNL     1     -10.318  12.678  68.018  1.00  0.00    -0.231 C  
BRANCH  14  15
HETATM   15  C   UNL     1     -11.464  13.597  67.617  1.00  0.00    -0.357 C  
BRANCH  15  16
HETATM   16  C   UNL     1     -11.641  14.674  68.688  1.00  0.00    -0.343 C  
BRANCH  16  17
HETATM   17  C   UNL     1     -12.394  14.140  69.898  1.00  0.00    -0.382 C  
HETATM   18  C   UNL     1     -12.252  15.055  71.090  1.00  0.00    -0.320 C  
HETATM   19  O   UNL     1     -11.616  16.098  71.113  1.00  0.00    -0.419 OA 
HETATM   20  O   UNL     1     -12.918  14.591  72.173  1.00  0.00    -0.315 OA 
ENDBRANCH  16  17
ENDBRANCH  15  16
ENDBRANCH  14  15
ENDBRANCH  13  14
ENDBRANCH  11  12
ENDBRANCH  10  11
ENDBRANCH   8   9
ENDBRANCH   7   8
ENDBRANCH   5   6
ENDBRANCH   4   5
ENDBRANCH   3   4
ENDBRANCH   2   3
TORSDOF 12
ENDMDL
MODEL      293
REMARK 921   NORMALIZED FREE ENERGY PREDICTED BY IDOCK:   -3.29 KCAL/MOL
REMARK 922        TOTAL FREE ENERGY PREDICTED BY IDOCK:   -7.55 KCAL/MOL
REMARK 923 INTER-LIGAND FREE ENERGY PREDICTED BY IDOCK:   -5.86 KCAL/MOL
REMARK 924 INTRA-LIGAND FREE ENERGY PREDICTED BY IDOCK:   -1.69 KCAL/MOL
REMARK 927      BINDING AFFINITY PREDICTED BY RF-SCORE:    0.00 PKD
ROOT
HETATM    1  C   UNL     1      -7.269  13.795  67.898  1.00  0.00    -0.156 C  
HETATM    2  C   UNL     1      -7.792  15.216  68.012  1.00  0.00    -0.135 C  
ENDROOT
BRANCH   2   3
HETATM    3  C   UNL     1      -7.021  16.160  67.097  1.00  0.00    -0.244 C  
BRANCH   3   4
HETATM    4  C   UNL     1      -6.640  17.447  67.827  1.00  0.00    -0.164 C  
BRANCH   4   5
HETATM    5  C   UNL     1      -7.869  18.025  68.515  1.00  0.00    -0.310 C  
BRANCH   5   6
HETATM    6  C   UNL     1      -8.400  19.259  67.848  1.00  0.00    -0.338 C  
HETATM    7  C   UNL     1      -9.580  19.278  67.208  1.00  0.00    -0.394 C  
BRANCH   7   8
HETATM    8  C   UNL     1     -10.478  18.087  67.067  1.00  0.00    -0.361 C  
BRANCH   8   9
HETATM    9  C   UNL     1     -10.165  17.293  65.836  1.00  0.00    -0.273 C  
HETATM   10  C   UNL     1     -10.517  16.013  65.642  1.00  0.00    -0.416 C  
BRANCH  10  11
HETATM   11  C   UNL     1     -11.195  15.148  66.661  1.00  0.00    -0.274 C  
BRANCH  11  12
HETATM   12  C   UNL     1     -11.968  14.033  66.014  1.00  0.00    -0.434 C  
HETATM   13  C   UNL     1     -12.013  12.770  66.466  1.00  0.00    -0.428 C  
BRANCH  13  14
HETATM   14  C   UNL     1     -11.265  12.330  67.687  1.00  0.00    -0.346 C  
BRANCH  14  15
HETATM   15  C   UNL     1     -11.418  10.848  68.002  1.00  0.00    -0.356 C  
BRANCH  15  16
HETATM   16  C   UNL     1     -11.385  10.651  69.517  1.00  0.00    -0.342 C  
BRANCH  16  17
HETATM   17  C   UNL     1     -10.070  10.035  69.971  1.00  0.00    -0.289 C  
HETATM   18  C   UNL     1     -10.240   8.587  70.364  1.00  0.00    -0.195 C  
HETATM   19  O   UNL     1     -11.289   7.961  70.335  1.00  0.00    -0.264 OA 
HETATM   20  O   UNL     1      -9.076   8.027  70.769  1.00  0.00    -0.142 OA 
ENDBRANCH  16  17
ENDBRANCH  15  16
ENDBRANCH  14  15
ENDBRANCH  13  14
ENDBRANCH  11  12
ENDBRANCH  10  11
ENDBRANCH   8   9
ENDBRANCH   7   8
ENDBRANCH   5   6
ENDBRANCH   4   5
ENDBRANCH   3   4
ENDBRANCH   2   3
TORSDOF 12
ENDMDL
MODEL      294
REMARK 921   NORMALIZED FREE ENERGY PREDICTED BY IDOCK:   -3.28 KCAL/MOL
REMARK 922        TOTAL FREE ENERGY PREDICTED BY IDOCK:   -7.54 KCAL/MOL
REMARK 923 INTER-LIGAND FREE ENERGY PREDICTED BY IDOCK:   -5.17 KCAL/MOL
REMARK 924 INTRA-LIGAND FREE ENERGY PREDICTED BY IDOCK:   -2.37 KCAL/MOL
REMARK 927      BINDING AFFINITY PREDICTED BY RF-SCORE:    0.00 PKD
ROOT
HETATM    1  C   UNL     1      -9.062  10.676  65.434  1.00  0.00    -0.214 C  
HETATM    2  C   UNL     1     -10.341  11.018  66.178  1.00  0.00    -0.306 C  
ENDROOT
BRANCH   2   3
HETATM    3  C   UNL     1     -10.754   9.885  67.110  1.00  0.00    -0.276 C  
BRANCH   3   4
HETATM    4  C   UNL     1     -11.364  10.428  68.402  1.00  0.00    -0.292 C  
BRANCH   4   5
HETATM    5  C   UNL     1     -10.254  10.910  69.326  1.00  0.00    -0.190 C  
BRANCH   5   6
HETATM    6  C   UNL     1      -9.468   9.794  69.946  1.00  0.00    -0.264 C  
HETATM    7  C   UNL     1      -8.178   9.571  69.649  1.00  0.00    -0.143 C  
BRANCH   7   8
HETATM    8  C   UNL     1      -7.392  10.381  68.663  1.00  0.00    -0.085 C  
BRANCH   8   9
HETATM    9  C   UNL     1      -6.667  11.515  69.320  1.00  0.00    -0.118 C  
HETATM   10  C   UNL     1      -6.662  12.780  68.873  1.00  0.00    -0.097 C  
BRANCH  10  11
HETATM   11  C   UNL     1      -7.298  13.239  67.597  1.00  0.00    -0.164 C  
BRANCH  11  12
HETATM   12  C   UNL     1      -7.680  14.692  67.661  1.00  0.00    -0.194 C  
HETATM   13  C   UNL     1      -8.926  15.147  67.868  1.00  0.00    -0.174 C  
BRANCH  13  14
HETATM   14  C   UNL     1     -10.094  14.226  68.046  1.00  0.00    -0.227 C  
BRANCH  14  15
HETATM   15  C   UNL     1     -11.444  14.931  68.015  1.00  0.00    -0.355 C  
BRANCH  15  16
HETATM   16  C   UNL     1     -11.805  15.385  69.430  1.00  0.00    -0.372 C  
BRANCH  16  17
HETATM   17  C   UNL     1     -12.145  14.203  70.325  1.00  0.00    -0.412 C  
HETATM   18  C   UNL     1     -13.162  14.576  71.377  1.00  0.00    -0.355 C  
HETATM   19  O   UNL     1     -13.665  15.681  71.518  1.00  0.00    -0.484 OA 
HETATM   20  O   UNL     1     -13.474  13.532  72.180  1.00  0.00    -0.449 OA 
ENDBRANCH  16  17
ENDBRANCH  15  16
ENDBRANCH  14  15
ENDBRANCH  13  14
ENDBRANCH  11  12
ENDBRANCH  10  11
ENDBRANCH   8   9
ENDBRANCH   7   8
ENDBRANCH   5   6
ENDBRANCH   4   5
ENDBRANCH   3   4
ENDBRANCH   2   3
TORSDOF 12
ENDMDL
MODEL      295
REMARK 921   NORMALIZED FREE ENERGY PREDICTED BY IDOCK:   -3.28 KCAL/MOL
REMARK 922        TOTAL FREE ENERGY PREDICTED BY IDOCK:   -7.54 KCAL/MOL
REMARK 923 INTER-LIGAND FREE ENERGY PREDICTED BY IDOCK:   -6.19 KCAL/MOL
REMARK 924 INTRA-LIGAND FREE ENERGY PREDICTED BY IDOCK:   -1.35 KCAL/MOL
REMARK 927      BINDING AFFINITY PREDICTED BY RF-SCORE:    0.00 PKD
ROOT
HETATM    1  C   UNL     1      -7.654  10.722  66.222  1.00  0.00    -0.142 C  
HETATM    2  C   UNL     1      -9.135  10.994  66.027  1.00  0.00    -0.212 C  
ENDROOT
BRANCH   2   3
HETATM    3  C   UNL     1      -9.875   9.731  65.601  1.00  0.00    -0.371 C  
BRANCH   3   4
HETATM    4  C   UNL     1     -10.550   9.057  66.795  1.00  0.00    -0.201 C  
BRANCH   4   5
HETATM    5  C   UNL     1      -9.705   7.880  67.261  1.00  0.00    -0.230 C  
BRANCH   5   6
HETATM    6  C   UNL     1     -10.349   6.548  67.009  1.00  0.00    -0.319 C  
HETATM    7  C   UNL     1     -10.452   5.609  67.962  1.00  0.00    -0.264 C  
BRANCH   7   8
HETATM    8  C   UNL     1      -9.925   5.765  69.357  1.00  0.00    -0.244 C  
BRANCH   8   9
HETATM    9  C   UNL     1     -11.002   5.599  70.384  1.00  0.00    -0.278 C  
HETATM   10  C   UNL     1     -11.298   6.501  71.333  1.00  0.00    -0.344 C  
BRANCH  10  11
HETATM   11  C   UNL     1     -10.537   7.769  71.575  1.00  0.00    -0.247 C  
BRANCH  11  12
HETATM   12  C   UNL     1     -10.884   8.824  70.562  1.00  0.00    -0.268 C  
HETATM   13  C   UNL     1     -11.917   9.675  70.666  1.00  0.00    -0.304 C  
BRANCH  13  14
HETATM   14  C   UNL     1     -12.862   9.647  71.828  1.00  0.00    -0.514 C  
BRANCH  14  15
HETATM   15  C   UNL     1     -13.649  10.938  72.012  1.00  0.00    -0.152 C  
BRANCH  15  16
HETATM   16  C   UNL     1     -12.814  12.112  71.501  1.00  0.00    -0.394 C  
BRANCH  16  17
HETATM   17  C   UNL     1     -13.339  13.440  72.026  1.00  0.00    -0.569 C  
HETATM   18  C   UNL     1     -12.898  14.595  71.159  1.00  0.00    -0.343 C  
HETATM   19  O   UNL     1     -12.204  14.507  70.157  1.00  0.00    -0.305 OA 
HETATM   20  O   UNL     1     -13.360  15.782  71.616  1.00  0.00    -0.487 OA 
ENDBRANCH  16  17
ENDBRANCH  15  16
ENDBRANCH  14  15
ENDBRANCH  13  14
ENDBRANCH  11  12
ENDBRANCH  10  11
ENDBRANCH   8   9
ENDBRANCH   7   8
ENDBRANCH   5   6
ENDBRANCH   4   5
ENDBRANCH   3   4
ENDBRANCH   2   3
TORSDOF 12
ENDMDL
MODEL      296
REMARK 921   NORMALIZED FREE ENERGY PREDICTED BY IDOCK:   -3.28 KCAL/MOL
REMARK 922        TOTAL FREE ENERGY PREDICTED BY IDOCK:   -7.54 KCAL/MOL
REMARK 923 INTER-LIGAND FREE ENERGY PREDICTED BY IDOCK:   -6.52 KCAL/MOL
REMARK 924 INTRA-LIGAND FREE ENERGY PREDICTED BY IDOCK:   -1.02 KCAL/MOL
REMARK 927      BINDING AFFINITY PREDICTED BY RF-SCORE:    0.00 PKD
ROOT
HETATM    1  C   UNL     1     -12.052  12.833  63.509  1.00  0.00    -0.642 C  
HETATM    2  C   UNL     1     -12.223  14.196  64.155  1.00  0.00    -0.423 C  
ENDROOT
BRANCH   2   3
HETATM    3  C   UNL     1     -12.393  14.072  65.664  1.00  0.00    -0.502 C  
BRANCH   3   4
HETATM    4  C   UNL     1     -11.089  14.386  66.395  1.00  0.00    -0.326 C  
BRANCH   4   5
HETATM    5  C   UNL     1     -10.603  13.143  67.128  1.00  0.00    -0.259 C  
BRANCH   5   6
HETATM    6  C   UNL     1     -11.714  12.229  67.553  1.00  0.00    -0.402 C  
HETATM    7  C   UNL     1     -11.498  10.955  67.915  1.00  0.00    -0.344 C  
BRANCH   7   8
HETATM    8  C   UNL     1     -10.150  10.299  67.915  1.00  0.00    -0.200 C  
BRANCH   8   9
HETATM    9  C   UNL     1     -10.092   9.141  66.967  1.00  0.00    -0.316 C  
HETATM   10  C   UNL     1     -10.455   7.886  67.271  1.00  0.00    -0.390 C  
BRANCH  10  11
HETATM   11  C   UNL     1     -10.884   7.424  68.630  1.00  0.00    -0.073 C  
BRANCH  11  12
HETATM   12  C   UNL     1     -10.817   5.928  68.753  1.00  0.00    -0.353 C  
HETATM   13  C   UNL     1     -10.504   5.264  69.877  1.00  0.00    -0.351 C  
BRANCH  13  14
HETATM   14  C   UNL     1     -10.166   5.971  71.154  1.00  0.00    -0.257 C  
BRANCH  14  15
HETATM   15  C   UNL     1     -10.575   5.207  72.406  1.00  0.00    -0.278 C  
BRANCH  15  16
HETATM   16  C   UNL     1     -10.728   6.190  73.567  1.00  0.00    -0.263 C  
BRANCH  16  17
HETATM   17  C   UNL     1     -10.107   7.541  73.240  1.00  0.00    -0.386 C  
HETATM   18  C   UNL     1      -8.692   7.642  73.755  1.00  0.00    -0.239 C  
HETATM   19  O   UNL     1      -8.093   6.768  74.364  1.00  0.00    -0.116 OA 
HETATM   20  O   UNL     1      -8.128   8.839  73.469  1.00  0.00    -0.396 OA 
ENDBRANCH  16  17
ENDBRANCH  15  16
ENDBRANCH  14  15
ENDBRANCH  13  14
ENDBRANCH  11  12
ENDBRANCH  10  11
ENDBRANCH   8   9
ENDBRANCH   7   8
ENDBRANCH   5   6
ENDBRANCH   4   5
ENDBRANCH   3   4
ENDBRANCH   2   3
TORSDOF 12
ENDMDL
MODEL      297
REMARK 921   NORMALIZED FREE ENERGY PREDICTED BY IDOCK:   -3.28 KCAL/MOL
REMARK 922        TOTAL FREE ENERGY PREDICTED BY IDOCK:   -7.53 KCAL/MOL
REMARK 923 INTER-LIGAND FREE ENERGY PREDICTED BY IDOCK:   -5.75 KCAL/MOL
REMARK 924 INTRA-LIGAND FREE ENERGY PREDICTED BY IDOCK:   -1.78 KCAL/MOL
REMARK 927      BINDING AFFINITY PREDICTED BY RF-SCORE:    0.00 PKD
ROOT
HETATM    1  C   UNL     1      -6.674  19.570  69.578  1.00  0.00    -0.354 C  
HETATM    2  C   UNL     1      -5.611  18.485  69.600  1.00  0.00    -0.229 C  
ENDROOT
BRANCH   2   3
HETATM    3  C   UNL     1      -6.200  17.131  69.222  1.00  0.00    -0.224 C  
BRANCH   3   4
HETATM    4  C   UNL     1      -6.710  17.133  67.782  1.00  0.00    -0.162 C  
BRANCH   4   5
HETATM    5  C   UNL     1      -7.592  15.914  67.552  1.00  0.00    -0.186 C  
BRANCH   5   6
HETATM    6  C   UNL     1      -6.839  14.618  67.591  1.00  0.00    -0.204 C  
HETATM    7  C   UNL     1      -7.457  13.427  67.549  1.00  0.00    -0.170 C  
BRANCH   7   8
HETATM    8  C   UNL     1      -8.945  13.253  67.485  1.00  0.00    -0.208 C  
BRANCH   8   9
HETATM    9  C   UNL     1      -9.404  12.062  68.267  1.00  0.00    -0.197 C  
HETATM   10  C   UNL     1     -10.678  11.816  68.606  1.00  0.00    -0.252 C  
BRANCH  10  11
HETATM   11  C   UNL     1     -11.828  12.738  68.340  1.00  0.00    -0.353 C  
BRANCH  11  12
HETATM   12  C   UNL     1     -12.061  13.678  69.490  1.00  0.00    -0.368 C  
HETATM   13  C   UNL     1     -11.856  15.004  69.448  1.00  0.00    -0.358 C  
BRANCH  13  14
HETATM   14  C   UNL     1     -11.347  15.696  68.221  1.00  0.00    -0.357 C  
BRANCH  14  15
HETATM   15  C   UNL     1     -10.554  16.963  68.514  1.00  0.00    -0.367 C  
BRANCH  15  16
HETATM   16  C   UNL     1     -10.769  17.963  67.377  1.00  0.00    -0.306 C  
BRANCH  16  17
HETATM   17  C   UNL     1     -10.320  19.362  67.773  1.00  0.00    -0.547 C  
HETATM   18  C   UNL     1      -9.212  19.866  66.880  1.00  0.00    -0.370 C  
HETATM   19  O   UNL     1      -8.714  19.249  65.950  1.00  0.00    -0.443 OA 
HETATM   20  O   UNL     1      -8.805  21.110  67.222  1.00  0.00    -0.098 OA 
ENDBRANCH  16  17
ENDBRANCH  15  16
ENDBRANCH  14  15
ENDBRANCH  13  14
ENDBRANCH  11  12
ENDBRANCH  10  11
ENDBRANCH   8   9
ENDBRANCH   7   8
ENDBRANCH   5   6
ENDBRANCH   4   5
ENDBRANCH   3   4
ENDBRANCH   2   3
TORSDOF 12
ENDMDL
MODEL      298
REMARK 921   NORMALIZED FREE ENERGY PREDICTED BY IDOCK:   -3.28 KCAL/MOL
REMARK 922        TOTAL FREE ENERGY PREDICTED BY IDOCK:   -7.53 KCAL/MOL
REMARK 923 INTER-LIGAND FREE ENERGY PREDICTED BY IDOCK:   -4.96 KCAL/MOL
REMARK 924 INTRA-LIGAND FREE ENERGY PREDICTED BY IDOCK:   -2.57 KCAL/MOL
REMARK 927      BINDING AFFINITY PREDICTED BY RF-SCORE:    0.00 PKD
ROOT
HETATM    1  C   UNL     1      -7.293   5.325  68.473  1.00  0.00    -0.071 C  
HETATM    2  C   UNL     1      -8.238   4.155  68.265  1.00  0.00    -0.091 C  
ENDROOT
BRANCH   2   3
HETATM    3  C   UNL     1      -9.605   4.631  67.787  1.00  0.00    -0.203 C  
BRANCH   3   4
HETATM    4  C   UNL     1     -10.245   5.580  68.799  1.00  0.00    -0.270 C  
BRANCH   4   5
HETATM    5  C   UNL     1     -10.982   6.690  68.063  1.00  0.00    -0.332 C  
BRANCH   5   6
HETATM    6  C   UNL     1     -10.227   7.223  66.881  1.00  0.00    -0.340 C  
HETATM    7  C   UNL     1     -10.150   8.535  66.610  1.00  0.00    -0.364 C  
BRANCH   7   8
HETATM    8  C   UNL     1     -10.816   9.602  67.426  1.00  0.00    -0.242 C  
BRANCH   8   9
HETATM    9  C   UNL     1     -10.740  10.943  66.763  1.00  0.00    -0.309 C  
HETATM   10  C   UNL     1      -9.897  11.924  67.118  1.00  0.00    -0.206 C  
BRANCH  10  11
HETATM   11  C   UNL     1      -8.966  11.870  68.291  1.00  0.00    -0.178 C  
BRANCH  11  12
HETATM   12  C   UNL     1      -7.692  11.145  67.954  1.00  0.00    -0.105 C  
HETATM   13  C   UNL     1      -7.090  10.246  68.748  1.00  0.00    -0.072 C  
BRANCH  13  14
HETATM   14  C   UNL     1      -7.635   9.876  70.093  1.00  0.00    -0.185 C  
BRANCH  14  15
HETATM   15  C   UNL     1      -8.583   8.684  70.065  1.00  0.00    -0.132 C  
BRANCH  15  16
HETATM   16  C   UNL     1      -9.561   8.793  71.236  1.00  0.00    -0.323 C  
BRANCH  16  17
HETATM   17  C   UNL     1     -10.777   9.632  70.871  1.00  0.00    -0.402 C  
HETATM   18  C   UNL     1     -11.990   9.234  71.676  1.00  0.00    -0.378 C  
HETATM   19  O   UNL     1     -12.024   8.350  72.520  1.00  0.00    -0.393 OA 
HETATM   20  O   UNL     1     -13.078   9.975  71.361  1.00  0.00    -0.367 OA 
ENDBRANCH  16  17
ENDBRANCH  15  16
ENDBRANCH  14  15
ENDBRANCH  13  14
ENDBRANCH  11  12
ENDBRANCH  10  11
ENDBRANCH   8   9
ENDBRANCH   7   8
ENDBRANCH   5   6
ENDBRANCH   4   5
ENDBRANCH   3   4
ENDBRANCH   2   3
TORSDOF 12
ENDMDL
MODEL      299
REMARK 921   NORMALIZED FREE ENERGY PREDICTED BY IDOCK:   -3.27 KCAL/MOL
REMARK 922        TOTAL FREE ENERGY PREDICTED BY IDOCK:   -7.52 KCAL/MOL
REMARK 923 INTER-LIGAND FREE ENERGY PREDICTED BY IDOCK:   -6.84 KCAL/MOL
REMARK 924 INTRA-LIGAND FREE ENERGY PREDICTED BY IDOCK:   -0.68 KCAL/MOL
REMARK 927      BINDING AFFINITY PREDICTED BY RF-SCORE:    0.00 PKD
ROOT
HETATM    1  C   UNL     1     -11.493  15.833  69.687  1.00  0.00    -0.348 C  
HETATM    2  C   UNL     1     -11.224  15.441  71.129  1.00  0.00    -0.410 C  
ENDROOT
BRANCH   2   3
HETATM    3  C   UNL     1     -11.985  16.342  72.095  1.00  0.00    -0.575 C  
BRANCH   3   4
HETATM    4  C   UNL     1     -12.916  15.527  72.991  1.00  0.00    -0.609 C  
BRANCH   4   5
HETATM    5  C   UNL     1     -13.791  14.625  72.131  1.00  0.00    -0.569 C  
BRANCH   5   6
HETATM    6  C   UNL     1     -13.783  13.191  72.573  1.00  0.00    -0.563 C  
HETATM    7  C   UNL     1     -13.268  12.209  71.816  1.00  0.00    -0.423 C  
BRANCH   7   8
HETATM    8  C   UNL     1     -12.674  12.420  70.456  1.00  0.00    -0.051 C  
BRANCH   8   9
HETATM    9  C   UNL     1     -11.558  11.461  70.178  1.00  0.00    -0.368 C  
HETATM   10  C   UNL     1     -11.592  10.149  70.456  1.00  0.00    -0.411 C  
BRANCH  10  11
HETATM   11  C   UNL     1     -12.709   9.454  71.173  1.00  0.00    -0.342 C  
BRANCH  11  12
HETATM   12  C   UNL     1     -12.241   8.839  72.462  1.00  0.00    -0.347 C  
HETATM   13  C   UNL     1     -11.763   7.591  72.586  1.00  0.00    -0.279 C  
BRANCH  13  14
HETATM   14  C   UNL     1     -11.660   6.655  71.421  1.00  0.00    -0.362 C  
BRANCH  14  15
HETATM   15  C   UNL     1     -10.284   6.636  70.768  1.00  0.00    -0.221 C  
BRANCH  15  16
HETATM   16  C   UNL     1     -10.200   5.447  69.810  1.00  0.00    -0.348 C  
BRANCH  16  17
HETATM   17  C   UNL     1     -10.721   5.807  68.426  1.00  0.00    -0.283 C  
HETATM   18  C   UNL     1      -9.687   5.547  67.357  1.00  0.00    -0.135 C  
HETATM   19  O   UNL     1      -8.563   5.105  67.548  1.00  0.00    -0.106 OA 
HETATM   20  O   UNL     1     -10.138   5.862  66.121  1.00  0.00    -0.087 OA 
ENDBRANCH  16  17
ENDBRANCH  15  16
ENDBRANCH  14  15
ENDBRANCH  13  14
ENDBRANCH  11  12
ENDBRANCH  10  11
ENDBRANCH   8   9
ENDBRANCH   7   8
ENDBRANCH   5   6
ENDBRANCH   4   5
ENDBRANCH   3   4
ENDBRANCH   2   3
TORSDOF 12
ENDMDL
MODEL      300
REMARK 921   NORMALIZED FREE ENERGY PREDICTED BY IDOCK:   -3.27 KCAL/MOL
REMARK 922        TOTAL FREE ENERGY PREDICTED BY IDOCK:   -7.52 KCAL/MOL
REMARK 923 INTER-LIGAND FREE ENERGY PREDICTED BY IDOCK:   -5.83 KCAL/MOL
REMARK 924 INTRA-LIGAND FREE ENERGY PREDICTED BY IDOCK:   -1.68 KCAL/MOL
REMARK 927      BINDING AFFINITY PREDICTED BY RF-SCORE:    0.00 PKD
ROOT
HETATM    1  C   UNL     1      -9.426   6.968  68.688  1.00  0.00    -0.135 C  
HETATM    2  C   UNL     1      -8.872   8.311  68.244  1.00  0.00    -0.140 C  
ENDROOT
BRANCH   2   3
HETATM    3  C   UNL     1      -9.994   9.310  67.986  1.00  0.00    -0.216 C  
BRANCH   3   4
HETATM    4  C   UNL     1     -10.351   9.367  66.502  1.00  0.00    -0.268 C  
BRANCH   4   5
HETATM    5  C   UNL     1      -9.616  10.527  65.845  1.00  0.00    -0.254 C  
BRANCH   5   6
HETATM    6  C   UNL     1      -9.806  10.587  64.358  1.00  0.00    -0.405 C  
HETATM    7  C   UNL     1     -10.319  11.662  63.741  1.00  0.00    -0.445 C  
BRANCH   7   8
HETATM    8  C   UNL     1     -10.779  12.899  64.453  1.00  0.00    -0.407 C  
BRANCH   8   9
HETATM    9  C   UNL     1     -12.145  12.730  65.043  1.00  0.00    -0.491 C  
HETATM   10  C   UNL     1     -12.611  13.413  66.099  1.00  0.00    -0.294 C  
BRANCH  10  11
HETATM   11  C   UNL     1     -11.809  14.382  66.914  1.00  0.00    -0.433 C  
BRANCH  11  12
HETATM   12  C   UNL     1     -10.903  13.674  67.881  1.00  0.00    -0.264 C  
HETATM   13  C   UNL     1      -9.562  13.748  67.870  1.00  0.00    -0.222 C  
BRANCH  13  14
HETATM   14  C   UNL     1      -8.816  14.557  66.854  1.00  0.00    -0.257 C  
BRANCH  14  15
HETATM   15  C   UNL     1      -7.383  14.880  67.258  1.00  0.00    -0.174 C  
BRANCH  15  16
HETATM   16  C   UNL     1      -7.097  16.352  66.958  1.00  0.00    -0.259 C  
BRANCH  16  17
HETATM   17  C   UNL     1      -8.341  17.070  66.453  1.00  0.00    -0.319 C  
HETATM   18  C   UNL     1      -8.737  18.205  67.366  1.00  0.00    -0.245 C  
HETATM   19  O   UNL     1      -8.155  18.529  68.391  1.00  0.00    -0.305 OA 
HETATM   20  O   UNL     1      -9.842  18.853  66.927  1.00  0.00    -0.302 OA 
ENDBRANCH  16  17
ENDBRANCH  15  16
ENDBRANCH  14  15
ENDBRANCH  13  14
ENDBRANCH  11  12
ENDBRANCH  10  11
ENDBRANCH   8   9
ENDBRANCH   7   8
ENDBRANCH   5   6
ENDBRANCH   4   5
ENDBRANCH   3   4
ENDBRANCH   2   3
TORSDOF 12
ENDMDL
MODEL      301
REMARK 921   NORMALIZED FREE ENERGY PREDICTED BY IDOCK:   -3.27 KCAL/MOL
REMARK 922        TOTAL FREE ENERGY PREDICTED BY IDOCK:   -7.52 KCAL/MOL
REMARK 923 INTER-LIGAND FREE ENERGY PREDICTED BY IDOCK:   -6.26 KCAL/MOL
REMARK 924 INTRA-LIGAND FREE ENERGY PREDICTED BY IDOCK:   -1.26 KCAL/MOL
REMARK 927      BINDING AFFINITY PREDICTED BY RF-SCORE:    0.00 PKD
ROOT
HETATM    1  C   UNL     1      -7.100   3.171  69.442  1.00  0.00    -0.041 C  
HETATM    2  C   UNL     1      -7.821   3.250  68.109  1.00  0.00    -0.063 C  
ENDROOT
BRANCH   2   3
HETATM    3  C   UNL     1      -8.941   4.282  68.150  1.00  0.00    -0.151 C  
BRANCH   3   4
HETATM    4  C   UNL     1      -8.864   5.130  69.419  1.00  0.00    -0.119 C  
BRANCH   4   5
HETATM    5  C   UNL     1     -10.166   5.001  70.197  1.00  0.00    -0.329 C  
BRANCH   5   6
HETATM    6  C   UNL     1      -9.977   4.479  71.591  1.00  0.00    -0.266 C  
HETATM    7  C   UNL     1      -9.719   5.285  72.632  1.00  0.00    -0.175 C  
BRANCH   7   8
HETATM    8  C   UNL     1      -9.565   6.773  72.525  1.00  0.00    -0.165 C  
BRANCH   8   9
HETATM    9  C   UNL     1     -10.841   7.491  72.837  1.00  0.00    -0.425 C  
HETATM   10  C   UNL     1     -11.237   8.633  72.255  1.00  0.00    -0.399 C  
BRANCH  10  11
HETATM   11  C   UNL     1     -10.424   9.420  71.273  1.00  0.00    -0.385 C  
BRANCH  11  12
HETATM   12  C   UNL     1     -10.586   8.896  69.874  1.00  0.00    -0.229 C  
HETATM   13  C   UNL     1     -10.612   9.657  68.769  1.00  0.00    -0.242 C  
BRANCH  13  14
HETATM   14  C   UNL     1     -10.491  11.150  68.824  1.00  0.00    -0.227 C  
BRANCH  14  15
HETATM   15  C   UNL     1     -11.706  11.886  68.277  1.00  0.00    -0.385 C  
BRANCH  15  16
HETATM   16  C   UNL     1     -11.279  12.743  67.085  1.00  0.00    -0.336 C  
BRANCH  16  17
HETATM   17  C   UNL     1     -11.689  12.107  65.765  1.00  0.00    -0.391 C  
HETATM   18  C   UNL     1     -12.716  12.942  65.039  1.00  0.00    -0.404 C  
HETATM   19  O   UNL     1     -13.182  13.999  65.438  1.00  0.00    -0.761 OA 
HETATM   20  O   UNL     1     -13.087  12.386  63.862  1.00  0.00    -0.763 OA 
ENDBRANCH  16  17
ENDBRANCH  15  16
ENDBRANCH  14  15
ENDBRANCH  13  14
ENDBRANCH  11  12
ENDBRANCH  10  11
ENDBRANCH   8   9
ENDBRANCH   7   8
ENDBRANCH   5   6
ENDBRANCH   4   5
ENDBRANCH   3   4
ENDBRANCH   2   3
TORSDOF 12
ENDMDL
MODEL      302
REMARK 921   NORMALIZED FREE ENERGY PREDICTED BY IDOCK:   -3.26 KCAL/MOL
REMARK 922        TOTAL FREE ENERGY PREDICTED BY IDOCK:   -7.50 KCAL/MOL
REMARK 923 INTER-LIGAND FREE ENERGY PREDICTED BY IDOCK:   -6.08 KCAL/MOL
REMARK 924 INTRA-LIGAND FREE ENERGY PREDICTED BY IDOCK:   -1.41 KCAL/MOL
REMARK 927      BINDING AFFINITY PREDICTED BY RF-SCORE:    0.00 PKD
ROOT
HETATM    1  C   UNL     1     -11.759  15.726  69.279  1.00  0.00    -0.384 C  
HETATM    2  C   UNL     1     -11.709  15.301  70.735  1.00  0.00    -0.377 C  
ENDROOT
BRANCH   2   3
HETATM    3  C   UNL     1     -13.047  15.541  71.424  1.00  0.00    -0.580 C  
BRANCH   3   4
HETATM    4  C   UNL     1     -13.541  14.277  72.126  1.00  0.00    -0.546 C  
BRANCH   4   5
HETATM    5  C   UNL     1     -12.974  13.050  71.425  1.00  0.00    -0.373 C  
BRANCH   5   6
HETATM    6  C   UNL     1     -13.409  11.756  72.046  1.00  0.00    -0.417 C  
HETATM    7  C   UNL     1     -12.996  10.564  71.586  1.00  0.00    -0.581 C  
BRANCH   7   8
HETATM    8  C   UNL     1     -12.090  10.387  70.405  1.00  0.00    -0.402 C  
BRANCH   8   9
HETATM    9  C   UNL     1     -10.760   9.822  70.801  1.00  0.00    -0.393 C  
HETATM   10  C   UNL     1     -10.468   8.514  70.842  1.00  0.00    -0.248 C  
BRANCH  10  11
HETATM   11  C   UNL     1     -11.449   7.409  70.593  1.00  0.00    -0.307 C  
BRANCH  11  12
HETATM   12  C   UNL     1     -11.958   6.821  71.879  1.00  0.00    -0.374 C  
HETATM   13  C   UNL     1     -11.534   5.664  72.412  1.00  0.00    -0.309 C  
BRANCH  13  14
HETATM   14  C   UNL     1     -10.493   4.813  71.752  1.00  0.00    -0.182 C  
BRANCH  14  15
HETATM   15  C   UNL     1      -9.085   5.037  72.289  1.00  0.00    -0.145 C  
BRANCH  15  16
HETATM   16  C   UNL     1      -8.134   5.284  71.117  1.00  0.00    -0.109 C  
BRANCH  16  17
HETATM   17  C   UNL     1      -8.863   5.215  69.783  1.00  0.00    -0.130 C  
HETATM   18  C   UNL     1      -8.159   4.300  68.811  1.00  0.00    -0.072 C  
HETATM   19  O   UNL     1      -7.129   3.681  69.036  1.00  0.00    -0.048 OA 
HETATM   20  O   UNL     1      -8.799   4.229  67.620  1.00  0.00    -0.104 OA 
ENDBRANCH  16  17
ENDBRANCH  15  16
ENDBRANCH  14  15
ENDBRANCH  13  14
ENDBRANCH  11  12
ENDBRANCH  10  11
ENDBRANCH   8   9
ENDBRANCH   7   8
ENDBRANCH   5   6
ENDBRANCH   4   5
ENDBRANCH   3   4
ENDBRANCH   2   3
TORSDOF 12
ENDMDL
MODEL      303
REMARK 921   NORMALIZED FREE ENERGY PREDICTED BY IDOCK:   -3.26 KCAL/MOL
REMARK 922        TOTAL FREE ENERGY PREDICTED BY IDOCK:   -7.49 KCAL/MOL
REMARK 923 INTER-LIGAND FREE ENERGY PREDICTED BY IDOCK:   -5.87 KCAL/MOL
REMARK 924 INTRA-LIGAND FREE ENERGY PREDICTED BY IDOCK:   -1.62 KCAL/MOL
REMARK 927      BINDING AFFINITY PREDICTED BY RF-SCORE:    0.00 PKD
ROOT
HETATM    1  C   UNL     1     -10.871  10.276  67.971  1.00  0.00    -0.325 C  
HETATM    2  C   UNL     1     -10.392   9.242  66.968  1.00  0.00    -0.325 C  
ENDROOT
BRANCH   2   3
HETATM    3  C   UNL     1     -10.418   7.842  67.568  1.00  0.00    -0.338 C  
BRANCH   3   4
HETATM    4  C   UNL     1      -9.825   6.817  66.602  1.00  0.00    -0.214 C  
BRANCH   4   5
HETATM    5  C   UNL     1     -10.644   5.535  66.653  1.00  0.00    -0.365 C  
BRANCH   5   6
HETATM    6  C   UNL     1     -10.078   4.432  65.809  1.00  0.00    -0.262 C  
HETATM    7  C   UNL     1      -9.096   3.626  66.243  1.00  0.00    -0.157 C  
BRANCH   7   8
HETATM    8  C   UNL     1      -8.444   3.746  67.587  1.00  0.00    -0.104 C  
BRANCH   8   9
HETATM    9  C   UNL     1      -9.139   2.918  68.622  1.00  0.00    -0.213 C  
HETATM   10  C   UNL     1      -9.628   3.392  69.778  1.00  0.00    -0.180 C  
BRANCH  10  11
HETATM   11  C   UNL     1      -9.471   4.802  70.260  1.00  0.00    -0.243 C  
BRANCH  11  12
HETATM   12  C   UNL     1      -8.967   4.851  71.675  1.00  0.00    -0.161 C  
HETATM   13  C   UNL     1      -9.654   5.348  72.716  1.00  0.00    -0.165 C  
BRANCH  13  14
HETATM   14  C   UNL     1     -11.025   5.932  72.562  1.00  0.00    -0.307 C  
BRANCH  14  15
HETATM   15  C   UNL     1     -11.074   7.442  72.751  1.00  0.00    -0.394 C  
BRANCH  15  16
HETATM   16  C   UNL     1     -11.410   8.105  71.415  1.00  0.00    -0.299 C  
BRANCH  16  17
HETATM   17  C   UNL     1     -11.627   9.602  71.573  1.00  0.00    -0.451 C  
HETATM   18  C   UNL     1     -13.071   9.927  71.872  1.00  0.00    -0.459 C  
HETATM   19  O   UNL     1     -13.976   9.112  71.976  1.00  0.00    -0.402 OA 
HETATM   20  O   UNL     1     -13.277  11.257  72.016  1.00  0.00    -0.506 OA 
ENDBRANCH  16  17
ENDBRANCH  15  16
ENDBRANCH  14  15
ENDBRANCH  13  14
ENDBRANCH  11  12
ENDBRANCH  10  11
ENDBRANCH   8   9
ENDBRANCH   7   8
ENDBRANCH   5   6
ENDBRANCH   4   5
ENDBRANCH   3   4
ENDBRANCH   2   3
TORSDOF 12
ENDMDL
MODEL      304
REMARK 921   NORMALIZED FREE ENERGY PREDICTED BY IDOCK:   -3.25 KCAL/MOL
REMARK 922        TOTAL FREE ENERGY PREDICTED BY IDOCK:   -7.49 KCAL/MOL
REMARK 923 INTER-LIGAND FREE ENERGY PREDICTED BY IDOCK:   -6.00 KCAL/MOL
REMARK 924 INTRA-LIGAND FREE ENERGY PREDICTED BY IDOCK:   -1.48 KCAL/MOL
REMARK 927      BINDING AFFINITY PREDICTED BY RF-SCORE:    0.00 PKD
ROOT
HETATM    1  C   UNL     1      -9.691   6.486  72.454  1.00  0.00    -0.158 C  
HETATM    2  C   UNL     1     -10.233   6.404  71.038  1.00  0.00    -0.227 C  
ENDROOT
BRANCH   2   3
HETATM    3  C   UNL     1     -10.710   7.767  70.552  1.00  0.00    -0.238 C  
BRANCH   3   4
HETATM    4  C   UNL     1      -9.563   8.563  69.930  1.00  0.00    -0.171 C  
BRANCH   4   5
HETATM    5  C   UNL     1      -9.671   8.512  68.412  1.00  0.00    -0.169 C  
BRANCH   5   6
HETATM    6  C   UNL     1     -10.695   9.456  67.856  1.00  0.00    -0.269 C  
HETATM    7  C   UNL     1     -10.549  10.789  67.911  1.00  0.00    -0.258 C  
BRANCH   7   8
HETATM    8  C   UNL     1      -9.380  11.480  68.546  1.00  0.00    -0.171 C  
BRANCH   8   9
HETATM    9  C   UNL     1      -8.303  11.784  67.552  1.00  0.00    -0.154 C  
HETATM   10  C   UNL     1      -7.904  13.019  67.211  1.00  0.00    -0.132 C  
BRANCH  10  11
HETATM   11  C   UNL     1      -8.537  14.288  67.697  1.00  0.00    -0.186 C  
BRANCH  11  12
HETATM   12  C   UNL     1      -9.000  15.148  66.555  1.00  0.00    -0.326 C  
HETATM   13  C   UNL     1     -10.228  15.679  66.445  1.00  0.00    -0.300 C  
BRANCH  13  14
HETATM   14  C   UNL     1     -11.293  15.450  67.473  1.00  0.00    -0.269 C  
BRANCH  14  15
HETATM   15  C   UNL     1     -11.984  14.098  67.351  1.00  0.00    -0.439 C  
BRANCH  15  16
HETATM   16  C   UNL     1     -12.536  13.943  65.933  1.00  0.00    -0.519 C  
BRANCH  16  17
HETATM   17  C   UNL     1     -11.997  12.690  65.259  1.00  0.00    -0.487 C  
HETATM   18  C   UNL     1     -11.962  12.836  63.757  1.00  0.00    -0.510 C  
HETATM   19  O   UNL     1     -12.318  13.824  63.131  1.00  0.00    -0.726 OA 
HETATM   20  O   UNL     1     -11.484  11.728  63.146  1.00  0.00    -0.290 OA 
ENDBRANCH  16  17
ENDBRANCH  15  16
ENDBRANCH  14  15
ENDBRANCH  13  14
ENDBRANCH  11  12
ENDBRANCH  10  11
ENDBRANCH   8   9
ENDBRANCH   7   8
ENDBRANCH   5   6
ENDBRANCH   4   5
ENDBRANCH   3   4
ENDBRANCH   2   3
TORSDOF 12
ENDMDL
MODEL      305
REMARK 921   NORMALIZED FREE ENERGY PREDICTED BY IDOCK:   -3.25 KCAL/MOL
REMARK 922        TOTAL FREE ENERGY PREDICTED BY IDOCK:   -7.48 KCAL/MOL
REMARK 923 INTER-LIGAND FREE ENERGY PREDICTED BY IDOCK:   -6.50 KCAL/MOL
REMARK 924 INTRA-LIGAND FREE ENERGY PREDICTED BY IDOCK:   -0.98 KCAL/MOL
REMARK 927      BINDING AFFINITY PREDICTED BY RF-SCORE:    0.00 PKD
ROOT
HETATM    1  C   UNL     1      -6.370  20.142  67.942  1.00  0.00    -0.276 C  
HETATM    2  C   UNL     1      -7.675  20.645  67.351  1.00  0.00    -0.355 C  
ENDROOT
BRANCH   2   3
HETATM    3  C   UNL     1      -8.118  19.778  66.178  1.00  0.00    -0.357 C  
BRANCH   3   4
HETATM    4  C   UNL     1      -9.626  19.878  65.956  1.00  0.00    -0.435 C  
BRANCH   4   5
HETATM    5  C   UNL     1     -10.283  18.553  66.316  1.00  0.00    -0.446 C  
BRANCH   5   6
HETATM    6  C   UNL     1     -10.572  18.411  67.781  1.00  0.00    -0.419 C  
HETATM    7  C   UNL     1     -10.587  17.219  68.399  1.00  0.00    -0.368 C  
BRANCH   7   8
HETATM    8  C   UNL     1     -10.346  15.911  67.706  1.00  0.00    -0.278 C  
BRANCH   8   9
HETATM    9  C   UNL     1     -11.021  14.774  68.408  1.00  0.00    -0.259 C  
HETATM   10  C   UNL     1     -11.832  13.884  67.816  1.00  0.00    -0.415 C  
BRANCH  10  11
HETATM   11  C   UNL     1     -12.266  13.943  66.383  1.00  0.00    -0.487 C  
BRANCH  11  12
HETATM   12  C   UNL     1     -11.093  14.099  65.456  1.00  0.00    -0.310 C  
HETATM   13  C   UNL     1     -10.373  13.084  64.953  1.00  0.00    -0.343 C  
BRANCH  13  14
HETATM   14  C   UNL     1     -10.668  11.653  65.287  1.00  0.00    -0.346 C  
BRANCH  14  15
HETATM   15  C   UNL     1      -9.896  11.132  66.492  1.00  0.00    -0.242 C  
BRANCH  15  16
HETATM   16  C   UNL     1     -10.703  10.018  67.161  1.00  0.00    -0.279 C  
BRANCH  16  17
HETATM   17  C   UNL     1     -10.849  10.256  68.657  1.00  0.00    -0.272 C  
HETATM   18  C   UNL     1      -9.951   9.343  69.456  1.00  0.00    -0.191 C  
HETATM   19  O   UNL     1      -9.193   8.506  68.990  1.00  0.00    -0.146 OA 
HETATM   20  O   UNL     1     -10.071   9.546  70.789  1.00  0.00    -0.279 OA 
ENDBRANCH  16  17
ENDBRANCH  15  16
ENDBRANCH  14  15
ENDBRANCH  13  14
ENDBRANCH  11  12
ENDBRANCH  10  11
ENDBRANCH   8   9
ENDBRANCH   7   8
ENDBRANCH   5   6
ENDBRANCH   4   5
ENDBRANCH   3   4
ENDBRANCH   2   3
TORSDOF 12
ENDMDL
MODEL      306
REMARK 921   NORMALIZED FREE ENERGY PREDICTED BY IDOCK:   -3.24 KCAL/MOL
REMARK 922        TOTAL FREE ENERGY PREDICTED BY IDOCK:   -7.47 KCAL/MOL
REMARK 923 INTER-LIGAND FREE ENERGY PREDICTED BY IDOCK:   -6.13 KCAL/MOL
REMARK 924 INTRA-LIGAND FREE ENERGY PREDICTED BY IDOCK:   -1.34 KCAL/MOL
REMARK 927      BINDING AFFINITY PREDICTED BY RF-SCORE:    0.00 PKD
ROOT
HETATM    1  C   UNL     1     -10.007  15.507  68.729  1.00  0.00    -0.214 C  
HETATM    2  C   UNL     1     -10.666  16.068  67.481  1.00  0.00    -0.314 C  
ENDROOT
BRANCH   2   3
HETATM    3  C   UNL     1      -9.934  15.616  66.223  1.00  0.00    -0.315 C  
BRANCH   3   4
HETATM    4  C   UNL     1     -10.910  15.369  65.074  1.00  0.00    -0.462 C  
BRANCH   4   5
HETATM    5  C   UNL     1     -10.867  13.901  64.674  1.00  0.00    -0.420 C  
BRANCH   5   6
HETATM    6  C   UNL     1     -12.177  13.194  64.861  1.00  0.00    -0.477 C  
HETATM    7  C   UNL     1     -12.404  12.362  65.890  1.00  0.00    -0.028 C  
BRANCH   7   8
HETATM    8  C   UNL     1     -11.387  12.026  66.939  1.00  0.00    -0.400 C  
BRANCH   8   9
HETATM    9  C   UNL     1     -11.735  12.627  68.266  1.00  0.00    -0.389 C  
HETATM   10  C   UNL     1     -11.494  12.049  69.453  1.00  0.00    -0.361 C  
BRANCH  10  11
HETATM   11  C   UNL     1     -10.927  10.673  69.636  1.00  0.00    -0.331 C  
BRANCH  11  12
HETATM   12  C   UNL     1     -11.374  10.059  70.933  1.00  0.00    -0.439 C  
HETATM   13  C   UNL     1     -11.433   8.740  71.175  1.00  0.00    -0.344 C  
BRANCH  13  14
HETATM   14  C   UNL     1     -11.060   7.720  70.143  1.00  0.00    -0.216 C  
BRANCH  14  15
HETATM   15  C   UNL     1     -11.315   6.283  70.578  1.00  0.00    -0.428 C  
BRANCH  15  16
HETATM   16  C   UNL     1     -10.418   5.347  69.767  1.00  0.00    -0.378 C  
BRANCH  16  17
HETATM   17  C   UNL     1      -9.909   6.021  68.501  1.00  0.00    -0.156 C  
HETATM   18  C   UNL     1      -9.661   5.019  67.399  1.00  0.00    -0.158 C  
HETATM   19  O   UNL     1      -9.836   3.813  67.483  1.00  0.00    -0.146 OA 
HETATM   20  O   UNL     1      -9.208   5.607  66.267  1.00  0.00    -0.150 OA 
ENDBRANCH  16  17
ENDBRANCH  15  16
ENDBRANCH  14  15
ENDBRANCH  13  14
ENDBRANCH  11  12
ENDBRANCH  10  11
ENDBRANCH   8   9
ENDBRANCH   7   8
ENDBRANCH   5   6
ENDBRANCH   4   5
ENDBRANCH   3   4
ENDBRANCH   2   3
TORSDOF 12
ENDMDL
MODEL      307
REMARK 921   NORMALIZED FREE ENERGY PREDICTED BY IDOCK:   -3.24 KCAL/MOL
REMARK 922        TOTAL FREE ENERGY PREDICTED BY IDOCK:   -7.46 KCAL/MOL
REMARK 923 INTER-LIGAND FREE ENERGY PREDICTED BY IDOCK:   -6.07 KCAL/MOL
REMARK 924 INTRA-LIGAND FREE ENERGY PREDICTED BY IDOCK:   -1.39 KCAL/MOL
REMARK 927      BINDING AFFINITY PREDICTED BY RF-SCORE:    0.00 PKD
ROOT
HETATM    1  C   UNL     1     -10.094  19.694  68.838  1.00  0.00    -0.491 C  
HETATM    2  C   UNL     1      -9.193  19.346  67.666  1.00  0.00    -0.375 C  
ENDROOT
BRANCH   2   3
HETATM    3  C   UNL     1      -9.835  19.742  66.342  1.00  0.00    -0.556 C  
BRANCH   3   4
HETATM    4  C   UNL     1     -10.671  18.597  65.771  1.00  0.00    -0.224 C  
BRANCH   4   5
HETATM    5  C   UNL     1     -10.068  17.265  66.194  1.00  0.00    -0.312 C  
BRANCH   5   6
HETATM    6  C   UNL     1     -10.575  16.101  65.395  1.00  0.00    -0.399 C  
HETATM    7  C   UNL     1     -11.186  15.050  65.965  1.00  0.00    -0.310 C  
BRANCH   7   8
HETATM    8  C   UNL     1     -11.409  14.906  67.440  1.00  0.00    -0.354 C  
BRANCH   8   9
HETATM    9  C   UNL     1     -10.276  14.191  68.109  1.00  0.00    -0.241 C  
HETATM   10  C   UNL     1     -10.282  12.891  68.440  1.00  0.00    -0.238 C  
BRANCH  10  11
HETATM   11  C   UNL     1     -11.456  11.973  68.281  1.00  0.00    -0.361 C  
BRANCH  11  12
HETATM   12  C   UNL     1     -12.010  11.548  69.612  1.00  0.00    -0.407 C  
HETATM   13  C   UNL     1     -11.486  10.585  70.388  1.00  0.00    -0.427 C  
BRANCH  13  14
HETATM   14  C   UNL     1     -10.270   9.808  69.985  1.00  0.00    -0.308 C  
BRANCH  14  15
HETATM   15  C   UNL     1     -10.585   8.498  69.276  1.00  0.00    -0.193 C  
BRANCH  15  16
HETATM   16  C   UNL     1      -9.454   8.172  68.300  1.00  0.00    -0.148 C  
BRANCH  16  17
HETATM   17  C   UNL     1      -8.769   9.434  67.797  1.00  0.00    -0.116 C  
HETATM   18  C   UNL     1      -9.217   9.793  66.401  1.00  0.00    -0.160 C  
HETATM   19  O   UNL     1     -10.024   9.166  65.731  1.00  0.00    -0.277 OA 
HETATM   20  O   UNL     1      -8.615  10.915  65.943  1.00  0.00    -0.172 OA 
ENDBRANCH  16  17
ENDBRANCH  15  16
ENDBRANCH  14  15
ENDBRANCH  13  14
ENDBRANCH  11  12
ENDBRANCH  10  11
ENDBRANCH   8   9
ENDBRANCH   7   8
ENDBRANCH   5   6
ENDBRANCH   4   5
ENDBRANCH   3   4
ENDBRANCH   2   3
TORSDOF 12
ENDMDL
MODEL      308
REMARK 921   NORMALIZED FREE ENERGY PREDICTED BY IDOCK:   -3.23 KCAL/MOL
REMARK 922        TOTAL FREE ENERGY PREDICTED BY IDOCK:   -7.45 KCAL/MOL
REMARK 923 INTER-LIGAND FREE ENERGY PREDICTED BY IDOCK:   -5.11 KCAL/MOL
REMARK 924 INTRA-LIGAND FREE ENERGY PREDICTED BY IDOCK:   -2.34 KCAL/MOL
REMARK 927      BINDING AFFINITY PREDICTED BY RF-SCORE:    0.00 PKD
ROOT
HETATM    1  C   UNL     1      -9.614   7.329  68.791  1.00  0.00    -0.142 C  
HETATM    2  C   UNL     1      -9.010   8.528  68.082  1.00  0.00    -0.142 C  
ENDROOT
BRANCH   2   3
HETATM    3  C   UNL     1     -10.082   9.548  67.715  1.00  0.00    -0.244 C  
BRANCH   3   4
HETATM    4  C   UNL     1     -10.278   9.622  66.202  1.00  0.00    -0.276 C  
BRANCH   4   5
HETATM    5  C   UNL     1      -9.353  10.681  65.619  1.00  0.00    -0.239 C  
BRANCH   5   6
HETATM    6  C   UNL     1      -9.073  10.488  64.158  1.00  0.00    -0.258 C  
HETATM    7  C   UNL     1      -9.611  11.275  63.213  1.00  0.00    -0.373 C  
BRANCH   7   8
HETATM    8  C   UNL     1     -10.557  12.402  63.497  1.00  0.00    -0.451 C  
BRANCH   8   9
HETATM    9  C   UNL     1     -11.973  11.929  63.608  1.00  0.00    -0.578 C  
HETATM   10  C   UNL     1     -12.858  12.373  64.514  1.00  0.00    -0.305 C  
BRANCH  10  11
HETATM   11  C   UNL     1     -12.543  13.338  65.617  1.00  0.00    -0.469 C  
BRANCH  11  12
HETATM   12  C   UNL     1     -12.138  12.625  66.877  1.00  0.00    -0.213 C  
HETATM   13  C   UNL     1     -11.204  13.061  67.737  1.00  0.00    -0.313 C  
BRANCH  13  14
HETATM   14  C   UNL     1     -10.442  14.331  67.512  1.00  0.00    -0.252 C  
BRANCH  14  15
HETATM   15  C   UNL     1      -9.226  14.166  66.610  1.00  0.00    -0.272 C  
BRANCH  15  16
HETATM   16  C   UNL     1      -7.961  14.163  67.468  1.00  0.00    -0.202 C  
BRANCH  16  17
HETATM   17  C   UNL     1      -8.024  13.096  68.551  1.00  0.00    -0.094 C  
HETATM   18  C   UNL     1      -6.913  12.085  68.402  1.00  0.00    -0.080 C  
HETATM   19  O   UNL     1      -6.057  12.093  67.529  1.00  0.00    -0.092 OA 
HETATM   20  O   UNL     1      -6.958  11.131  69.360  1.00  0.00    -0.112 OA 
ENDBRANCH  16  17
ENDBRANCH  15  16
ENDBRANCH  14  15
ENDBRANCH  13  14
ENDBRANCH  11  12
ENDBRANCH  10  11
ENDBRANCH   8   9
ENDBRANCH   7   8
ENDBRANCH   5   6
ENDBRANCH   4   5
ENDBRANCH   3   4
ENDBRANCH   2   3
TORSDOF 12
ENDMDL
MODEL      309
REMARK 921   NORMALIZED FREE ENERGY PREDICTED BY IDOCK:   -3.22 KCAL/MOL
REMARK 922        TOTAL FREE ENERGY PREDICTED BY IDOCK:   -7.44 KCAL/MOL
REMARK 923 INTER-LIGAND FREE ENERGY PREDICTED BY IDOCK:   -5.32 KCAL/MOL
REMARK 924 INTRA-LIGAND FREE ENERGY PREDICTED BY IDOCK:   -2.12 KCAL/MOL
REMARK 927      BINDING AFFINITY PREDICTED BY RF-SCORE:    0.00 PKD
ROOT
HETATM    1  C   UNL     1      -7.926   9.939  65.478  1.00  0.00    -0.128 C  
HETATM    2  C   UNL     1      -9.150  10.837  65.461  1.00  0.00    -0.220 C  
ENDROOT
BRANCH   2   3
HETATM    3  C   UNL     1      -8.970  12.028  66.395  1.00  0.00    -0.161 C  
BRANCH   3   4
HETATM    4  C   UNL     1      -8.699  11.570  67.827  1.00  0.00    -0.142 C  
BRANCH   4   5
HETATM    5  C   UNL     1      -9.988  11.635  68.636  1.00  0.00    -0.192 C  
BRANCH   5   6
HETATM    6  C   UNL     1     -11.048  12.484  67.999  1.00  0.00    -0.285 C  
HETATM    7  C   UNL     1     -12.028  13.063  68.710  1.00  0.00    -0.302 C  
BRANCH   7   8
HETATM    8  C   UNL     1     -12.192  12.912  70.192  1.00  0.00    -0.336 C  
BRANCH   8   9
HETATM    9  C   UNL     1     -12.997  14.029  70.783  1.00  0.00    -0.298 C  
HETATM   10  C   UNL     1     -12.519  15.253  71.055  1.00  0.00    -0.444 C  
BRANCH  10  11
HETATM   11  C   UNL     1     -11.087  15.667  70.903  1.00  0.00    -0.377 C  
BRANCH  11  12
HETATM   12  C   UNL     1     -10.826  16.268  69.550  1.00  0.00    -0.342 C  
HETATM   13  C   UNL     1      -9.643  16.245  68.917  1.00  0.00    -0.243 C  
BRANCH  13  14
HETATM   14  C   UNL     1      -8.427  15.611  69.520  1.00  0.00    -0.182 C  
BRANCH  14  15
HETATM   15  C   UNL     1      -7.465  15.026  68.493  1.00  0.00    -0.119 C  
BRANCH  15  16
HETATM   16  C   UNL     1      -7.862  15.513  67.100  1.00  0.00    -0.256 C  
BRANCH  16  17
HETATM   17  C   UNL     1      -6.904  16.579  66.588  1.00  0.00    -0.161 C  
HETATM   18  C   UNL     1      -7.643  17.742  65.971  1.00  0.00    -0.220 C  
HETATM   19  O   UNL     1      -8.858  17.843  65.877  1.00  0.00    -0.506 OA 
HETATM   20  O   UNL     1      -6.802  18.698  65.513  1.00  0.00    -0.403 OA 
ENDBRANCH  16  17
ENDBRANCH  15  16
ENDBRANCH  14  15
ENDBRANCH  13  14
ENDBRANCH  11  12
ENDBRANCH  10  11
ENDBRANCH   8   9
ENDBRANCH   7   8
ENDBRANCH   5   6
ENDBRANCH   4   5
ENDBRANCH   3   4
ENDBRANCH   2   3
TORSDOF 12
ENDMDL
MODEL      310
REMARK 921   NORMALIZED FREE ENERGY PREDICTED BY IDOCK:   -3.22 KCAL/MOL
REMARK 922        TOTAL FREE ENERGY PREDICTED BY IDOCK:   -7.43 KCAL/MOL
REMARK 923 INTER-LIGAND FREE ENERGY PREDICTED BY IDOCK:   -5.36 KCAL/MOL
REMARK 924 INTRA-LIGAND FREE ENERGY PREDICTED BY IDOCK:   -2.07 KCAL/MOL
REMARK 927      BINDING AFFINITY PREDICTED BY RF-SCORE:    0.00 PKD
ROOT
HETATM    1  C   UNL     1      -8.461  14.907  68.355  1.00  0.00    -0.153 C  
HETATM    2  C   UNL     1      -9.907  15.199  68.712  1.00  0.00    -0.223 C  
ENDROOT
BRANCH   2   3
HETATM    3  C   UNL     1     -10.754  15.395  67.460  1.00  0.00    -0.295 C  
BRANCH   3   4
HETATM    4  C   UNL     1      -9.921  15.198  66.194  1.00  0.00    -0.317 C  
BRANCH   4   5
HETATM    5  C   UNL     1     -10.808  15.364  64.969  1.00  0.00    -0.462 C  
BRANCH   5   6
HETATM    6  C   UNL     1     -12.003  14.456  64.971  1.00  0.00    -0.413 C  
HETATM    7  C   UNL     1     -11.996  13.257  64.368  1.00  0.00    -0.459 C  
BRANCH   7   8
HETATM    8  C   UNL     1     -10.825  12.703  63.614  1.00  0.00    -0.437 C  
BRANCH   8   9
HETATM    9  C   UNL     1     -10.697  11.221  63.787  1.00  0.00    -0.448 C  
HETATM   10  C   UNL     1     -10.282  10.616  64.910  1.00  0.00    -0.395 C  
BRANCH  10  11
HETATM   11  C   UNL     1      -9.789  11.328  66.133  1.00  0.00    -0.262 C  
BRANCH  11  12
HETATM   12  C   UNL     1     -10.861  11.436  67.181  1.00  0.00    -0.316 C  
HETATM   13  C   UNL     1     -10.979  10.624  68.243  1.00  0.00    -0.314 C  
BRANCH  13  14
HETATM   14  C   UNL     1     -10.034   9.488  68.489  1.00  0.00    -0.184 C  
BRANCH  14  15
HETATM   15  C   UNL     1     -10.605   8.123  68.129  1.00  0.00    -0.168 C  
BRANCH  15  16
HETATM   16  C   UNL     1      -9.536   7.308  67.401  1.00  0.00    -0.176 C  
BRANCH  16  17
HETATM   17  C   UNL     1      -8.264   8.116  67.193  1.00  0.00    -0.120 C  
HETATM   18  C   UNL     1      -7.169   7.684  68.138  1.00  0.00    -0.093 C  
HETATM   19  O   UNL     1      -7.263   6.801  68.978  1.00  0.00    -0.085 OA 
HETATM   20  O   UNL     1      -6.031   8.395  67.962  1.00  0.00    -0.041 OA 
ENDBRANCH  16  17
ENDBRANCH  15  16
ENDBRANCH  14  15
ENDBRANCH  13  14
ENDBRANCH  11  12
ENDBRANCH  10  11
ENDBRANCH   8   9
ENDBRANCH   7   8
ENDBRANCH   5   6
ENDBRANCH   4   5
ENDBRANCH   3   4
ENDBRANCH   2   3
TORSDOF 12
ENDMDL
MODEL      311
REMARK 921   NORMALIZED FREE ENERGY PREDICTED BY IDOCK:   -3.21 KCAL/MOL
REMARK 922        TOTAL FREE ENERGY PREDICTED BY IDOCK:   -7.41 KCAL/MOL
REMARK 923 INTER-LIGAND FREE ENERGY PREDICTED BY IDOCK:   -6.17 KCAL/MOL
REMARK 924 INTRA-LIGAND FREE ENERGY PREDICTED BY IDOCK:   -1.24 KCAL/MOL
REMARK 927      BINDING AFFINITY PREDICTED BY RF-SCORE:    0.00 PKD
ROOT
HETATM    1  C   UNL     1      -5.940   9.780  70.056  1.00  0.00    -0.046 C  
HETATM    2  C   UNL     1      -6.209   9.645  68.568  1.00  0.00    -0.047 C  
ENDROOT
BRANCH   2   3
HETATM    3  C   UNL     1      -6.690   8.241  68.221  1.00  0.00    -0.065 C  
BRANCH   3   4
HETATM    4  C   UNL     1      -7.163   8.161  66.771  1.00  0.00    -0.082 C  
BRANCH   4   5
HETATM    5  C   UNL     1      -7.946   9.419  66.420  1.00  0.00    -0.108 C  
BRANCH   5   6
HETATM    6  C   UNL     1      -9.432   9.211  66.411  1.00  0.00    -0.288 C  
HETATM    7  C   UNL     1     -10.270  10.042  65.770  1.00  0.00    -0.270 C  
BRANCH   7   8
HETATM    8  C   UNL     1      -9.831  11.266  65.023  1.00  0.00    -0.307 C  
BRANCH   8   9
HETATM    9  C   UNL     1     -10.582  11.436  63.739  1.00  0.00    -0.464 C  
HETATM   10  C   UNL     1     -11.701  12.163  63.599  1.00  0.00    -0.588 C  
BRANCH  10  11
HETATM   11  C   UNL     1     -12.428  12.840  64.721  1.00  0.00    -0.539 C  
BRANCH  11  12
HETATM   12  C   UNL     1     -12.047  14.290  64.832  1.00  0.00    -0.442 C  
HETATM   13  C   UNL     1     -11.432  14.841  65.891  1.00  0.00    -0.319 C  
BRANCH  13  14
HETATM   14  C   UNL     1     -11.068  14.045  67.107  1.00  0.00    -0.313 C  
BRANCH  14  15
HETATM   15  C   UNL     1     -11.081  14.853  68.397  1.00  0.00    -0.282 C  
BRANCH  15  16
HETATM   16  C   UNL     1     -12.044  14.200  69.389  1.00  0.00    -0.372 C  
BRANCH  16  17
HETATM   17  C   UNL     1     -12.652  15.226  70.334  1.00  0.00    -0.421 C  
HETATM   18  C   UNL     1     -13.219  14.574  71.573  1.00  0.00    -0.358 C  
HETATM   19  O   UNL     1     -13.209  13.376  71.813  1.00  0.00    -0.385 OA 
HETATM   20  O   UNL     1     -13.763  15.477  72.422  1.00  0.00    -0.477 OA 
ENDBRANCH  16  17
ENDBRANCH  15  16
ENDBRANCH  14  15
ENDBRANCH  13  14
ENDBRANCH  11  12
ENDBRANCH  10  11
ENDBRANCH   8   9
ENDBRANCH   7   8
ENDBRANCH   5   6
ENDBRANCH   4   5
ENDBRANCH   3   4
ENDBRANCH   2   3
TORSDOF 12
ENDMDL
MODEL      312
REMARK 921   NORMALIZED FREE ENERGY PREDICTED BY IDOCK:   -3.21 KCAL/MOL
REMARK 922        TOTAL FREE ENERGY PREDICTED BY IDOCK:   -7.41 KCAL/MOL
REMARK 923 INTER-LIGAND FREE ENERGY PREDICTED BY IDOCK:   -6.03 KCAL/MOL
REMARK 924 INTRA-LIGAND FREE ENERGY PREDICTED BY IDOCK:   -1.38 KCAL/MOL
REMARK 927      BINDING AFFINITY PREDICTED BY RF-SCORE:    0.00 PKD
ROOT
HETATM    1  C   UNL     1     -11.980  12.947  63.425  1.00  0.00    -0.612 C  
HETATM    2  C   UNL     1     -12.136  14.238  64.207  1.00  0.00    -0.467 C  
ENDROOT
BRANCH   2   3
HETATM    3  C   UNL     1     -12.559  13.962  65.645  1.00  0.00    -0.553 C  
BRANCH   3   4
HETATM    4  C   UNL     1     -11.524  14.492  66.636  1.00  0.00    -0.373 C  
BRANCH   4   5
HETATM    5  C   UNL     1     -11.153  13.393  67.623  1.00  0.00    -0.288 C  
BRANCH   5   6
HETATM    6  C   UNL     1     -11.561  12.023  67.169  1.00  0.00    -0.387 C  
HETATM    7  C   UNL     1     -11.386  10.932  67.931  1.00  0.00    -0.380 C  
BRANCH   7   8
HETATM    8  C   UNL     1     -10.753  10.949  69.289  1.00  0.00    -0.271 C  
BRANCH   8   9
HETATM    9  C   UNL     1      -9.297  10.601  69.233  1.00  0.00    -0.136 C  
HETATM   10  C   UNL     1      -8.799   9.368  69.407  1.00  0.00    -0.159 C  
BRANCH  10  11
HETATM   11  C   UNL     1      -9.607   8.163  69.781  1.00  0.00    -0.171 C  
BRANCH  11  12
HETATM   12  C   UNL     1      -9.663   7.164  68.659  1.00  0.00    -0.141 C  
HETATM   13  C   UNL     1      -9.394   5.855  68.785  1.00  0.00    -0.133 C  
BRANCH  13  14
HETATM   14  C   UNL     1      -8.988   5.245  70.091  1.00  0.00    -0.156 C  
BRANCH  14  15
HETATM   15  C   UNL     1     -10.130   4.565  70.834  1.00  0.00    -0.228 C  
BRANCH  15  16
HETATM   16  C   UNL     1     -10.474   5.381  72.081  1.00  0.00    -0.273 C  
BRANCH  16  17
HETATM   17  C   UNL     1     -11.703   6.250  71.857  1.00  0.00    -0.370 C  
HETATM   18  C   UNL     1     -11.605   7.556  72.608  1.00  0.00    -0.282 C  
HETATM   19  O   UNL     1     -10.670   7.900  73.317  1.00  0.00    -0.341 OA 
HETATM   20  O   UNL     1     -12.691   8.340  72.416  1.00  0.00    -0.312 OA 
ENDBRANCH  16  17
ENDBRANCH  15  16
ENDBRANCH  14  15
ENDBRANCH  13  14
ENDBRANCH  11  12
ENDBRANCH  10  11
ENDBRANCH   8   9
ENDBRANCH   7   8
ENDBRANCH   5   6
ENDBRANCH   4   5
ENDBRANCH   3   4
ENDBRANCH   2   3
TORSDOF 12
ENDMDL
MODEL      313
REMARK 921   NORMALIZED FREE ENERGY PREDICTED BY IDOCK:   -3.19 KCAL/MOL
REMARK 922        TOTAL FREE ENERGY PREDICTED BY IDOCK:   -7.39 KCAL/MOL
REMARK 923 INTER-LIGAND FREE ENERGY PREDICTED BY IDOCK:   -5.86 KCAL/MOL
REMARK 924 INTRA-LIGAND FREE ENERGY PREDICTED BY IDOCK:   -1.53 KCAL/MOL
REMARK 927      BINDING AFFINITY PREDICTED BY RF-SCORE:    0.00 PKD
ROOT
HETATM    1  C   UNL     1     -10.405   9.466  71.350  1.00  0.00    -0.326 C  
HETATM    2  C   UNL     1     -10.028   8.180  70.637  1.00  0.00    -0.204 C  
ENDROOT
BRANCH   2   3
HETATM    3  C   UNL     1     -10.419   6.960  71.463  1.00  0.00    -0.231 C  
BRANCH   3   4
HETATM    4  C   UNL     1     -11.506   6.145  70.764  1.00  0.00    -0.321 C  
BRANCH   4   5
HETATM    5  C   UNL     1     -11.173   6.016  69.284  1.00  0.00    -0.367 C  
BRANCH   5   6
HETATM    6  C   UNL     1      -9.949   5.191  69.018  1.00  0.00    -0.265 C  
HETATM    7  C   UNL     1      -9.154   5.405  67.957  1.00  0.00    -0.114 C  
BRANCH   7   8
HETATM    8  C   UNL     1      -9.405   6.457  66.919  1.00  0.00    -0.150 C  
BRANCH   8   9
HETATM    9  C   UNL     1      -8.311   6.507  65.898  1.00  0.00    -0.140 C  
HETATM   10  C   UNL     1      -7.948   7.607  65.221  1.00  0.00    -0.129 C  
BRANCH  10  11
HETATM   11  C   UNL     1      -8.640   8.933  65.307  1.00  0.00    -0.209 C  
BRANCH  11  12
HETATM   12  C   UNL     1      -8.137   9.746  66.467  1.00  0.00    -0.116 C  
HETATM   13  C   UNL     1      -8.912  10.473  67.287  1.00  0.00    -0.145 C  
BRANCH  13  14
HETATM   14  C   UNL     1     -10.398  10.560  67.113  1.00  0.00    -0.285 C  
BRANCH  14  15
HETATM   15  C   UNL     1     -11.001  11.861  67.624  1.00  0.00    -0.286 C  
BRANCH  15  16
HETATM   16  C   UNL     1     -11.060  12.872  66.479  1.00  0.00    -0.318 C  
BRANCH  16  17
HETATM   17  C   UNL     1     -11.396  12.198  65.157  1.00  0.00    -0.379 C  
HETATM   18  C   UNL     1     -12.616  12.811  64.513  1.00  0.00    -0.389 C  
HETATM   19  O   UNL     1     -13.275  13.732  64.973  1.00  0.00    -0.733 OA 
HETATM   20  O   UNL     1     -12.924  12.220  63.335  1.00  0.00    -0.753 OA 
ENDBRANCH  16  17
ENDBRANCH  15  16
ENDBRANCH  14  15
ENDBRANCH  13  14
ENDBRANCH  11  12
ENDBRANCH  10  11
ENDBRANCH   8   9
ENDBRANCH   7   8
ENDBRANCH   5   6
ENDBRANCH   4   5
ENDBRANCH   3   4
ENDBRANCH   2   3
TORSDOF 12
ENDMDL
MODEL      314
REMARK 921   NORMALIZED FREE ENERGY PREDICTED BY IDOCK:   -3.19 KCAL/MOL
REMARK 922        TOTAL FREE ENERGY PREDICTED BY IDOCK:   -7.39 KCAL/MOL
REMARK 923 INTER-LIGAND FREE ENERGY PREDICTED BY IDOCK:   -6.07 KCAL/MOL
REMARK 924 INTRA-LIGAND FREE ENERGY PREDICTED BY IDOCK:   -1.32 KCAL/MOL
REMARK 927      BINDING AFFINITY PREDICTED BY RF-SCORE:    0.00 PKD
ROOT
HETATM    1  C   UNL     1     -12.982  10.935  71.540  1.00  0.00    -0.556 C  
HETATM    2  C   UNL     1     -12.719  12.411  71.302  1.00  0.00    -0.347 C  
ENDROOT
BRANCH   2   3
HETATM    3  C   UNL     1     -13.587  13.276  72.207  1.00  0.00    -0.703 C  
BRANCH   3   4
HETATM    4  C   UNL     1     -13.768  14.677  71.625  1.00  0.00    -0.500 C  
BRANCH   4   5
HETATM    5  C   UNL     1     -12.947  14.808  70.349  1.00  0.00    -0.269 C  
BRANCH   5   6
HETATM    6  C   UNL     1     -11.785  15.748  70.482  1.00  0.00    -0.400 C  
HETATM    7  C   UNL     1     -10.903  15.944  69.490  1.00  0.00    -0.305 C  
BRANCH   7   8
HETATM    8  C   UNL     1     -10.958  15.244  68.166  1.00  0.00    -0.292 C  
BRANCH   8   9
HETATM    9  C   UNL     1     -10.198  13.954  68.183  1.00  0.00    -0.249 C  
HETATM   10  C   UNL     1      -8.861  13.855  68.213  1.00  0.00    -0.185 C  
BRANCH  10  11
HETATM   11  C   UNL     1      -7.915  15.015  68.137  1.00  0.00    -0.131 C  
BRANCH  11  12
HETATM   12  C   UNL     1      -6.790  14.878  69.125  1.00  0.00    -0.132 C  
HETATM   13  C   UNL     1      -5.834  15.798  69.330  1.00  0.00    -0.118 C  
BRANCH  13  14
HETATM   14  C   UNL     1      -5.785  17.083  68.562  1.00  0.00    -0.139 C  
BRANCH  14  15
HETATM   15  C   UNL     1      -6.410  18.262  69.295  1.00  0.00    -0.259 C  
BRANCH  15  16
HETATM   16  C   UNL     1      -7.676  18.698  68.557  1.00  0.00    -0.342 C  
BRANCH  16  17
HETATM   17  C   UNL     1      -7.401  18.959  67.083  1.00  0.00    -0.222 C  
HETATM   18  C   UNL     1      -7.085  20.412  66.825  1.00  0.00    -0.269 C  
HETATM   19  O   UNL     1      -7.051  21.293  67.671  1.00  0.00    -0.425 OA 
HETATM   20  O   UNL     1      -6.838  20.656  65.517  1.00  0.00    -0.226 OA 
ENDBRANCH  16  17
ENDBRANCH  15  16
ENDBRANCH  14  15
ENDBRANCH  13  14
ENDBRANCH  11  12
ENDBRANCH  10  11
ENDBRANCH   8   9
ENDBRANCH   7   8
ENDBRANCH   5   6
ENDBRANCH   4   5
ENDBRANCH   3   4
ENDBRANCH   2   3
TORSDOF 12
ENDMDL
MODEL      315
REMARK 921   NORMALIZED FREE ENERGY PREDICTED BY IDOCK:   -3.18 KCAL/MOL
REMARK 922        TOTAL FREE ENERGY PREDICTED BY IDOCK:   -7.37 KCAL/MOL
REMARK 923 INTER-LIGAND FREE ENERGY PREDICTED BY IDOCK:   -5.26 KCAL/MOL
REMARK 924 INTRA-LIGAND FREE ENERGY PREDICTED BY IDOCK:   -2.11 KCAL/MOL
REMARK 927      BINDING AFFINITY PREDICTED BY RF-SCORE:    0.00 PKD
ROOT
HETATM    1  C   UNL     1     -13.176  10.829  71.948  1.00  0.00    -0.524 C  
HETATM    2  C   UNL     1     -12.960  12.331  71.989  1.00  0.00    -0.375 C  
ENDROOT
BRANCH   2   3
HETATM    3  C   UNL     1     -12.629  12.876  70.604  1.00  0.00    -0.256 C  
BRANCH   3   4
HETATM    4  C   UNL     1     -11.926  14.229  70.698  1.00  0.00    -0.392 C  
BRANCH   4   5
HETATM    5  C   UNL     1     -11.050  14.435  69.470  1.00  0.00    -0.267 C  
BRANCH   5   6
HETATM    6  C   UNL     1     -11.612  15.429  68.497  1.00  0.00    -0.373 C  
HETATM    7  C   UNL     1     -11.448  15.309  67.170  1.00  0.00    -0.202 C  
BRANCH   7   8
HETATM    8  C   UNL     1     -10.678  14.201  66.516  1.00  0.00    -0.289 C  
BRANCH   8   9
HETATM    9  C   UNL     1     -11.557  13.043  66.159  1.00  0.00    -0.412 C  
HETATM   10  C   UNL     1     -11.160  11.762  66.131  1.00  0.00    -0.358 C  
BRANCH  10  11
HETATM   11  C   UNL     1      -9.754  11.297  66.359  1.00  0.00    -0.238 C  
BRANCH  11  12
HETATM   12  C   UNL     1      -9.487  11.035  67.814  1.00  0.00    -0.169 C  
HETATM   13  C   UNL     1      -8.564  11.673  68.551  1.00  0.00    -0.134 C  
BRANCH  13  14
HETATM   14  C   UNL     1      -7.674  12.732  67.974  1.00  0.00    -0.137 C  
BRANCH  14  15
HETATM   15  C   UNL     1      -7.241  13.788  68.982  1.00  0.00    -0.063 C  
BRANCH  15  16
HETATM   16  C   UNL     1      -7.681  15.166  68.485  1.00  0.00    -0.122 C  
BRANCH  16  17
HETATM   17  C   UNL     1      -6.705  16.251  68.916  1.00  0.00    -0.156 C  
HETATM   18  C   UNL     1      -7.334  17.622  68.850  1.00  0.00    -0.239 C  
HETATM   19  O   UNL     1      -8.479  17.863  68.497  1.00  0.00    -0.296 OA 
HETATM   20  O   UNL     1      -6.476  18.597  69.232  1.00  0.00    -0.263 OA 
ENDBRANCH  16  17
ENDBRANCH  15  16
ENDBRANCH  14  15
ENDBRANCH  13  14
ENDBRANCH  11  12
ENDBRANCH  10  11
ENDBRANCH   8   9
ENDBRANCH   7   8
ENDBRANCH   5   6
ENDBRANCH   4   5
ENDBRANCH   3   4
ENDBRANCH   2   3
TORSDOF 12
ENDMDL
MODEL      316
REMARK 921   NORMALIZED FREE ENERGY PREDICTED BY IDOCK:   -3.18 KCAL/MOL
REMARK 922        TOTAL FREE ENERGY PREDICTED BY IDOCK:   -7.36 KCAL/MOL
REMARK 923 INTER-LIGAND FREE ENERGY PREDICTED BY IDOCK:   -6.12 KCAL/MOL
REMARK 924 INTRA-LIGAND FREE ENERGY PREDICTED BY IDOCK:   -1.25 KCAL/MOL
REMARK 927      BINDING AFFINITY PREDICTED BY RF-SCORE:    0.00 PKD
ROOT
HETATM    1  C   UNL     1     -10.414   8.928  71.660  1.00  0.00    -0.408 C  
HETATM    2  C   UNL     1     -11.600   9.193  70.751  1.00  0.00    -0.329 C  
ENDROOT
BRANCH   2   3
HETATM    3  C   UNL     1     -11.566  10.616  70.205  1.00  0.00    -0.414 C  
BRANCH   3   4
HETATM    4  C   UNL     1     -10.956  10.655  68.804  1.00  0.00    -0.292 C  
BRANCH   4   5
HETATM    5  C   UNL     1      -9.508  11.117  68.891  1.00  0.00    -0.136 C  
BRANCH   5   6
HETATM    6  C   UNL     1      -8.998  11.722  67.617  1.00  0.00    -0.169 C  
HETATM    7  C   UNL     1      -8.813  13.044  67.472  1.00  0.00    -0.195 C  
BRANCH   7   8
HETATM    8  C   UNL     1      -9.112  14.055  68.538  1.00  0.00    -0.163 C  
BRANCH   8   9
HETATM    9  C   UNL     1      -7.863  14.574  69.182  1.00  0.00    -0.071 C  
HETATM   10  C   UNL     1      -7.411  15.832  69.068  1.00  0.00    -0.177 C  
BRANCH  10  11
HETATM   11  C   UNL     1      -8.028  16.888  68.202  1.00  0.00    -0.195 C  
BRANCH  11  12
HETATM   12  C   UNL     1      -9.450  17.167  68.599  1.00  0.00    -0.275 C  
HETATM   13  C   UNL     1     -10.445  17.441  67.741  1.00  0.00    -0.376 C  
BRANCH  13  14
HETATM   14  C   UNL     1     -10.227  17.511  66.260  1.00  0.00    -0.356 C  
BRANCH  14  15
HETATM   15  C   UNL     1      -9.872  16.172  65.627  1.00  0.00    -0.290 C  
BRANCH  15  16
HETATM   16  C   UNL     1     -11.126  15.299  65.564  1.00  0.00    -0.330 C  
BRANCH  16  17
HETATM   17  C   UNL     1     -10.906  14.071  64.691  1.00  0.00    -0.416 C  
HETATM   18  C   UNL     1     -12.144  13.209  64.622  1.00  0.00    -0.408 C  
HETATM   19  O   UNL     1     -13.203  13.440  65.187  1.00  0.00    -0.691 OA 
HETATM   20  O   UNL     1     -11.962  12.114  63.847  1.00  0.00    -0.424 OA 
ENDBRANCH  16  17
ENDBRANCH  15  16
ENDBRANCH  14  15
ENDBRANCH  13  14
ENDBRANCH  11  12
ENDBRANCH  10  11
ENDBRANCH   8   9
ENDBRANCH   7   8
ENDBRANCH   5   6
ENDBRANCH   4   5
ENDBRANCH   3   4
ENDBRANCH   2   3
TORSDOF 12
ENDMDL
MODEL      317
REMARK 921   NORMALIZED FREE ENERGY PREDICTED BY IDOCK:   -3.18 KCAL/MOL
REMARK 922        TOTAL FREE ENERGY PREDICTED BY IDOCK:   -7.36 KCAL/MOL
REMARK 923 INTER-LIGAND FREE ENERGY PREDICTED BY IDOCK:   -6.05 KCAL/MOL
REMARK 924 INTRA-LIGAND FREE ENERGY PREDICTED BY IDOCK:   -1.31 KCAL/MOL
REMARK 927      BINDING AFFINITY PREDICTED BY RF-SCORE:    0.00 PKD
ROOT
HETATM    1  C   UNL     1      -8.187  16.089  66.590  1.00  0.00    -0.324 C  
HETATM    2  C   UNL     1      -9.424  16.814  66.090  1.00  0.00    -0.295 C  
ENDROOT
BRANCH   2   3
HETATM    3  C   UNL     1     -10.553  15.834  65.794  1.00  0.00    -0.369 C  
BRANCH   3   4
HETATM    4  C   UNL     1     -11.110  15.229  67.081  1.00  0.00    -0.323 C  
BRANCH   4   5
HETATM    5  C   UNL     1     -12.185  14.206  66.740  1.00  0.00    -0.429 C  
BRANCH   5   6
HETATM    6  C   UNL     1     -11.731  13.170  65.756  1.00  0.00    -0.415 C  
HETATM    7  C   UNL     1     -10.963  12.128  66.112  1.00  0.00    -0.335 C  
BRANCH   7   8
HETATM    8  C   UNL     1     -10.457  11.894  67.503  1.00  0.00    -0.233 C  
BRANCH   8   9
HETATM    9  C   UNL     1     -11.445  11.142  68.339  1.00  0.00    -0.377 C  
HETATM   10  C   UNL     1     -11.174  10.015  69.015  1.00  0.00    -0.180 C  
BRANCH  10  11
HETATM   11  C   UNL     1      -9.869   9.280  68.964  1.00  0.00    -0.168 C  
BRANCH  11  12
HETATM   12  C   UNL     1      -8.915   9.772  70.015  1.00  0.00    -0.255 C  
HETATM   13  C   UNL     1      -8.541   9.073  71.098  1.00  0.00    -0.250 C  
BRANCH  13  14
HETATM   14  C   UNL     1      -9.063   7.698  71.381  1.00  0.00    -0.146 C  
BRANCH  14  15
HETATM   15  C   UNL     1      -9.387   7.453  72.849  1.00  0.00    -0.210 C  
BRANCH  15  16
HETATM   16  C   UNL     1     -10.880   7.154  72.990  1.00  0.00    -0.367 C  
BRANCH  16  17
HETATM   17  C   UNL     1     -11.727   8.368  72.636  1.00  0.00    -0.364 C  
HETATM   18  C   UNL     1     -12.825   8.015  71.661  1.00  0.00    -0.329 C  
HETATM   19  O   UNL     1     -13.030   6.904  71.193  1.00  0.00    -0.336 OA 
HETATM   20  O   UNL     1     -13.587   9.086  71.339  1.00  0.00    -0.346 OA 
ENDBRANCH  16  17
ENDBRANCH  15  16
ENDBRANCH  14  15
ENDBRANCH  13  14
ENDBRANCH  11  12
ENDBRANCH  10  11
ENDBRANCH   8   9
ENDBRANCH   7   8
ENDBRANCH   5   6
ENDBRANCH   4   5
ENDBRANCH   3   4
ENDBRANCH   2   3
TORSDOF 12
ENDMDL
MODEL      318
REMARK 921   NORMALIZED FREE ENERGY PREDICTED BY IDOCK:   -3.17 KCAL/MOL
REMARK 922        TOTAL FREE ENERGY PREDICTED BY IDOCK:   -7.34 KCAL/MOL
REMARK 923 INTER-LIGAND FREE ENERGY PREDICTED BY IDOCK:   -6.17 KCAL/MOL
REMARK 924 INTRA-LIGAND FREE ENERGY PREDICTED BY IDOCK:   -1.18 KCAL/MOL
REMARK 927      BINDING AFFINITY PREDICTED BY RF-SCORE:    0.00 PKD
ROOT
HETATM    1  C   UNL     1      -9.541  10.043  64.847  1.00  0.00    -0.375 C  
HETATM    2  C   UNL     1     -10.094   9.242  66.012  1.00  0.00    -0.262 C  
ENDROOT
BRANCH   2   3
HETATM    3  C   UNL     1      -9.861   9.962  67.335  1.00  0.00    -0.223 C  
BRANCH   3   4
HETATM    4  C   UNL     1      -9.639  11.458  67.117  1.00  0.00    -0.193 C  
BRANCH   4   5
HETATM    5  C   UNL     1     -10.839  12.233  67.643  1.00  0.00    -0.262 C  
BRANCH   5   6
HETATM    6  C   UNL     1     -11.839  12.576  66.579  1.00  0.00    -0.434 C  
HETATM    7  C   UNL     1     -11.802  13.736  65.905  1.00  0.00    -0.405 C  
BRANCH   7   8
HETATM    8  C   UNL     1     -10.793  14.817  66.149  1.00  0.00    -0.321 C  
BRANCH   8   9
HETATM    9  C   UNL     1     -11.124  15.630  67.362  1.00  0.00    -0.260 C  
HETATM   10  C   UNL     1     -10.785  16.916  67.536  1.00  0.00    -0.270 C  
BRANCH  10  11
HETATM   11  C   UNL     1      -9.939  17.714  66.590  1.00  0.00    -0.328 C  
BRANCH  11  12
HETATM   12  C   UNL     1     -10.324  19.167  66.595  1.00  0.00    -0.515 C  
HETATM   13  C   UNL     1      -9.458  20.189  66.515  1.00  0.00    -0.497 C  
BRANCH  13  14
HETATM   14  C   UNL     1      -7.977  19.977  66.425  1.00  0.00    -0.325 C  
BRANCH  14  15
HETATM   15  C   UNL     1      -7.208  20.486  67.636  1.00  0.00    -0.356 C  
BRANCH  15  16
HETATM   16  C   UNL     1      -7.679  19.736  68.882  1.00  0.00    -0.255 C  
BRANCH  16  17
HETATM   17  C   UNL     1      -6.540  18.967  69.535  1.00  0.00    -0.280 C  
HETATM   18  C   UNL     1      -6.562  17.507  69.151  1.00  0.00    -0.246 C  
HETATM   19  O   UNL     1      -7.380  16.979  68.413  1.00  0.00    -0.193 OA 
HETATM   20  O   UNL     1      -5.552  16.812  69.724  1.00  0.00    -0.169 OA 
ENDBRANCH  16  17
ENDBRANCH  15  16
ENDBRANCH  14  15
ENDBRANCH  13  14
ENDBRANCH  11  12
ENDBRANCH  10  11
ENDBRANCH   8   9
ENDBRANCH   7   8
ENDBRANCH   5   6
ENDBRANCH   4   5
ENDBRANCH   3   4
ENDBRANCH   2   3
TORSDOF 12
ENDMDL
MODEL      319
REMARK 921   NORMALIZED FREE ENERGY PREDICTED BY IDOCK:   -3.16 KCAL/MOL
REMARK 922        TOTAL FREE ENERGY PREDICTED BY IDOCK:   -7.34 KCAL/MOL
REMARK 923 INTER-LIGAND FREE ENERGY PREDICTED BY IDOCK:   -6.15 KCAL/MOL
REMARK 924 INTRA-LIGAND FREE ENERGY PREDICTED BY IDOCK:   -1.19 KCAL/MOL
REMARK 927      BINDING AFFINITY PREDICTED BY RF-SCORE:    0.00 PKD
ROOT
HETATM    1  C   UNL     1      -8.209   6.393  70.919  1.00  0.00    -0.125 C  
HETATM    2  C   UNL     1      -9.348   5.817  71.742  1.00  0.00    -0.163 C  
ENDROOT
BRANCH   2   3
HETATM    3  C   UNL     1     -10.083   6.913  72.504  1.00  0.00    -0.191 C  
BRANCH   3   4
HETATM    4  C   UNL     1     -11.361   7.328  71.777  1.00  0.00    -0.285 C  
BRANCH   4   5
HETATM    5  C   UNL     1     -12.077   8.406  72.580  1.00  0.00    -0.403 C  
BRANCH   5   6
HETATM    6  C   UNL     1     -13.377   8.839  71.969  1.00  0.00    -0.455 C  
HETATM    7  C   UNL     1     -13.495   9.970  71.257  1.00  0.00    -0.331 C  
BRANCH   7   8
HETATM    8  C   UNL     1     -12.370  10.930  71.011  1.00  0.00    -0.498 C  
BRANCH   8   9
HETATM    9  C   UNL     1     -11.575  10.562  69.797  1.00  0.00    -0.368 C  
HETATM   10  C   UNL     1     -11.359  11.374  68.751  1.00  0.00    -0.334 C  
BRANCH  10  11
HETATM   11  C   UNL     1     -11.956  12.739  68.589  1.00  0.00    -0.272 C  
BRANCH  11  12
HETATM   12  C   UNL     1     -11.020  13.670  67.870  1.00  0.00    -0.277 C  
HETATM   13  C   UNL     1     -10.962  13.819  66.537  1.00  0.00    -0.299 C  
BRANCH  13  14
HETATM   14  C   UNL     1     -11.840  13.040  65.607  1.00  0.00    -0.445 C  
BRANCH  14  15
HETATM   15  C   UNL     1     -11.199  12.745  64.258  1.00  0.00    -0.409 C  
BRANCH  15  16
HETATM   16  C   UNL     1     -10.897  11.250  64.161  1.00  0.00    -0.407 C  
BRANCH  16  17
HETATM   17  C   UNL     1      -9.424  10.960  64.413  1.00  0.00    -0.287 C  
HETATM   18  C   UNL     1      -9.237   9.928  65.499  1.00  0.00    -0.203 C  
HETATM   19  O   UNL     1     -10.136   9.378  66.118  1.00  0.00    -0.292 OA 
HETATM   20  O   UNL     1      -7.931   9.661  65.731  1.00  0.00    -0.106 OA 
ENDBRANCH  16  17
ENDBRANCH  15  16
ENDBRANCH  14  15
ENDBRANCH  13  14
ENDBRANCH  11  12
ENDBRANCH  10  11
ENDBRANCH   8   9
ENDBRANCH   7   8
ENDBRANCH   5   6
ENDBRANCH   4   5
ENDBRANCH   3   4
ENDBRANCH   2   3
TORSDOF 12
ENDMDL
MODEL      320
REMARK 921   NORMALIZED FREE ENERGY PREDICTED BY IDOCK:   -3.15 KCAL/MOL
REMARK 922        TOTAL FREE ENERGY PREDICTED BY IDOCK:   -7.32 KCAL/MOL
REMARK 923 INTER-LIGAND FREE ENERGY PREDICTED BY IDOCK:   -6.15 KCAL/MOL
REMARK 924 INTRA-LIGAND FREE ENERGY PREDICTED BY IDOCK:   -1.17 KCAL/MOL
REMARK 927      BINDING AFFINITY PREDICTED BY RF-SCORE:    0.00 PKD
ROOT
HETATM    1  C   UNL     1      -9.344  16.322  66.000  1.00  0.00    -0.361 C  
HETATM    2  C   UNL     1     -10.596  15.761  65.350  1.00  0.00    -0.441 C  
ENDROOT
BRANCH   2   3
HETATM    3  C   UNL     1     -11.026  14.460  66.018  1.00  0.00    -0.316 C  
BRANCH   3   4
HETATM    4  C   UNL     1     -10.365  14.297  67.386  1.00  0.00    -0.259 C  
BRANCH   4   5
HETATM    5  C   UNL     1     -11.346  13.648  68.352  1.00  0.00    -0.329 C  
BRANCH   5   6
HETATM    6  C   UNL     1     -11.910  12.353  67.847  1.00  0.00    -0.370 C  
HETATM    7  C   UNL     1     -11.969  11.249  68.609  1.00  0.00    -0.314 C  
BRANCH   7   8
HETATM    8  C   UNL     1     -11.465  11.173  70.019  1.00  0.00    -0.376 C  
BRANCH   8   9
HETATM    9  C   UNL     1     -12.581  11.230  71.016  1.00  0.00    -0.495 C  
HETATM   10  C   UNL     1     -13.061  10.172  71.686  1.00  0.00    -0.550 C  
BRANCH  10  11
HETATM   11  C   UNL     1     -12.623   8.755  71.476  1.00  0.00    -0.372 C  
BRANCH  11  12
HETATM   12  C   UNL     1     -11.734   8.279  72.591  1.00  0.00    -0.406 C  
HETATM   13  C   UNL     1     -10.402   8.138  72.500  1.00  0.00    -0.401 C  
BRANCH  13  14
HETATM   14  C   UNL     1      -9.651   8.435  71.239  1.00  0.00    -0.239 C  
BRANCH  14  15
HETATM   15  C   UNL     1      -9.951   7.468  70.102  1.00  0.00    -0.192 C  
BRANCH  15  16
HETATM   16  C   UNL     1      -8.740   6.561  69.881  1.00  0.00    -0.140 C  
BRANCH  16  17
HETATM   17  C   UNL     1      -9.162   5.127  69.597  1.00  0.00    -0.164 C  
HETATM   18  C   UNL     1      -9.224   4.848  68.115  1.00  0.00    -0.123 C  
HETATM   19  O   UNL     1      -8.975   5.653  67.229  1.00  0.00    -0.114 OA 
HETATM   20  O   UNL     1      -9.597   3.575  67.849  1.00  0.00    -0.190 OA 
ENDBRANCH  16  17
ENDBRANCH  15  16
ENDBRANCH  14  15
ENDBRANCH  13  14
ENDBRANCH  11  12
ENDBRANCH  10  11
ENDBRANCH   8   9
ENDBRANCH   7   8
ENDBRANCH   5   6
ENDBRANCH   4   5
ENDBRANCH   3   4
ENDBRANCH   2   3
TORSDOF 12
ENDMDL
MODEL      321
REMARK 921   NORMALIZED FREE ENERGY PREDICTED BY IDOCK:   -3.14 KCAL/MOL
REMARK 922        TOTAL FREE ENERGY PREDICTED BY IDOCK:   -7.29 KCAL/MOL
REMARK 923 INTER-LIGAND FREE ENERGY PREDICTED BY IDOCK:   -5.01 KCAL/MOL
REMARK 924 INTRA-LIGAND FREE ENERGY PREDICTED BY IDOCK:   -2.29 KCAL/MOL
REMARK 927      BINDING AFFINITY PREDICTED BY RF-SCORE:    0.00 PKD
ROOT
HETATM    1  C   UNL     1      -9.661   9.648  70.126  1.00  0.00    -0.301 C  
HETATM    2  C   UNL     1     -11.099   9.864  70.564  1.00  0.00    -0.398 C  
ENDROOT
BRANCH   2   3
HETATM    3  C   UNL     1     -11.596  11.246  70.155  1.00  0.00    -0.393 C  
BRANCH   3   4
HETATM    4  C   UNL     1     -12.112  11.244  68.717  1.00  0.00    -0.258 C  
BRANCH   4   5
HETATM    5  C   UNL     1     -11.654  12.512  68.010  1.00  0.00    -0.395 C  
BRANCH   5   6
HETATM    6  C   UNL     1     -10.963  12.251  66.705  1.00  0.00    -0.321 C  
HETATM    7  C   UNL     1      -9.628  12.145  66.608  1.00  0.00    -0.226 C  
BRANCH   7   8
HETATM    8  C   UNL     1      -8.687  12.297  67.764  1.00  0.00    -0.174 C  
BRANCH   8   9
HETATM    9  C   UNL     1      -7.279  12.532  67.312  1.00  0.00    -0.114 C  
HETATM   10  C   UNL     1      -6.318  13.090  68.064  1.00  0.00    -0.115 C  
BRANCH  10  11
HETATM   11  C   UNL     1      -6.524  13.653  69.437  1.00  0.00    -0.106 C  
BRANCH  11  12
HETATM   12  C   UNL     1      -5.682  14.877  69.666  1.00  0.00    -0.100 C  
HETATM   13  C   UNL     1      -6.053  16.130  69.358  1.00  0.00    -0.160 C  
BRANCH  13  14
HETATM   14  C   UNL     1      -7.375  16.439  68.725  1.00  0.00    -0.203 C  
BRANCH  14  15
HETATM   15  C   UNL     1      -7.305  16.625  67.215  1.00  0.00    -0.203 C  
BRANCH  15  16
HETATM   16  C   UNL     1      -8.561  16.029  66.578  1.00  0.00    -0.344 C  
BRANCH  16  17
HETATM   17  C   UNL     1      -9.581  15.621  67.631  1.00  0.00    -0.220 C  
HETATM   18  C   UNL     1     -10.663  16.662  67.791  1.00  0.00    -0.327 C  
HETATM   19  O   UNL     1     -10.736  17.711  67.169  1.00  0.00    -0.306 OA 
HETATM   20  O   UNL     1     -11.578  16.310  68.724  1.00  0.00    -0.342 OA 
ENDBRANCH  16  17
ENDBRANCH  15  16
ENDBRANCH  14  15
ENDBRANCH  13  14
ENDBRANCH  11  12
ENDBRANCH  10  11
ENDBRANCH   8   9
ENDBRANCH   7   8
ENDBRANCH   5   6
ENDBRANCH   4   5
ENDBRANCH   3   4
ENDBRANCH   2   3
TORSDOF 12
ENDMDL
MODEL      322
REMARK 921   NORMALIZED FREE ENERGY PREDICTED BY IDOCK:   -3.11 KCAL/MOL
REMARK 922        TOTAL FREE ENERGY PREDICTED BY IDOCK:   -7.25 KCAL/MOL
REMARK 923 INTER-LIGAND FREE ENERGY PREDICTED BY IDOCK:   -5.46 KCAL/MOL
REMARK 924 INTRA-LIGAND FREE ENERGY PREDICTED BY IDOCK:   -1.78 KCAL/MOL
REMARK 927      BINDING AFFINITY PREDICTED BY RF-SCORE:    0.00 PKD
ROOT
HETATM    1  C   UNL     1      -8.966  10.730  65.222  1.00  0.00    -0.211 C  
HETATM    2  C   UNL     1     -10.439  11.061  65.388  1.00  0.00    -0.306 C  
ENDROOT
BRANCH   2   3
HETATM    3  C   UNL     1     -10.871  10.924  66.843  1.00  0.00    -0.307 C  
BRANCH   3   4
HETATM    4  C   UNL     1      -9.997   9.916  67.587  1.00  0.00    -0.212 C  
BRANCH   4   5
HETATM    5  C   UNL     1     -10.844   8.727  68.017  1.00  0.00    -0.056 C  
BRANCH   5   6
HETATM    6  C   UNL     1     -10.651   7.514  67.155  1.00  0.00    -0.415 C  
HETATM    7  C   UNL     1     -10.570   6.275  67.664  1.00  0.00    -0.339 C  
BRANCH   7   8
HETATM    8  C   UNL     1     -10.636   5.963  69.129  1.00  0.00    -0.369 C  
BRANCH   8   9
HETATM    9  C   UNL     1      -9.916   4.694  69.464  1.00  0.00    -0.266 C  
HETATM   10  C   UNL     1      -8.843   4.613  70.265  1.00  0.00    -0.122 C  
BRANCH  10  11
HETATM   11  C   UNL     1      -8.137   5.788  70.872  1.00  0.00    -0.119 C  
BRANCH  11  12
HETATM   12  C   UNL     1      -8.406   5.892  72.347  1.00  0.00    -0.117 C  
HETATM   13  C   UNL     1      -8.627   7.041  73.006  1.00  0.00    -0.137 C  
BRANCH  13  14
HETATM   14  C   UNL     1      -8.614   8.372  72.318  1.00  0.00    -0.263 C  
BRANCH  14  15
HETATM   15  C   UNL     1      -9.959   8.773  71.728  1.00  0.00    -0.396 C  
BRANCH  15  16
HETATM   16  C   UNL     1     -11.079   8.146  72.559  1.00  0.00    -0.446 C  
BRANCH  16  17
HETATM   17  C   UNL     1     -12.062   7.382  71.685  1.00  0.00    -0.349 C  
HETATM   18  C   UNL     1     -13.454   7.960  71.775  1.00  0.00    -0.335 C  
HETATM   19  O   UNL     1     -13.781   8.919  72.458  1.00  0.00    -0.451 OA 
HETATM   20  O   UNL     1     -14.337   7.289  71.000  1.00  0.00    -0.245 OA 
ENDBRANCH  16  17
ENDBRANCH  15  16
ENDBRANCH  14  15
ENDBRANCH  13  14
ENDBRANCH  11  12
ENDBRANCH  10  11
ENDBRANCH   8   9
ENDBRANCH   7   8
ENDBRANCH   5   6
ENDBRANCH   4   5
ENDBRANCH   3   4
ENDBRANCH   2   3
TORSDOF 12
ENDMDL
MODEL      323
REMARK 921   NORMALIZED FREE ENERGY PREDICTED BY IDOCK:   -3.10 KCAL/MOL
REMARK 922        TOTAL FREE ENERGY PREDICTED BY IDOCK:   -7.24 KCAL/MOL
REMARK 923 INTER-LIGAND FREE ENERGY PREDICTED BY IDOCK:   -5.31 KCAL/MOL
REMARK 924 INTRA-LIGAND FREE ENERGY PREDICTED BY IDOCK:   -1.92 KCAL/MOL
REMARK 927      BINDING AFFINITY PREDICTED BY RF-SCORE:    0.00 PKD
ROOT
HETATM    1  C   UNL     1     -11.289  11.144  67.969  1.00  0.00    -0.380 C  
HETATM    2  C   UNL     1     -10.918  10.913  69.423  1.00  0.00    -0.304 C  
ENDROOT
BRANCH   2   3
HETATM    3  C   UNL     1     -12.056  11.320  70.352  1.00  0.00    -0.474 C  
BRANCH   3   4
HETATM    4  C   UNL     1     -12.216  10.324  71.499  1.00  0.00    -0.449 C  
BRANCH   4   5
HETATM    5  C   UNL     1     -11.088   9.303  71.448  1.00  0.00    -0.437 C  
BRANCH   5   6
HETATM    6  C   UNL     1     -11.385   8.048  72.214  1.00  0.00    -0.413 C  
HETATM    7  C   UNL     1     -11.701   6.893  71.607  1.00  0.00    -0.343 C  
BRANCH   7   8
HETATM    8  C   UNL     1     -11.817   6.730  70.121  1.00  0.00    -0.321 C  
BRANCH   8   9
HETATM    9  C   UNL     1     -10.879   5.687  69.598  1.00  0.00    -0.365 C  
HETATM   10  C   UNL     1     -10.300   5.717  68.388  1.00  0.00    -0.269 C  
BRANCH  10  11
HETATM   11  C   UNL     1     -10.573   6.746  67.334  1.00  0.00    -0.372 C  
BRANCH  11  12
HETATM   12  C   UNL     1      -9.768   7.996  67.558  1.00  0.00    -0.206 C  
HETATM   13  C   UNL     1      -8.651   8.317  66.888  1.00  0.00    -0.122 C  
BRANCH  13  14
HETATM   14  C   UNL     1      -8.071   7.430  65.829  1.00  0.00    -0.129 C  
BRANCH  14  15
HETATM   15  C   UNL     1      -7.024   6.454  66.349  1.00  0.00    -0.067 C  
BRANCH  15  16
HETATM   16  C   UNL     1      -7.430   5.031  65.964  1.00  0.00    -0.082 C  
BRANCH  16  17
HETATM   17  C   UNL     1      -7.930   4.963  64.529  1.00  0.00    -0.103 C  
HETATM   18  C   UNL     1      -9.260   4.254  64.435  1.00  0.00    -0.155 C  
HETATM   19  O   UNL     1      -9.880   3.781  65.376  1.00  0.00    -0.175 OA 
HETATM   20  O   UNL     1      -9.716   4.188  63.163  1.00  0.00    -0.150 OA 
ENDBRANCH  16  17
ENDBRANCH  15  16
ENDBRANCH  14  15
ENDBRANCH  13  14
ENDBRANCH  11  12
ENDBRANCH  10  11
ENDBRANCH   8   9
ENDBRANCH   7   8
ENDBRANCH   5   6
ENDBRANCH   4   5
ENDBRANCH   3   4
ENDBRANCH   2   3
TORSDOF 12
ENDMDL
MODEL      324
REMARK 921   NORMALIZED FREE ENERGY PREDICTED BY IDOCK:   -3.10 KCAL/MOL
REMARK 922        TOTAL FREE ENERGY PREDICTED BY IDOCK:   -7.23 KCAL/MOL
REMARK 923 INTER-LIGAND FREE ENERGY PREDICTED BY IDOCK:   -4.33 KCAL/MOL
REMARK 924 INTRA-LIGAND FREE ENERGY PREDICTED BY IDOCK:   -2.90 KCAL/MOL
REMARK 927      BINDING AFFINITY PREDICTED BY RF-SCORE:    0.00 PKD
ROOT
HETATM    1  C   UNL     1     -11.493   1.513  73.239  1.00  0.00    -0.274 C  
HETATM    2  C   UNL     1     -10.706   2.704  73.758  1.00  0.00    -0.269 C  
ENDROOT
BRANCH   2   3
HETATM    3  C   UNL     1     -11.307   4.015  73.266  1.00  0.00    -0.237 C  
BRANCH   3   4
HETATM    4  C   UNL     1     -10.598   5.216  73.893  1.00  0.00    -0.340 C  
BRANCH   4   5
HETATM    5  C   UNL     1     -10.774   6.435  72.998  1.00  0.00    -0.286 C  
BRANCH   5   6
HETATM    6  C   UNL     1     -10.135   7.675  73.549  1.00  0.00    -0.345 C  
HETATM    7  C   UNL     1      -8.924   8.097  73.151  1.00  0.00    -0.330 C  
BRANCH   7   8
HETATM    8  C   UNL     1      -8.073   7.380  72.147  1.00  0.00    -0.107 C  
BRANCH   8   9
HETATM    9  C   UNL     1      -7.357   6.212  72.752  1.00  0.00    -0.089 C  
HETATM   10  C   UNL     1      -7.053   5.080  72.099  1.00  0.00    -0.075 C  
BRANCH  10  11
HETATM   11  C   UNL     1      -7.464   4.767  70.692  1.00  0.00    -0.057 C  
BRANCH  11  12
HETATM   12  C   UNL     1      -8.651   3.846  70.655  1.00  0.00    -0.108 C  
HETATM   13  C   UNL     1      -9.761   4.056  69.929  1.00  0.00    -0.263 C  
BRANCH  13  14
HETATM   14  C   UNL     1      -9.937   5.271  69.071  1.00  0.00    -0.260 C  
BRANCH  14  15
HETATM   15  C   UNL     1     -11.152   6.113  69.438  1.00  0.00    -0.479 C  
BRANCH  15  16
HETATM   16  C   UNL     1     -10.751   7.588  69.466  1.00  0.00    -0.222 C  
BRANCH  16  17
HETATM   17  C   UNL     1      -9.370   7.802  68.863  1.00  0.00    -0.146 C  
HETATM   18  C   UNL     1      -8.875   9.210  69.092  1.00  0.00    -0.146 C  
HETATM   19  O   UNL     1      -9.484  10.090  69.681  1.00  0.00    -0.214 OA 
HETATM   20  O   UNL     1      -7.646   9.412  68.561  1.00  0.00    -0.080 OA 
ENDBRANCH  16  17
ENDBRANCH  15  16
ENDBRANCH  14  15
ENDBRANCH  13  14
ENDBRANCH  11  12
ENDBRANCH  10  11
ENDBRANCH   8   9
ENDBRANCH   7   8
ENDBRANCH   5   6
ENDBRANCH   4   5
ENDBRANCH   3   4
ENDBRANCH   2   3
TORSDOF 12
ENDMDL
MODEL      325
REMARK 921   NORMALIZED FREE ENERGY PREDICTED BY IDOCK:   -3.10 KCAL/MOL
REMARK 922        TOTAL FREE ENERGY PREDICTED BY IDOCK:   -7.23 KCAL/MOL
REMARK 923 INTER-LIGAND FREE ENERGY PREDICTED BY IDOCK:   -5.67 KCAL/MOL
REMARK 924 INTRA-LIGAND FREE ENERGY PREDICTED BY IDOCK:   -1.56 KCAL/MOL
REMARK 927      BINDING AFFINITY PREDICTED BY RF-SCORE:    0.00 PKD
ROOT
HETATM    1  C   UNL     1      -8.539   7.083  72.409  1.00  0.00    -0.130 C  
HETATM    2  C   UNL     1      -9.402   7.164  71.162  1.00  0.00    -0.157 C  
ENDROOT
BRANCH   2   3
HETATM    3  C   UNL     1     -10.744   6.475  71.376  1.00  0.00    -0.280 C  
BRANCH   3   4
HETATM    4  C   UNL     1     -11.487   6.290  70.054  1.00  0.00    -0.460 C  
BRANCH   4   5
HETATM    5  C   UNL     1     -10.488   5.994  68.945  1.00  0.00    -0.309 C  
BRANCH   5   6
HETATM    6  C   UNL     1     -10.985   6.368  67.580  1.00  0.00    -0.454 C  
HETATM    7  C   UNL     1     -10.692   7.545  67.006  1.00  0.00    -0.367 C  
BRANCH   7   8
HETATM    8  C   UNL     1      -9.871   8.617  67.658  1.00  0.00    -0.229 C  
BRANCH   8   9
HETATM    9  C   UNL     1      -8.428   8.531  67.266  1.00  0.00    -0.123 C  
HETATM   10  C   UNL     1      -7.774   9.460  66.552  1.00  0.00    -0.094 C  
BRANCH  10  11
HETATM   11  C   UNL     1      -8.404  10.680  65.953  1.00  0.00    -0.161 C  
BRANCH  11  12
HETATM   12  C   UNL     1      -9.411  10.321  64.897  1.00  0.00    -0.337 C  
HETATM   13  C   UNL     1     -10.376  11.139  64.448  1.00  0.00    -0.407 C  
BRANCH  13  14
HETATM   14  C   UNL     1     -10.558  12.527  64.981  1.00  0.00    -0.329 C  
BRANCH  14  15
HETATM   15  C   UNL     1     -11.673  12.650  66.011  1.00  0.00    -0.470 C  
BRANCH  15  16
HETATM   16  C   UNL     1     -11.089  12.453  67.410  1.00  0.00    -0.320 C  
BRANCH  16  17
HETATM   17  C   UNL     1     -10.283  13.665  67.853  1.00  0.00    -0.250 C  
HETATM   18  C   UNL     1     -11.052  14.515  68.836  1.00  0.00    -0.256 C  
HETATM   19  O   UNL     1     -12.182  14.286  69.242  1.00  0.00    -0.316 OA 
HETATM   20  O   UNL     1     -10.345  15.597  69.240  1.00  0.00    -0.217 OA 
ENDBRANCH  16  17
ENDBRANCH  15  16
ENDBRANCH  14  15
ENDBRANCH  13  14
ENDBRANCH  11  12
ENDBRANCH  10  11
ENDBRANCH   8   9
ENDBRANCH   7   8
ENDBRANCH   5   6
ENDBRANCH   4   5
ENDBRANCH   3   4
ENDBRANCH   2   3
TORSDOF 12
ENDMDL
MODEL      326
REMARK 921   NORMALIZED FREE ENERGY PREDICTED BY IDOCK:   -3.08 KCAL/MOL
REMARK 922        TOTAL FREE ENERGY PREDICTED BY IDOCK:   -7.19 KCAL/MOL
REMARK 923 INTER-LIGAND FREE ENERGY PREDICTED BY IDOCK:   -5.16 KCAL/MOL
REMARK 924 INTRA-LIGAND FREE ENERGY PREDICTED BY IDOCK:   -2.03 KCAL/MOL
REMARK 927      BINDING AFFINITY PREDICTED BY RF-SCORE:    0.00 PKD
ROOT
HETATM    1  C   UNL     1      -9.684   8.643  66.390  1.00  0.00    -0.333 C  
HETATM    2  C   UNL     1     -10.499   8.962  67.631  1.00  0.00    -0.320 C  
ENDROOT
BRANCH   2   3
HETATM    3  C   UNL     1     -10.576   7.758  68.562  1.00  0.00    -0.153 C  
BRANCH   3   4
HETATM    4  C   UNL     1     -10.645   8.195  70.025  1.00  0.00    -0.239 C  
BRANCH   4   5
HETATM    5  C   UNL     1      -9.686   9.354  70.256  1.00  0.00    -0.292 C  
BRANCH   5   6
HETATM    6  C   UNL     1      -8.341   8.922  70.761  1.00  0.00    -0.205 C  
HETATM    7  C   UNL     1      -7.205   9.186  70.095  1.00  0.00    -0.070 C  
BRANCH   7   8
HETATM    8  C   UNL     1      -7.149   9.907  68.782  1.00  0.00    -0.067 C  
BRANCH   8   9
HETATM    9  C   UNL     1      -6.859  11.365  68.956  1.00  0.00    -0.102 C  
HETATM   10  C   UNL     1      -7.613  12.359  68.464  1.00  0.00    -0.122 C  
BRANCH  10  11
HETATM   11  C   UNL     1      -8.810  12.168  67.582  1.00  0.00    -0.172 C  
BRANCH  11  12
HETATM   12  C   UNL     1     -10.087  12.493  68.306  1.00  0.00    -0.228 C  
HETATM   13  C   UNL     1     -10.672  13.701  68.323  1.00  0.00    -0.266 C  
BRANCH  13  14
HETATM   14  C   UNL     1     -10.084  14.883  67.615  1.00  0.00    -0.227 C  
BRANCH  14  15
HETATM   15  C   UNL     1      -9.839  16.083  68.519  1.00  0.00    -0.216 C  
BRANCH  15  16
HETATM   16  C   UNL     1     -10.797  17.210  68.130  1.00  0.00    -0.316 C  
BRANCH  16  17
HETATM   17  C   UNL     1     -10.047  18.500  67.830  1.00  0.00    -0.398 C  
HETATM   18  C   UNL     1     -10.089  18.840  66.360  1.00  0.00    -0.404 C  
HETATM   19  O   UNL     1     -10.644  18.180  65.494  1.00  0.00    -0.638 OA 
HETATM   20  O   UNL     1      -9.427  19.987  66.081  1.00  0.00    -0.396 OA 
ENDBRANCH  16  17
ENDBRANCH  15  16
ENDBRANCH  14  15
ENDBRANCH  13  14
ENDBRANCH  11  12
ENDBRANCH  10  11
ENDBRANCH   8   9
ENDBRANCH   7   8
ENDBRANCH   5   6
ENDBRANCH   4   5
ENDBRANCH   3   4
ENDBRANCH   2   3
TORSDOF 12
ENDMDL
MODEL      327
REMARK 921   NORMALIZED FREE ENERGY PREDICTED BY IDOCK:   -3.08 KCAL/MOL
REMARK 922        TOTAL FREE ENERGY PREDICTED BY IDOCK:   -7.19 KCAL/MOL
REMARK 923 INTER-LIGAND FREE ENERGY PREDICTED BY IDOCK:   -5.02 KCAL/MOL
REMARK 924 INTRA-LIGAND FREE ENERGY PREDICTED BY IDOCK:   -2.17 KCAL/MOL
REMARK 927      BINDING AFFINITY PREDICTED BY RF-SCORE:    0.00 PKD
ROOT
HETATM    1  C   UNL     1      -7.860   9.834  65.762  1.00  0.00    -0.110 C  
HETATM    2  C   UNL     1      -9.370   9.855  65.613  1.00  0.00    -0.269 C  
ENDROOT
BRANCH   2   3
HETATM    3  C   UNL     1      -9.978  11.050  66.338  1.00  0.00    -0.264 C  
BRANCH   3   4
HETATM    4  C   UNL     1      -9.176  11.401  67.591  1.00  0.00    -0.158 C  
BRANCH   4   5
HETATM    5  C   UNL     1      -9.824  10.756  68.808  1.00  0.00    -0.200 C  
BRANCH   5   6
HETATM    6  C   UNL     1     -11.228  10.290  68.559  1.00  0.00    -0.271 C  
HETATM    7  C   UNL     1     -12.196  10.401  69.481  1.00  0.00    -0.068 C  
BRANCH   7   8
HETATM    8  C   UNL     1     -11.989  10.970  70.853  1.00  0.00    -0.391 C  
BRANCH   8   9
HETATM    9  C   UNL     1     -13.267  11.475  71.448  1.00  0.00    -0.222 C  
HETATM   10  C   UNL     1     -13.477  12.739  71.847  1.00  0.00    -0.452 C  
BRANCH  10  11
HETATM   11  C   UNL     1     -12.439  13.819  71.849  1.00  0.00    -0.203 C  
BRANCH  11  12
HETATM   12  C   UNL     1     -12.835  14.969  70.965  1.00  0.00    -0.451 C  
HETATM   13  C   UNL     1     -12.385  15.165  69.716  1.00  0.00    -0.278 C  
BRANCH  13  14
HETATM   14  C   UNL     1     -11.405  14.237  69.065  1.00  0.00    -0.303 C  
BRANCH  14  15
HETATM   15  C   UNL     1     -11.609  14.081  67.564  1.00  0.00    -0.397 C  
BRANCH  15  16
HETATM   16  C   UNL     1     -11.857  15.457  66.945  1.00  0.00     0.227 C  
BRANCH  16  17
HETATM   17  C   UNL     1     -10.577  16.051  66.375  1.00  0.00    -0.284 C  
HETATM   18  C   UNL     1     -10.099  17.228  67.191  1.00  0.00    -0.297 C  
HETATM   19  O   UNL     1     -10.650  17.673  68.187  1.00  0.00    -0.376 OA 
HETATM   20  O   UNL     1      -8.960  17.765  66.695  1.00  0.00    -0.252 OA 
ENDBRANCH  16  17
ENDBRANCH  15  16
ENDBRANCH  14  15
ENDBRANCH  13  14
ENDBRANCH  11  12
ENDBRANCH  10  11
ENDBRANCH   8   9
ENDBRANCH   7   8
ENDBRANCH   5   6
ENDBRANCH   4   5
ENDBRANCH   3   4
ENDBRANCH   2   3
TORSDOF 12
ENDMDL
MODEL      328
REMARK 921   NORMALIZED FREE ENERGY PREDICTED BY IDOCK:   -3.07 KCAL/MOL
REMARK 922        TOTAL FREE ENERGY PREDICTED BY IDOCK:   -7.18 KCAL/MOL
REMARK 923 INTER-LIGAND FREE ENERGY PREDICTED BY IDOCK:   -5.46 KCAL/MOL
REMARK 924 INTRA-LIGAND FREE ENERGY PREDICTED BY IDOCK:   -1.72 KCAL/MOL
REMARK 927      BINDING AFFINITY PREDICTED BY RF-SCORE:    0.00 PKD
ROOT
HETATM    1  C   UNL     1     -10.179  16.448  68.913  1.00  0.00    -0.258 C  
HETATM    2  C   UNL     1     -10.707  17.229  67.724  1.00  0.00    -0.333 C  
ENDROOT
BRANCH   2   3
HETATM    3  C   UNL     1      -9.923  16.902  66.459  1.00  0.00    -0.309 C  
BRANCH   3   4
HETATM    4  C   UNL     1     -10.856  16.703  65.266  1.00  0.00    -0.194 C  
BRANCH   4   5
HETATM    5  C   UNL     1     -10.683  15.295  64.713  1.00  0.00    -0.342 C  
BRANCH   5   6
HETATM    6  C   UNL     1     -11.927  14.462  64.803  1.00  0.00    -0.455 C  
HETATM    7  C   UNL     1     -12.150  13.611  65.817  1.00  0.00    -0.463 C  
BRANCH   7   8
HETATM    8  C   UNL     1     -11.190  13.376  66.944  1.00  0.00    -0.330 C  
BRANCH   8   9
HETATM    9  C   UNL     1     -11.894  12.988  68.207  1.00  0.00    -0.381 C  
HETATM   10  C   UNL     1     -11.579  11.924  68.960  1.00  0.00    -0.376 C  
BRANCH  10  11
HETATM   11  C   UNL     1     -10.540  10.903  68.609  1.00  0.00    -0.224 C  
BRANCH  11  12
HETATM   12  C   UNL     1     -10.041  10.179  69.828  1.00  0.00    -0.269 C  
HETATM   13  C   UNL     1      -9.758   8.868  69.879  1.00  0.00    -0.185 C  
BRANCH  13  14
HETATM   14  C   UNL     1      -9.931   7.967  68.694  1.00  0.00    -0.200 C  
BRANCH  14  15
HETATM   15  C   UNL     1      -8.630   7.652  67.966  1.00  0.00    -0.123 C  
BRANCH  15  16
HETATM   16  C   UNL     1      -8.896   7.604  66.462  1.00  0.00    -0.167 C  
BRANCH  16  17
HETATM   17  C   UNL     1      -9.902   8.665  66.038  1.00  0.00    -0.183 C  
HETATM   18  C   UNL     1      -9.259   9.733  65.187  1.00  0.00    -0.240 C  
HETATM   19  O   UNL     1      -8.081   9.770  64.863  1.00  0.00    -0.127 OA 
HETATM   20  O   UNL     1     -10.144  10.682  64.803  1.00  0.00    -0.304 OA 
ENDBRANCH  16  17
ENDBRANCH  15  16
ENDBRANCH  14  15
ENDBRANCH  13  14
ENDBRANCH  11  12
ENDBRANCH  10  11
ENDBRANCH   8   9
ENDBRANCH   7   8
ENDBRANCH   5   6
ENDBRANCH   4   5
ENDBRANCH   3   4
ENDBRANCH   2   3
TORSDOF 12
ENDMDL
MODEL      329
REMARK 921   NORMALIZED FREE ENERGY PREDICTED BY IDOCK:   -3.07 KCAL/MOL
REMARK 922        TOTAL FREE ENERGY PREDICTED BY IDOCK:   -7.17 KCAL/MOL
REMARK 923 INTER-LIGAND FREE ENERGY PREDICTED BY IDOCK:   -6.55 KCAL/MOL
REMARK 924 INTRA-LIGAND FREE ENERGY PREDICTED BY IDOCK:   -0.62 KCAL/MOL
REMARK 927      BINDING AFFINITY PREDICTED BY RF-SCORE:    0.00 PKD
ROOT
HETATM    1  C   UNL     1     -11.309  15.970  70.049  1.00  0.00    -0.353 C  
HETATM    2  C   UNL     1     -11.344  15.520  71.499  1.00  0.00    -0.466 C  
ENDROOT
BRANCH   2   3
HETATM    3  C   UNL     1     -12.623  15.982  72.187  1.00  0.00    -0.489 C  
BRANCH   3   4
HETATM    4  C   UNL     1     -13.246  14.855  73.009  1.00  0.00    -0.596 C  
BRANCH   4   5
HETATM    5  C   UNL     1     -14.057  13.946  72.095  1.00  0.00    -0.630 C  
BRANCH   5   6
HETATM    6  C   UNL     1     -13.810  12.486  72.336  1.00  0.00    -0.171 C  
HETATM    7  C   UNL     1     -12.951  11.770  71.594  1.00  0.00    -0.467 C  
BRANCH   7   8
HETATM    8  C   UNL     1     -12.169  12.328  70.442  1.00  0.00    -0.371 C  
BRANCH   8   9
HETATM    9  C   UNL     1     -11.727  11.255  69.495  1.00  0.00    -0.415 C  
HETATM   10  C   UNL     1     -11.373  10.013  69.859  1.00  0.00    -0.306 C  
BRANCH  10  11
HETATM   11  C   UNL     1     -11.271   9.532  71.274  1.00  0.00    -0.452 C  
BRANCH  11  12
HETATM   12  C   UNL     1      -9.873   9.095  71.611  1.00  0.00    -0.295 C  
HETATM   13  C   UNL     1      -9.562   7.981  72.292  1.00  0.00    -0.286 C  
BRANCH  13  14
HETATM   14  C   UNL     1     -10.608   7.043  72.810  1.00  0.00    -0.284 C  
BRANCH  14  15
HETATM   15  C   UNL     1     -10.913   5.883  71.871  1.00  0.00    -0.321 C  
BRANCH  15  16
HETATM   16  C   UNL     1      -9.608   5.376  71.258  1.00  0.00    -0.205 C  
BRANCH  16  17
HETATM   17  C   UNL     1      -9.092   4.143  71.986  1.00  0.00    -0.160 C  
HETATM   18  C   UNL     1      -9.245   2.897  71.147  1.00  0.00    -0.127 C  
HETATM   19  O   UNL     1      -9.722   2.852  70.022  1.00  0.00    -0.100 OA 
HETATM   20  O   UNL     1      -8.788   1.793  71.783  1.00  0.00    -0.058 OA 
ENDBRANCH  16  17
ENDBRANCH  15  16
ENDBRANCH  14  15
ENDBRANCH  13  14
ENDBRANCH  11  12
ENDBRANCH  10  11
ENDBRANCH   8   9
ENDBRANCH   7   8
ENDBRANCH   5   6
ENDBRANCH   4   5
ENDBRANCH   3   4
ENDBRANCH   2   3
TORSDOF 12
ENDMDL
MODEL      330
REMARK 921   NORMALIZED FREE ENERGY PREDICTED BY IDOCK:   -3.06 KCAL/MOL
REMARK 922        TOTAL FREE ENERGY PREDICTED BY IDOCK:   -7.16 KCAL/MOL
REMARK 923 INTER-LIGAND FREE ENERGY PREDICTED BY IDOCK:   -5.70 KCAL/MOL
REMARK 924 INTRA-LIGAND FREE ENERGY PREDICTED BY IDOCK:   -1.46 KCAL/MOL
REMARK 927      BINDING AFFINITY PREDICTED BY RF-SCORE:    0.00 PKD
ROOT
HETATM    1  C   UNL     1     -10.823  15.573  70.219  1.00  0.00    -0.358 C  
HETATM    2  C   UNL     1     -10.792  15.187  71.687  1.00  0.00     0.159 C  
ENDROOT
BRANCH   2   3
HETATM    3  C   UNL     1     -12.130  15.471  72.359  1.00  0.00    -0.527 C  
BRANCH   3   4
HETATM    4  C   UNL     1     -12.692  14.215  73.022  1.00  0.00    -0.310 C  
BRANCH   4   5
HETATM    5  C   UNL     1     -13.517  13.430  72.012  1.00  0.00    -0.584 C  
BRANCH   5   6
HETATM    6  C   UNL     1     -13.119  11.987  71.911  1.00  0.00    -0.475 C  
HETATM    7  C   UNL     1     -12.404  11.509  70.880  1.00  0.00    -0.460 C  
BRANCH   7   8
HETATM    8  C   UNL     1     -11.948  12.338  69.718  1.00  0.00    -0.365 C  
BRANCH   8   9
HETATM    9  C   UNL     1     -11.866  11.536  68.456  1.00  0.00    -0.365 C  
HETATM   10  C   UNL     1     -11.090  10.454  68.289  1.00  0.00    -0.338 C  
BRANCH  10  11
HETATM   11  C   UNL     1     -10.114   9.935  69.301  1.00  0.00    -0.214 C  
BRANCH  11  12
HETATM   12  C   UNL     1      -8.774  10.603  69.171  1.00  0.00    -0.135 C  
HETATM   13  C   UNL     1      -7.778  10.174  68.381  1.00  0.00    -0.089 C  
BRANCH  13  14
HETATM   14  C   UNL     1      -7.901   8.943  67.536  1.00  0.00    -0.101 C  
BRANCH  14  15
HETATM   15  C   UNL     1      -7.757   9.204  66.043  1.00  0.00    -0.095 C  
BRANCH  15  16
HETATM   16  C   UNL     1      -9.132   9.513  65.452  1.00  0.00    -0.273 C  
BRANCH  16  17
HETATM   17  C   UNL     1      -9.297  10.999  65.168  1.00  0.00    -0.249 C  
HETATM   18  C   UNL     1      -9.714  11.250  63.739  1.00  0.00    -0.298 C  
HETATM   19  O   UNL     1      -9.901  10.389  62.892  1.00  0.00    -0.287 OA 
HETATM   20  O   UNL     1      -9.865  12.569  63.475  1.00  0.00    -0.340 OA 
ENDBRANCH  16  17
ENDBRANCH  15  16
ENDBRANCH  14  15
ENDBRANCH  13  14
ENDBRANCH  11  12
ENDBRANCH  10  11
ENDBRANCH   8   9
ENDBRANCH   7   8
ENDBRANCH   5   6
ENDBRANCH   4   5
ENDBRANCH   3   4
ENDBRANCH   2   3
TORSDOF 12
ENDMDL
MODEL      331
REMARK 921   NORMALIZED FREE ENERGY PREDICTED BY IDOCK:   -3.05 KCAL/MOL
REMARK 922        TOTAL FREE ENERGY PREDICTED BY IDOCK:   -7.15 KCAL/MOL
REMARK 923 INTER-LIGAND FREE ENERGY PREDICTED BY IDOCK:   -4.67 KCAL/MOL
REMARK 924 INTRA-LIGAND FREE ENERGY PREDICTED BY IDOCK:   -2.48 KCAL/MOL
REMARK 927      BINDING AFFINITY PREDICTED BY RF-SCORE:    0.00 PKD
ROOT
HETATM    1  C   UNL     1      -8.171   5.245  71.669  1.00  0.00    -0.118 C  
HETATM    2  C   UNL     1      -9.004   5.869  70.564  1.00  0.00    -0.151 C  
ENDROOT
BRANCH   2   3
HETATM    3  C   UNL     1     -10.475   5.939  70.957  1.00  0.00    -0.296 C  
BRANCH   3   4
HETATM    4  C   UNL     1     -11.351   6.288  69.755  1.00  0.00    -0.506 C  
BRANCH   4   5
HETATM    5  C   UNL     1     -10.718   5.738  68.485  1.00  0.00    -0.288 C  
BRANCH   5   6
HETATM    6  C   UNL     1     -11.101   6.499  67.250  1.00  0.00    -0.429 C  
HETATM    7  C   UNL     1     -10.248   7.320  66.619  1.00  0.00    -0.232 C  
BRANCH   7   8
HETATM    8  C   UNL     1      -8.846   7.590  67.077  1.00  0.00    -0.134 C  
BRANCH   8   9
HETATM    9  C   UNL     1      -7.892   7.698  65.928  1.00  0.00    -0.103 C  
HETATM   10  C   UNL     1      -7.572   8.843  65.306  1.00  0.00    -0.098 C  
BRANCH  10  11
HETATM   11  C   UNL     1      -8.188  10.177  65.599  1.00  0.00    -0.150 C  
BRANCH  11  12
HETATM   12  C   UNL     1      -9.445  10.393  64.804  1.00  0.00    -0.329 C  
HETATM   13  C   UNL     1     -10.524  11.060  65.243  1.00  0.00    -0.316 C  
BRANCH  13  14
HETATM   14  C   UNL     1     -10.588  11.662  66.614  1.00  0.00    -0.281 C  
BRANCH  14  15
HETATM   15  C   UNL     1     -11.191  10.738  67.663  1.00  0.00    -0.370 C  
BRANCH  15  16
HETATM   16  C   UNL     1     -10.630  11.105  69.037  1.00  0.00    -0.251 C  
BRANCH  16  17
HETATM   17  C   UNL     1      -9.829   9.958  69.637  1.00  0.00    -0.255 C  
HETATM   18  C   UNL     1      -8.344  10.163  69.458  1.00  0.00    -0.168 C  
HETATM   19  O   UNL     1      -7.821  11.117  68.903  1.00  0.00    -0.135 OA 
HETATM   20  O   UNL     1      -7.621   9.150  69.989  1.00  0.00    -0.062 OA 
ENDBRANCH  16  17
ENDBRANCH  15  16
ENDBRANCH  14  15
ENDBRANCH  13  14
ENDBRANCH  11  12
ENDBRANCH  10  11
ENDBRANCH   8   9
ENDBRANCH   7   8
ENDBRANCH   5   6
ENDBRANCH   4   5
ENDBRANCH   3   4
ENDBRANCH   2   3
TORSDOF 12
ENDMDL
MODEL      332
REMARK 921   NORMALIZED FREE ENERGY PREDICTED BY IDOCK:   -3.05 KCAL/MOL
REMARK 922        TOTAL FREE ENERGY PREDICTED BY IDOCK:   -7.14 KCAL/MOL
REMARK 923 INTER-LIGAND FREE ENERGY PREDICTED BY IDOCK:   -4.80 KCAL/MOL
REMARK 924 INTRA-LIGAND FREE ENERGY PREDICTED BY IDOCK:   -2.34 KCAL/MOL
REMARK 927      BINDING AFFINITY PREDICTED BY RF-SCORE:    0.00 PKD
ROOT
HETATM    1  C   UNL     1     -11.830   9.865  71.219  1.00  0.00    -0.479 C  
HETATM    2  C   UNL     1     -10.856  10.025  70.065  1.00  0.00    -0.352 C  
ENDROOT
BRANCH   2   3
HETATM    3  C   UNL     1      -9.519   9.363  70.378  1.00  0.00    -0.319 C  
BRANCH   3   4
HETATM    4  C   UNL     1      -9.513   8.771  71.787  1.00  0.00    -0.363 C  
BRANCH   4   5
HETATM    5  C   UNL     1      -8.488   7.648  71.863  1.00  0.00    -0.128 C  
BRANCH   5   6
HETATM    6  C   UNL     1      -8.977   6.445  72.614  1.00  0.00    -0.132 C  
HETATM    7  C   UNL     1      -9.449   5.352  71.993  1.00  0.00    -0.172 C  
BRANCH   7   8
HETATM    8  C   UNL     1      -9.563   5.216  70.504  1.00  0.00    -0.244 C  
BRANCH   8   9
HETATM    9  C   UNL     1     -10.897   5.675  70.002  1.00  0.00    -0.366 C  
HETATM   10  C   UNL     1     -11.095   6.328  68.846  1.00  0.00    -0.434 C  
BRANCH  10  11
HETATM   11  C   UNL     1     -10.006   6.785  67.924  1.00  0.00    -0.164 C  
BRANCH  11  12
HETATM   12  C   UNL     1     -10.416   8.004  67.145  1.00  0.00    -0.408 C  
HETATM   13  C   UNL     1      -9.747   8.501  66.093  1.00  0.00    -0.259 C  
BRANCH  13  14
HETATM   14  C   UNL     1      -8.482   7.880  65.585  1.00  0.00    -0.160 C  
BRANCH  14  15
HETATM   15  C   UNL     1      -7.324   8.861  65.458  1.00  0.00    -0.085 C  
BRANCH  15  16
HETATM   16  C   UNL     1      -7.858  10.288  65.585  1.00  0.00    -0.151 C  
BRANCH  16  17
HETATM   17  C   UNL     1      -7.423  10.932  66.894  1.00  0.00    -0.128 C  
HETATM   18  C   UNL     1      -8.515  11.794  67.480  1.00  0.00    -0.154 C  
HETATM   19  O   UNL     1      -9.619  11.975  66.987  1.00  0.00    -0.189 OA 
HETATM   20  O   UNL     1      -8.140  12.372  68.645  1.00  0.00    -0.114 OA 
ENDBRANCH  16  17
ENDBRANCH  15  16
ENDBRANCH  14  15
ENDBRANCH  13  14
ENDBRANCH  11  12
ENDBRANCH  10  11
ENDBRANCH   8   9
ENDBRANCH   7   8
ENDBRANCH   5   6
ENDBRANCH   4   5
ENDBRANCH   3   4
ENDBRANCH   2   3
TORSDOF 12
ENDMDL
MODEL      333
REMARK 921   NORMALIZED FREE ENERGY PREDICTED BY IDOCK:   -3.03 KCAL/MOL
REMARK 922        TOTAL FREE ENERGY PREDICTED BY IDOCK:   -7.10 KCAL/MOL
REMARK 923 INTER-LIGAND FREE ENERGY PREDICTED BY IDOCK:   -4.66 KCAL/MOL
REMARK 924 INTRA-LIGAND FREE ENERGY PREDICTED BY IDOCK:   -2.45 KCAL/MOL
REMARK 927      BINDING AFFINITY PREDICTED BY RF-SCORE:    0.00 PKD
ROOT
HETATM    1  C   UNL     1     -11.413  10.847  68.272  1.00  0.00    -0.376 C  
HETATM    2  C   UNL     1     -11.484  10.607  69.769  1.00  0.00    -0.375 C  
ENDROOT
BRANCH   2   3
HETATM    3  C   UNL     1     -10.288   9.795  70.253  1.00  0.00    -0.348 C  
BRANCH   3   4
HETATM    4  C   UNL     1      -9.274   9.583  69.130  1.00  0.00    -0.163 C  
BRANCH   4   5
HETATM    5  C   UNL     1      -7.983  10.318  69.463  1.00  0.00    -0.171 C  
BRANCH   5   6
HETATM    6  C   UNL     1      -7.229  10.777  68.250  1.00  0.00    -0.084 C  
HETATM    7  C   UNL     1      -7.479  11.951  67.650  1.00  0.00    -0.127 C  
BRANCH   7   8
HETATM    8  C   UNL     1      -8.538  12.914  68.096  1.00  0.00    -0.188 C  
BRANCH   8   9
HETATM    9  C   UNL     1      -7.970  14.264  68.409  1.00  0.00    -0.143 C  
HETATM   10  C   UNL     1      -8.519  15.145  69.259  1.00  0.00    -0.209 C  
BRANCH  10  11
HETATM   11  C   UNL     1      -9.833  14.959  69.955  1.00  0.00     0.200 C  
BRANCH  11  12
HETATM   12  C   UNL     1     -10.879  15.898  69.423  1.00  0.00    -0.288 C  
HETATM   13  C   UNL     1     -11.817  15.567  68.521  1.00  0.00    -0.276 C  
BRANCH  13  14
HETATM   14  C   UNL     1     -11.906  14.194  67.928  1.00  0.00    -0.405 C  
BRANCH  14  15
HETATM   15  C   UNL     1     -11.505  14.131  66.460  1.00  0.00    -0.368 C  
BRANCH  15  16
HETATM   16  C   UNL     1     -11.158  15.538  65.973  1.00  0.00    -0.185 C  
BRANCH  16  17
HETATM   17  C   UNL     1      -9.699  15.639  65.553  1.00  0.00    -0.286 C  
HETATM   18  C   UNL     1      -9.045  16.884  66.104  1.00  0.00    -0.230 C  
HETATM   19  O   UNL     1      -9.594  17.725  66.801  1.00  0.00    -0.277 OA 
HETATM   20  O   UNL     1      -7.747  16.984  65.738  1.00  0.00    -0.357 OA 
ENDBRANCH  16  17
ENDBRANCH  15  16
ENDBRANCH  14  15
ENDBRANCH  13  14
ENDBRANCH  11  12
ENDBRANCH  10  11
ENDBRANCH   8   9
ENDBRANCH   7   8
ENDBRANCH   5   6
ENDBRANCH   4   5
ENDBRANCH   3   4
ENDBRANCH   2   3
TORSDOF 12
ENDMDL
MODEL      334
REMARK 921   NORMALIZED FREE ENERGY PREDICTED BY IDOCK:   -3.02 KCAL/MOL
REMARK 922        TOTAL FREE ENERGY PREDICTED BY IDOCK:   -7.09 KCAL/MOL
REMARK 923 INTER-LIGAND FREE ENERGY PREDICTED BY IDOCK:   -5.63 KCAL/MOL
REMARK 924 INTRA-LIGAND FREE ENERGY PREDICTED BY IDOCK:   -1.46 KCAL/MOL
REMARK 927      BINDING AFFINITY PREDICTED BY RF-SCORE:    0.00 PKD
ROOT
HETATM    1  C   UNL     1      -7.660   8.430  71.263  1.00  0.00    -0.100 C  
HETATM    2  C   UNL     1      -7.777   7.390  72.363  1.00  0.00    -0.097 C  
ENDROOT
BRANCH   2   3
HETATM    3  C   UNL     1      -8.188   6.036  71.798  1.00  0.00    -0.118 C  
BRANCH   3   4
HETATM    4  C   UNL     1      -9.060   5.266  72.789  1.00  0.00    -0.138 C  
BRANCH   4   5
HETATM    5  C   UNL     1     -10.295   4.733  72.074  1.00  0.00    -0.247 C  
BRANCH   5   6
HETATM    6  C   UNL     1     -10.535   5.377  70.741  1.00  0.00    -0.317 C  
HETATM    7  C   UNL     1     -11.446   6.348  70.566  1.00  0.00    -0.444 C  
BRANCH   7   8
HETATM    8  C   UNL     1     -12.330   6.877  71.654  1.00  0.00    -0.413 C  
BRANCH   8   9
HETATM    9  C   UNL     1     -11.637   7.910  72.487  1.00  0.00    -0.443 C  
HETATM   10  C   UNL     1     -11.332   9.148  72.069  1.00  0.00    -0.333 C  
BRANCH  10  11
HETATM   11  C   UNL     1     -11.551   9.661  70.678  1.00  0.00    -0.371 C  
BRANCH  11  12
HETATM   12  C   UNL     1     -12.649  10.686  70.632  1.00  0.00    -0.454 C  
HETATM   13  C   UNL     1     -12.630  11.796  69.878  1.00  0.00     0.040 C  
BRANCH  13  14
HETATM   14  C   UNL     1     -11.472  12.139  68.991  1.00  0.00    -0.351 C  
BRANCH  14  15
HETATM   15  C   UNL     1     -11.668  11.729  67.538  1.00  0.00    -0.312 C  
BRANCH  15  16
HETATM   16  C   UNL     1     -10.866  12.670  66.638  1.00  0.00    -0.286 C  
BRANCH  16  17
HETATM   17  C   UNL     1     -11.539  12.857  65.286  1.00  0.00    -0.376 C  
HETATM   18  C   UNL     1     -10.757  12.193  64.178  1.00  0.00    -0.360 C  
HETATM   19  O   UNL     1      -9.710  11.578  64.318  1.00  0.00    -0.234 OA 
HETATM   20  O   UNL     1     -11.347  12.352  62.970  1.00  0.00    -0.278 OA 
ENDBRANCH  16  17
ENDBRANCH  15  16
ENDBRANCH  14  15
ENDBRANCH  13  14
ENDBRANCH  11  12
ENDBRANCH  10  11
ENDBRANCH   8   9
ENDBRANCH   7   8
ENDBRANCH   5   6
ENDBRANCH   4   5
ENDBRANCH   3   4
ENDBRANCH   2   3
TORSDOF 12
ENDMDL
MODEL      335
REMARK 921   NORMALIZED FREE ENERGY PREDICTED BY IDOCK:   -3.02 KCAL/MOL
REMARK 922        TOTAL FREE ENERGY PREDICTED BY IDOCK:   -7.09 KCAL/MOL
REMARK 923 INTER-LIGAND FREE ENERGY PREDICTED BY IDOCK:   -4.73 KCAL/MOL
REMARK 924 INTRA-LIGAND FREE ENERGY PREDICTED BY IDOCK:   -2.35 KCAL/MOL
REMARK 927      BINDING AFFINITY PREDICTED BY RF-SCORE:    0.00 PKD
ROOT
HETATM    1  C   UNL     1     -11.360   2.168  73.733  1.00  0.00    -0.289 C  
HETATM    2  C   UNL     1     -10.876   3.572  73.420  1.00  0.00    -0.312 C  
ENDROOT
BRANCH   2   3
HETATM    3  C   UNL     1      -9.674   3.543  72.484  1.00  0.00    -0.209 C  
BRANCH   3   4
HETATM    4  C   UNL     1      -9.798   2.414  71.461  1.00  0.00    -0.197 C  
BRANCH   4   5
HETATM    5  C   UNL     1      -9.149   2.839  70.152  1.00  0.00    -0.188 C  
BRANCH   5   6
HETATM    6  C   UNL     1      -7.652   2.732  70.167  1.00  0.00    -0.043 C  
HETATM    7  C   UNL     1      -6.857   3.717  69.721  1.00  0.00    -0.041 C  
BRANCH   7   8
HETATM    8  C   UNL     1      -7.359   5.006  69.143  1.00  0.00    -0.057 C  
BRANCH   8   9
HETATM    9  C   UNL     1      -7.107   5.095  67.670  1.00  0.00    -0.066 C  
HETATM   10  C   UNL     1      -8.040   4.916  66.723  1.00  0.00    -0.107 C  
BRANCH  10  11
HETATM   11  C   UNL     1      -9.457   4.504  66.985  1.00  0.00    -0.186 C  
BRANCH  11  12
HETATM   12  C   UNL     1     -10.433   5.527  66.474  1.00  0.00    -0.331 C  
HETATM   13  C   UNL     1     -10.903   6.561  67.190  1.00  0.00    -0.472 C  
BRANCH  13  14
HETATM   14  C   UNL     1     -10.500   6.796  68.614  1.00  0.00    -0.232 C  
BRANCH  14  15
HETATM   15  C   UNL     1     -11.233   5.911  69.614  1.00  0.00    -0.319 C  
BRANCH  15  16
HETATM   16  C   UNL     1     -11.442   6.689  70.913  1.00  0.00    -0.401 C  
BRANCH  16  17
HETATM   17  C   UNL     1     -10.117   7.043  71.572  1.00  0.00    -0.197 C  
HETATM   18  C   UNL     1     -10.060   8.500  71.962  1.00  0.00    -0.316 C  
HETATM   19  O   UNL     1     -10.949   9.319  71.783  1.00  0.00    -0.369 OA 
HETATM   20  O   UNL     1      -8.885   8.827  72.550  1.00  0.00    -0.402 OA 
ENDBRANCH  16  17
ENDBRANCH  15  16
ENDBRANCH  14  15
ENDBRANCH  13  14
ENDBRANCH  11  12
ENDBRANCH  10  11
ENDBRANCH   8   9
ENDBRANCH   7   8
ENDBRANCH   5   6
ENDBRANCH   4   5
ENDBRANCH   3   4
ENDBRANCH   2   3
TORSDOF 12
ENDMDL
MODEL      336
REMARK 921   NORMALIZED FREE ENERGY PREDICTED BY IDOCK:   -3.02 KCAL/MOL
REMARK 922        TOTAL FREE ENERGY PREDICTED BY IDOCK:   -7.09 KCAL/MOL
REMARK 923 INTER-LIGAND FREE ENERGY PREDICTED BY IDOCK:   -5.44 KCAL/MOL
REMARK 924 INTRA-LIGAND FREE ENERGY PREDICTED BY IDOCK:   -1.65 KCAL/MOL
REMARK 927      BINDING AFFINITY PREDICTED BY RF-SCORE:    0.00 PKD
ROOT
HETATM    1  C   UNL     1      -8.245  14.469  67.977  1.00  0.00    -0.145 C  
HETATM    2  C   UNL     1      -8.626  15.588  68.930  1.00  0.00    -0.209 C  
ENDROOT
BRANCH   2   3
HETATM    3  C   UNL     1     -10.137  15.789  68.964  1.00  0.00    -0.225 C  
BRANCH   3   4
HETATM    4  C   UNL     1     -10.724  15.338  70.300  1.00  0.00    -0.283 C  
BRANCH   4   5
HETATM    5  C   UNL     1     -11.966  14.493  70.051  1.00  0.00    -0.388 C  
BRANCH   5   6
HETATM    6  C   UNL     1     -11.911  13.717  68.768  1.00  0.00    -0.400 C  
HETATM    7  C   UNL     1     -11.654  12.400  68.734  1.00  0.00    -0.373 C  
BRANCH   7   8
HETATM    8  C   UNL     1     -11.372  11.568  69.948  1.00  0.00    -0.267 C  
BRANCH   8   9
HETATM    9  C   UNL     1     -12.631  11.112  70.619  1.00  0.00    -0.408 C  
HETATM   10  C   UNL     1     -12.789   9.922  71.217  1.00  0.00    -0.486 C  
BRANCH  10  11
HETATM   11  C   UNL     1     -11.768   8.825  71.226  1.00  0.00    -0.356 C  
BRANCH  11  12
HETATM   12  C   UNL     1     -11.811   8.039  72.506  1.00  0.00    -0.419 C  
HETATM   13  C   UNL     1     -10.731   7.637  73.195  1.00  0.00    -0.445 C  
BRANCH  13  14
HETATM   14  C   UNL     1      -9.336   7.929  72.734  1.00  0.00    -0.297 C  
BRANCH  14  15
HETATM   15  C   UNL     1      -8.713   6.809  71.913  1.00  0.00    -0.123 C  
BRANCH  15  16
HETATM   16  C   UNL     1      -7.724   7.409  70.913  1.00  0.00    -0.088 C  
BRANCH  16  17
HETATM   17  C   UNL     1      -8.337   8.578  70.155  1.00  0.00    -0.123 C  
HETATM   18  C   UNL     1      -8.822   8.161  68.787  1.00  0.00    -0.138 C  
HETATM   19  O   UNL     1      -8.742   7.035  68.318  1.00  0.00    -0.128 OA 
HETATM   20  O   UNL     1      -9.371   9.192  68.103  1.00  0.00    -0.138 OA 
ENDBRANCH  16  17
ENDBRANCH  15  16
ENDBRANCH  14  15
ENDBRANCH  13  14
ENDBRANCH  11  12
ENDBRANCH  10  11
ENDBRANCH   8   9
ENDBRANCH   7   8
ENDBRANCH   5   6
ENDBRANCH   4   5
ENDBRANCH   3   4
ENDBRANCH   2   3
TORSDOF 12
ENDMDL
MODEL      337
REMARK 921   NORMALIZED FREE ENERGY PREDICTED BY IDOCK:   -3.01 KCAL/MOL
REMARK 922        TOTAL FREE ENERGY PREDICTED BY IDOCK:   -7.08 KCAL/MOL
REMARK 923 INTER-LIGAND FREE ENERGY PREDICTED BY IDOCK:   -5.33 KCAL/MOL
REMARK 924 INTRA-LIGAND FREE ENERGY PREDICTED BY IDOCK:   -1.75 KCAL/MOL
REMARK 927      BINDING AFFINITY PREDICTED BY RF-SCORE:    0.00 PKD
ROOT
HETATM    1  C   UNL     1      -8.184   6.337  72.790  1.00  0.00    -0.112 C  
HETATM    2  C   UNL     1      -9.075   6.838  71.667  1.00  0.00    -0.144 C  
ENDROOT
BRANCH   2   3
HETATM    3  C   UNL     1     -10.547   6.620  71.995  1.00  0.00    -0.236 C  
BRANCH   3   4
HETATM    4  C   UNL     1     -11.401   6.627  70.728  1.00  0.00    -0.389 C  
BRANCH   4   5
HETATM    5  C   UNL     1     -10.672   5.884  69.617  1.00  0.00    -0.415 C  
BRANCH   5   6
HETATM    6  C   UNL     1     -10.899   6.474  68.257  1.00  0.00    -0.359 C  
HETATM    7  C   UNL     1      -9.997   7.266  67.657  1.00  0.00    -0.207 C  
BRANCH   7   8
HETATM    8  C   UNL     1      -8.691   7.669  68.274  1.00  0.00    -0.123 C  
BRANCH   8   9
HETATM    9  C   UNL     1      -7.641   6.616  68.099  1.00  0.00    -0.104 C  
HETATM   10  C   UNL     1      -6.645   6.672  67.203  1.00  0.00    -0.051 C  
BRANCH  10  11
HETATM   11  C   UNL     1      -6.480   7.748  66.173  1.00  0.00    -0.046 C  
BRANCH  11  12
HETATM   12  C   UNL     1      -7.181   7.397  64.890  1.00  0.00    -0.067 C  
HETATM   13  C   UNL     1      -7.902   8.256  64.152  1.00  0.00    -0.145 C  
BRANCH  13  14
HETATM   14  C   UNL     1      -8.097   9.686  64.553  1.00  0.00    -0.143 C  
BRANCH  14  15
HETATM   15  C   UNL     1      -9.472   9.979  65.136  1.00  0.00    -0.331 C  
BRANCH  15  16
HETATM   16  C   UNL     1      -9.780  11.468  64.973  1.00  0.00    -0.268 C  
BRANCH  16  17
HETATM   17  C   UNL     1     -10.864  11.703  63.932  1.00  0.00    -0.471 C  
HETATM   18  C   UNL     1     -12.169  12.115  64.570  1.00  0.00    -0.319 C  
HETATM   19  O   UNL     1     -12.362  12.248  65.769  1.00  0.00    -0.622 OA 
HETATM   20  O   UNL     1     -13.142  12.328  63.653  1.00  0.00    -0.780 OA 
ENDBRANCH  16  17
ENDBRANCH  15  16
ENDBRANCH  14  15
ENDBRANCH  13  14
ENDBRANCH  11  12
ENDBRANCH  10  11
ENDBRANCH   8   9
ENDBRANCH   7   8
ENDBRANCH   5   6
ENDBRANCH   4   5
ENDBRANCH   3   4
ENDBRANCH   2   3
TORSDOF 12
ENDMDL
MODEL      338
REMARK 921   NORMALIZED FREE ENERGY PREDICTED BY IDOCK:   -3.00 KCAL/MOL
REMARK 922        TOTAL FREE ENERGY PREDICTED BY IDOCK:   -7.07 KCAL/MOL
REMARK 923 INTER-LIGAND FREE ENERGY PREDICTED BY IDOCK:   -5.99 KCAL/MOL
REMARK 924 INTRA-LIGAND FREE ENERGY PREDICTED BY IDOCK:   -1.08 KCAL/MOL
REMARK 927      BINDING AFFINITY PREDICTED BY RF-SCORE:    0.00 PKD
ROOT
HETATM    1  C   UNL     1      -9.812  16.488  66.142  1.00  0.00    -0.355 C  
HETATM    2  C   UNL     1     -10.670  15.478  65.401  1.00  0.00    -0.422 C  
ENDROOT
BRANCH   2   3
HETATM    3  C   UNL     1     -11.285  14.469  66.363  1.00  0.00    -0.341 C  
BRANCH   3   4
HETATM    4  C   UNL     1     -11.181  14.950  67.810  1.00  0.00    -0.329 C  
BRANCH   4   5
HETATM    5  C   UNL     1     -11.901  13.972  68.726  1.00  0.00    -0.396 C  
BRANCH   5   6
HETATM    6  C   UNL     1     -11.791  12.544  68.278  1.00  0.00    -0.361 C  
HETATM    7  C   UNL     1     -11.918  11.512  69.127  1.00  0.00    -0.386 C  
BRANCH   7   8
HETATM    8  C   UNL     1     -12.157  11.661  70.600  1.00  0.00    -0.432 C  
BRANCH   8   9
HETATM    9  C   UNL     1     -13.150  10.663  71.109  1.00  0.00    -0.415 C  
HETATM   10  C   UNL     1     -12.835   9.539  71.769  1.00  0.00    -0.496 C  
BRANCH  10  11
HETATM   11  C   UNL     1     -11.438   9.055  72.017  1.00  0.00    -0.408 C  
BRANCH  11  12
HETATM   12  C   UNL     1     -10.915   8.255  70.857  1.00  0.00    -0.275 C  
HETATM   13  C   UNL     1     -10.914   6.914  70.790  1.00  0.00    -0.297 C  
BRANCH  13  14
HETATM   14  C   UNL     1     -11.436   6.058  71.904  1.00  0.00    -0.328 C  
BRANCH  14  15
HETATM   15  C   UNL     1     -10.345   5.430  72.760  1.00  0.00    -0.235 C  
BRANCH  15  16
HETATM   16  C   UNL     1     -10.067   4.013  72.259  1.00  0.00    -0.240 C  
BRANCH  16  17
HETATM   17  C   UNL     1      -8.850   3.972  71.346  1.00  0.00    -0.145 C  
HETATM   18  C   UNL     1      -7.600   3.590  72.102  1.00  0.00    -0.058 C  
HETATM   19  O   UNL     1      -7.541   3.342  73.298  1.00  0.00    -0.054 OA 
HETATM   20  O   UNL     1      -6.510   3.549  71.301  1.00  0.00    -0.018 OA 
ENDBRANCH  16  17
ENDBRANCH  15  16
ENDBRANCH  14  15
ENDBRANCH  13  14
ENDBRANCH  11  12
ENDBRANCH  10  11
ENDBRANCH   8   9
ENDBRANCH   7   8
ENDBRANCH   5   6
ENDBRANCH   4   5
ENDBRANCH   3   4
ENDBRANCH   2   3
TORSDOF 12
ENDMDL
MODEL      339
REMARK 921   NORMALIZED FREE ENERGY PREDICTED BY IDOCK:   -3.00 KCAL/MOL
REMARK 922        TOTAL FREE ENERGY PREDICTED BY IDOCK:   -7.07 KCAL/MOL
REMARK 923 INTER-LIGAND FREE ENERGY PREDICTED BY IDOCK:   -5.19 KCAL/MOL
REMARK 924 INTRA-LIGAND FREE ENERGY PREDICTED BY IDOCK:   -1.87 KCAL/MOL
REMARK 927      BINDING AFFINITY PREDICTED BY RF-SCORE:    0.00 PKD
ROOT
HETATM    1  C   UNL     1      -6.223  10.509  67.629  1.00  0.00    -0.056 C  
HETATM    2  C   UNL     1      -7.366   9.655  67.111  1.00  0.00    -0.087 C  
ENDROOT
BRANCH   2   3
HETATM    3  C   UNL     1      -8.135   9.011  68.258  1.00  0.00    -0.109 C  
BRANCH   3   4
HETATM    4  C   UNL     1      -9.507   8.522  67.797  1.00  0.00    -0.168 C  
BRANCH   4   5
HETATM    5  C   UNL     1     -10.241   9.655  67.091  1.00  0.00    -0.305 C  
BRANCH   5   6
HETATM    6  C   UNL     1     -11.016  10.536  68.026  1.00  0.00    -0.345 C  
HETATM    7  C   UNL     1     -10.688  11.819  68.242  1.00  0.00    -0.246 C  
BRANCH   7   8
HETATM    8  C   UNL     1      -9.516  12.505  67.606  1.00  0.00    -0.188 C  
BRANCH   8   9
HETATM    9  C   UNL     1      -9.788  12.872  66.180  1.00  0.00    -0.270 C  
HETATM   10  C   UNL     1     -10.410  13.994  65.786  1.00  0.00    -0.330 C  
BRANCH  10  11
HETATM   11  C   UNL     1     -11.014  15.008  66.709  1.00  0.00    -0.323 C  
BRANCH  11  12
HETATM   12  C   UNL     1     -10.019  16.066  67.095  1.00  0.00    -0.249 C  
HETATM   13  C   UNL     1      -9.607  16.309  68.349  1.00  0.00    -0.216 C  
BRANCH  13  14
HETATM   14  C   UNL     1     -10.123  15.535  69.524  1.00  0.00    -0.278 C  
BRANCH  14  15
HETATM   15  C   UNL     1     -11.233  16.245  70.288  1.00  0.00    -0.343 C  
BRANCH  15  16
HETATM   16  C   UNL     1     -12.562  15.542  70.013  1.00  0.00    -0.232 C  
BRANCH  16  17
HETATM   17  C   UNL     1     -13.478  15.585  71.227  1.00  0.00    -0.560 C  
HETATM   18  C   UNL     1     -13.584  14.234  71.893  1.00  0.00    -0.413 C  
HETATM   19  O   UNL     1     -13.020  13.214  71.524  1.00  0.00    -0.366 OA 
HETATM   20  O   UNL     1     -14.396  14.260  72.975  1.00  0.00    -0.110 OA 
ENDBRANCH  16  17
ENDBRANCH  15  16
ENDBRANCH  14  15
ENDBRANCH  13  14
ENDBRANCH  11  12
ENDBRANCH  10  11
ENDBRANCH   8   9
ENDBRANCH   7   8
ENDBRANCH   5   6
ENDBRANCH   4   5
ENDBRANCH   3   4
ENDBRANCH   2   3
TORSDOF 12
ENDMDL
MODEL      340
REMARK 921   NORMALIZED FREE ENERGY PREDICTED BY IDOCK:   -3.00 KCAL/MOL
REMARK 922        TOTAL FREE ENERGY PREDICTED BY IDOCK:   -7.06 KCAL/MOL
REMARK 923 INTER-LIGAND FREE ENERGY PREDICTED BY IDOCK:   -5.44 KCAL/MOL
REMARK 924 INTRA-LIGAND FREE ENERGY PREDICTED BY IDOCK:   -1.63 KCAL/MOL
REMARK 927      BINDING AFFINITY PREDICTED BY RF-SCORE:    0.00 PKD
ROOT
HETATM    1  C   UNL     1      -9.321  10.032  64.569  1.00  0.00    -0.345 C  
HETATM    2  C   UNL     1     -10.041  10.722  65.714  1.00  0.00    -0.320 C  
ENDROOT
BRANCH   2   3
HETATM    3  C   UNL     1     -10.337   9.746  66.846  1.00  0.00    -0.301 C  
BRANCH   3   4
HETATM    4  C   UNL     1     -10.547  10.481  68.169  1.00  0.00    -0.240 C  
BRANCH   4   5
HETATM    5  C   UNL     1      -9.419  11.482  68.380  1.00  0.00    -0.195 C  
BRANCH   5   6
HETATM    6  C   UNL     1      -8.208  10.885  69.033  1.00  0.00    -0.126 C  
HETATM    7  C   UNL     1      -6.976  11.013  68.516  1.00  0.00    -0.070 C  
BRANCH   7   8
HETATM    8  C   UNL     1      -6.673  11.733  67.236  1.00  0.00    -0.133 C  
BRANCH   8   9
HETATM    9  C   UNL     1      -5.775  12.911  67.455  1.00  0.00    -0.100 C  
HETATM   10  C   UNL     1      -6.199  14.157  67.714  1.00  0.00    -0.153 C  
BRANCH  10  11
HETATM   11  C   UNL     1      -7.635  14.587  67.730  1.00  0.00    -0.171 C  
BRANCH  11  12
HETATM   12  C   UNL     1      -8.003  15.237  69.034  1.00  0.00    -0.195 C  
HETATM   13  C   UNL     1      -8.049  16.563  69.242  1.00  0.00    -0.087 C  
BRANCH  13  14
HETATM   14  C   UNL     1      -7.715  17.552  68.168  1.00  0.00    -0.231 C  
BRANCH  14  15
HETATM   15  C   UNL     1      -8.125  18.981  68.499  1.00  0.00    -0.385 C  
BRANCH  15  16
HETATM   16  C   UNL     1      -9.615  19.156  68.206  1.00  0.00    -0.416 C  
BRANCH  16  17
HETATM   17  C   UNL     1     -10.107  18.136  67.189  1.00  0.00    -0.358 C  
HETATM   18  C   UNL     1     -10.536  18.797  65.901  1.00  0.00    -0.376 C  
HETATM   19  O   UNL     1     -10.506  19.998  65.674  1.00  0.00    -0.458 OA 
HETATM   20  O   UNL     1     -10.974  17.900  64.987  1.00  0.00    -0.776 OA 
ENDBRANCH  16  17
ENDBRANCH  15  16
ENDBRANCH  14  15
ENDBRANCH  13  14
ENDBRANCH  11  12
ENDBRANCH  10  11
ENDBRANCH   8   9
ENDBRANCH   7   8
ENDBRANCH   5   6
ENDBRANCH   4   5
ENDBRANCH   3   4
ENDBRANCH   2   3
TORSDOF 12
ENDMDL
MODEL      341
REMARK 921   NORMALIZED FREE ENERGY PREDICTED BY IDOCK:   -2.99 KCAL/MOL
REMARK 922        TOTAL FREE ENERGY PREDICTED BY IDOCK:   -7.04 KCAL/MOL
REMARK 923 INTER-LIGAND FREE ENERGY PREDICTED BY IDOCK:   -5.26 KCAL/MOL
REMARK 924 INTRA-LIGAND FREE ENERGY PREDICTED BY IDOCK:   -1.77 KCAL/MOL
REMARK 927      BINDING AFFINITY PREDICTED BY RF-SCORE:    0.00 PKD
ROOT
HETATM    1  C   UNL     1     -11.867  12.049  68.514  1.00  0.00    -0.369 C  
HETATM    2  C   UNL     1     -11.717  13.553  68.368  1.00  0.00    -0.393 C  
ENDROOT
BRANCH   2   3
HETATM    3  C   UNL     1     -11.791  13.973  66.905  1.00  0.00    -0.458 C  
BRANCH   3   4
HETATM    4  C   UNL     1     -11.031  15.277  66.667  1.00  0.00    -0.297 C  
BRANCH   4   5
HETATM    5  C   UNL     1      -9.711  14.977  65.971  1.00  0.00    -0.359 C  
BRANCH   5   6
HETATM    6  C   UNL     1      -8.518  15.115  66.871  1.00  0.00    -0.278 C  
HETATM    7  C   UNL     1      -7.854  14.053  67.352  1.00  0.00    -0.188 C  
BRANCH   7   8
HETATM    8  C   UNL     1      -8.232  12.629  67.072  1.00  0.00    -0.110 C  
BRANCH   8   9
HETATM    9  C   UNL     1      -8.417  11.842  68.333  1.00  0.00    -0.155 C  
HETATM   10  C   UNL     1      -8.600  10.514  68.384  1.00  0.00    -0.132 C  
BRANCH  10  11
HETATM   11  C   UNL     1      -8.744   9.623  67.187  1.00  0.00    -0.137 C  
BRANCH  11  12
HETATM   12  C   UNL     1     -10.164   9.162  67.009  1.00  0.00    -0.333 C  
HETATM   13  C   UNL     1     -10.599   7.913  67.239  1.00  0.00    -0.365 C  
BRANCH  13  14
HETATM   14  C   UNL     1      -9.683   6.820  67.697  1.00  0.00    -0.146 C  
BRANCH  14  15
HETATM   15  C   UNL     1     -10.235   5.999  68.855  1.00  0.00    -0.246 C  
BRANCH  15  16
HETATM   16  C   UNL     1     -10.693   6.944  69.967  1.00  0.00    -0.276 C  
BRANCH  16  17
HETATM   17  C   UNL     1     -11.005   6.186  71.249  1.00  0.00    -0.340 C  
HETATM   18  C   UNL     1     -10.564   6.955  72.471  1.00  0.00    -0.222 C  
HETATM   19  O   UNL     1     -10.019   8.049  72.464  1.00  0.00    -0.219 OA 
HETATM   20  O   UNL     1     -10.837   6.292  73.619  1.00  0.00    -0.242 OA 
ENDBRANCH  16  17
ENDBRANCH  15  16
ENDBRANCH  14  15
ENDBRANCH  13  14
ENDBRANCH  11  12
ENDBRANCH  10  11
ENDBRANCH   8   9
ENDBRANCH   7   8
ENDBRANCH   5   6
ENDBRANCH   4   5
ENDBRANCH   3   4
ENDBRANCH   2   3
TORSDOF 12
ENDMDL
MODEL      342
REMARK 921   NORMALIZED FREE ENERGY PREDICTED BY IDOCK:   -2.99 KCAL/MOL
REMARK 922        TOTAL FREE ENERGY PREDICTED BY IDOCK:   -7.04 KCAL/MOL
REMARK 923 INTER-LIGAND FREE ENERGY PREDICTED BY IDOCK:   -4.77 KCAL/MOL
REMARK 924 INTRA-LIGAND FREE ENERGY PREDICTED BY IDOCK:   -2.27 KCAL/MOL
REMARK 927      BINDING AFFINITY PREDICTED BY RF-SCORE:    0.00 PKD
ROOT
HETATM    1  C   UNL     1      -5.876   8.094  70.804  1.00  0.00    -0.033 C  
HETATM    2  C   UNL     1      -6.896   8.701  71.750  1.00  0.00    -0.087 C  
ENDROOT
BRANCH   2   3
HETATM    3  C   UNL     1      -8.086   7.770  71.947  1.00  0.00    -0.120 C  
BRANCH   3   4
HETATM    4  C   UNL     1      -9.346   8.554  72.310  1.00  0.00    -0.363 C  
BRANCH   4   5
HETATM    5  C   UNL     1     -10.285   7.665  73.115  1.00  0.00    -0.401 C  
BRANCH   5   6
HETATM    6  C   UNL     1     -11.709   7.725  72.646  1.00  0.00    -0.364 C  
HETATM    7  C   UNL     1     -12.166   6.964  71.639  1.00  0.00    -0.403 C  
BRANCH   7   8
HETATM    8  C   UNL     1     -11.320   6.002  70.861  1.00  0.00    -0.299 C  
BRANCH   8   9
HETATM    9  C   UNL     1     -11.360   6.284  69.391  1.00  0.00    -0.448 C  
HETATM   10  C   UNL     1     -10.280   6.362  68.598  1.00  0.00    -0.201 C  
BRANCH  10  11
HETATM   11  C   UNL     1      -8.862   6.275  69.073  1.00  0.00    -0.124 C  
BRANCH  11  12
HETATM   12  C   UNL     1      -7.889   6.591  67.971  1.00  0.00    -0.105 C  
HETATM   13  C   UNL     1      -7.851   7.749  67.293  1.00  0.00    -0.117 C  
BRANCH  13  14
HETATM   14  C   UNL     1      -8.810   8.867  67.565  1.00  0.00    -0.135 C  
BRANCH  14  15
HETATM   15  C   UNL     1      -8.331   9.841  68.633  1.00  0.00    -0.111 C  
BRANCH  15  16
HETATM   16  C   UNL     1      -9.538  10.369  69.409  1.00  0.00    -0.213 C  
BRANCH  16  17
HETATM   17  C   UNL     1     -10.799  10.353  68.557  1.00  0.00    -0.278 C  
HETATM   18  C   UNL     1     -11.165  11.738  68.079  1.00  0.00    -0.263 C  
HETATM   19  O   UNL     1     -10.549  12.762  68.331  1.00  0.00    -0.236 OA 
HETATM   20  O   UNL     1     -12.285  11.736  67.319  1.00  0.00    -0.471 OA 
ENDBRANCH  16  17
ENDBRANCH  15  16
ENDBRANCH  14  15
ENDBRANCH  13  14
ENDBRANCH  11  12
ENDBRANCH  10  11
ENDBRANCH   8   9
ENDBRANCH   7   8
ENDBRANCH   5   6
ENDBRANCH   4   5
ENDBRANCH   3   4
ENDBRANCH   2   3
TORSDOF 12
ENDMDL
MODEL      343
REMARK 921   NORMALIZED FREE ENERGY PREDICTED BY IDOCK:   -2.98 KCAL/MOL
REMARK 922        TOTAL FREE ENERGY PREDICTED BY IDOCK:   -7.03 KCAL/MOL
REMARK 923 INTER-LIGAND FREE ENERGY PREDICTED BY IDOCK:   -5.50 KCAL/MOL
REMARK 924 INTRA-LIGAND FREE ENERGY PREDICTED BY IDOCK:   -1.54 KCAL/MOL
REMARK 927      BINDING AFFINITY PREDICTED BY RF-SCORE:    0.00 PKD
ROOT
HETATM    1  C   UNL     1      -6.933  20.001  68.790  1.00  0.00    -0.309 C  
HETATM    2  C   UNL     1      -6.865  18.493  68.619  1.00  0.00    -0.279 C  
ENDROOT
BRANCH   2   3
HETATM    3  C   UNL     1      -8.203  17.933  68.152  1.00  0.00    -0.269 C  
BRANCH   3   4
HETATM    4  C   UNL     1      -8.075  17.263  66.785  1.00  0.00    -0.280 C  
BRANCH   4   5
HETATM    5  C   UNL     1      -9.444  16.786  66.321  1.00  0.00    -0.314 C  
BRANCH   5   6
HETATM    6  C   UNL     1     -10.460  16.730  67.422  1.00  0.00    -0.310 C  
HETATM    7  C   UNL     1     -10.890  15.572  67.947  1.00  0.00    -0.307 C  
BRANCH   7   8
HETATM    8  C   UNL     1     -10.432  14.220  67.486  1.00  0.00    -0.252 C  
BRANCH   8   9
HETATM    9  C   UNL     1     -11.574  13.263  67.341  1.00  0.00    -0.396 C  
HETATM   10  C   UNL     1     -12.260  13.059  66.206  1.00  0.00    -0.390 C  
BRANCH  10  11
HETATM   11  C   UNL     1     -12.058  13.825  64.934  1.00  0.00    -0.428 C  
BRANCH  11  12
HETATM   12  C   UNL     1     -10.635  13.740  64.458  1.00  0.00    -0.405 C  
HETATM   13  C   UNL     1     -10.063  12.639  63.945  1.00  0.00    -0.247 C  
BRANCH  13  14
HETATM   14  C   UNL     1     -10.804  11.345  63.806  1.00  0.00    -0.468 C  
BRANCH  14  15
HETATM   15  C   UNL     1     -10.406  10.294  64.834  1.00  0.00    -0.140 C  
BRANCH  15  16
HETATM   16  C   UNL     1      -8.992  10.590  65.332  1.00  0.00    -0.207 C  
BRANCH  16  17
HETATM   17  C   UNL     1      -8.935  10.641  66.852  1.00  0.00    -0.147 C  
HETATM   18  C   UNL     1      -7.658  11.282  67.340  1.00  0.00    -0.120 C  
HETATM   19  O   UNL     1      -6.762  11.713  66.629  1.00  0.00    -0.115 OA 
HETATM   20  O   UNL     1      -7.596  11.335  68.691  1.00  0.00    -0.113 OA 
ENDBRANCH  16  17
ENDBRANCH  15  16
ENDBRANCH  14  15
ENDBRANCH  13  14
ENDBRANCH  11  12
ENDBRANCH  10  11
ENDBRANCH   8   9
ENDBRANCH   7   8
ENDBRANCH   5   6
ENDBRANCH   4   5
ENDBRANCH   3   4
ENDBRANCH   2   3
TORSDOF 12
ENDMDL
MODEL      344
REMARK 921   NORMALIZED FREE ENERGY PREDICTED BY IDOCK:   -2.98 KCAL/MOL
REMARK 922        TOTAL FREE ENERGY PREDICTED BY IDOCK:   -7.03 KCAL/MOL
REMARK 923 INTER-LIGAND FREE ENERGY PREDICTED BY IDOCK:   -5.08 KCAL/MOL
REMARK 924 INTRA-LIGAND FREE ENERGY PREDICTED BY IDOCK:   -1.95 KCAL/MOL
REMARK 927      BINDING AFFINITY PREDICTED BY RF-SCORE:    0.00 PKD
ROOT
HETATM    1  C   UNL     1      -8.709   9.346  70.197  1.00  0.00    -0.245 C  
HETATM    2  C   UNL     1     -10.156   9.665  70.531  1.00  0.00    -0.338 C  
ENDROOT
BRANCH   2   3
HETATM    3  C   UNL     1     -10.728  10.697  69.567  1.00  0.00    -0.290 C  
BRANCH   3   4
HETATM    4  C   UNL     1     -10.315  10.396  68.127  1.00  0.00    -0.202 C  
BRANCH   4   5
HETATM    5  C   UNL     1      -9.671  11.631  67.512  1.00  0.00    -0.185 C  
BRANCH   5   6
HETATM    6  C   UNL     1      -8.573  11.309  66.542  1.00  0.00    -0.170 C  
HETATM    7  C   UNL     1      -7.276  11.476  66.844  1.00  0.00    -0.137 C  
BRANCH   7   8
HETATM    8  C   UNL     1      -6.780  12.015  68.152  1.00  0.00    -0.064 C  
BRANCH   8   9
HETATM    9  C   UNL     1      -5.819  13.147  67.961  1.00  0.00    -0.116 C  
HETATM   10  C   UNL     1      -5.882  14.320  68.609  1.00  0.00    -0.086 C  
BRANCH  10  11
HETATM   11  C   UNL     1      -6.977  14.720  69.551  1.00  0.00    -0.176 C  
BRANCH  11  12
HETATM   12  C   UNL     1      -7.750  15.900  69.033  1.00  0.00    -0.209 C  
HETATM   13  C   UNL     1      -9.074  15.911  68.812  1.00  0.00    -0.219 C  
BRANCH  13  14
HETATM   14  C   UNL     1      -9.935  14.709  69.054  1.00  0.00    -0.195 C  
BRANCH  14  15
HETATM   15  C   UNL     1     -11.389  14.902  68.645  1.00  0.00    -0.309 C  
BRANCH  15  16
HETATM   16  C   UNL     1     -12.272  13.975  69.480  1.00  0.00    -0.355 C  
BRANCH  16  17
HETATM   17  C   UNL     1     -12.818  14.685  70.711  1.00  0.00    -0.418 C  
HETATM   18  C   UNL     1     -13.329  13.703  71.738  1.00  0.00    -0.388 C  
HETATM   19  O   UNL     1     -13.322  12.487  71.624  1.00  0.00    -0.358 OA 
HETATM   20  O   UNL     1     -13.816  14.322  72.839  1.00  0.00    -0.615 OA 
ENDBRANCH  16  17
ENDBRANCH  15  16
ENDBRANCH  14  15
ENDBRANCH  13  14
ENDBRANCH  11  12
ENDBRANCH  10  11
ENDBRANCH   8   9
ENDBRANCH   7   8
ENDBRANCH   5   6
ENDBRANCH   4   5
ENDBRANCH   3   4
ENDBRANCH   2   3
TORSDOF 12
ENDMDL
MODEL      345
REMARK 921   NORMALIZED FREE ENERGY PREDICTED BY IDOCK:   -2.98 KCAL/MOL
REMARK 922        TOTAL FREE ENERGY PREDICTED BY IDOCK:   -7.03 KCAL/MOL
REMARK 923 INTER-LIGAND FREE ENERGY PREDICTED BY IDOCK:   -5.90 KCAL/MOL
REMARK 924 INTRA-LIGAND FREE ENERGY PREDICTED BY IDOCK:   -1.12 KCAL/MOL
REMARK 927      BINDING AFFINITY PREDICTED BY RF-SCORE:    0.00 PKD
ROOT
HETATM    1  C   UNL     1     -10.910   9.202  71.459  1.00  0.00    -0.436 C  
HETATM    2  C   UNL     1     -12.332   9.714  71.606  1.00  0.00    -0.489 C  
ENDROOT
BRANCH   2   3
HETATM    3  C   UNL     1     -12.715  10.614  70.438  1.00  0.00    -0.340 C  
BRANCH   3   4
HETATM    4  C   UNL     1     -11.510  11.404  69.930  1.00  0.00    -0.353 C  
BRANCH   4   5
HETATM    5  C   UNL     1     -11.726  11.784  68.472  1.00  0.00    -0.390 C  
BRANCH   5   6
HETATM    6  C   UNL     1     -11.260  13.171  68.143  1.00  0.00    -0.304 C  
HETATM    7  C   UNL     1     -11.677  13.829  67.049  1.00  0.00    -0.420 C  
BRANCH   7   8
HETATM    8  C   UNL     1     -12.621  13.257  66.034  1.00  0.00    -0.279 C  
BRANCH   8   9
HETATM    9  C   UNL     1     -12.281  13.698  64.644  1.00  0.00    -0.448 C  
HETATM   10  C   UNL     1     -11.416  13.071  63.833  1.00  0.00    -0.490 C  
BRANCH  10  11
HETATM   11  C   UNL     1     -10.583  11.888  64.222  1.00  0.00    -0.381 C  
BRANCH  11  12
HETATM   12  C   UNL     1      -9.668  11.465  63.106  1.00  0.00    -0.413 C  
HETATM   13  C   UNL     1      -8.931  10.344  63.104  1.00  0.00    -0.245 C  
BRANCH  13  14
HETATM   14  C   UNL     1      -8.936   9.381  64.252  1.00  0.00    -0.204 C  
BRANCH  14  15
HETATM   15  C   UNL     1      -7.562   9.151  64.868  1.00  0.00    -0.107 C  
BRANCH  15  16
HETATM   16  C   UNL     1      -7.692   9.134  66.391  1.00  0.00    -0.096 C  
BRANCH  16  17
HETATM   17  C   UNL     1      -7.444   7.743  66.956  1.00  0.00    -0.095 C  
HETATM   18  C   UNL     1      -8.734   6.980  67.144  1.00  0.00    -0.121 C  
HETATM   19  O   UNL     1      -9.852   7.402  66.887  1.00  0.00    -0.184 OA 
HETATM   20  O   UNL     1      -8.526   5.741  67.645  1.00  0.00    -0.105 OA 
ENDBRANCH  16  17
ENDBRANCH  15  16
ENDBRANCH  14  15
ENDBRANCH  13  14
ENDBRANCH  11  12
ENDBRANCH  10  11
ENDBRANCH   8   9
ENDBRANCH   7   8
ENDBRANCH   5   6
ENDBRANCH   4   5
ENDBRANCH   3   4
ENDBRANCH   2   3
TORSDOF 12
ENDMDL
MODEL      346
REMARK 921   NORMALIZED FREE ENERGY PREDICTED BY IDOCK:   -2.98 KCAL/MOL
REMARK 922        TOTAL FREE ENERGY PREDICTED BY IDOCK:   -7.02 KCAL/MOL
REMARK 923 INTER-LIGAND FREE ENERGY PREDICTED BY IDOCK:   -5.55 KCAL/MOL
REMARK 924 INTRA-LIGAND FREE ENERGY PREDICTED BY IDOCK:   -1.47 KCAL/MOL
REMARK 927      BINDING AFFINITY PREDICTED BY RF-SCORE:    0.00 PKD
ROOT
HETATM    1  C   UNL     1      -9.156   3.833  72.761  1.00  0.00    -0.121 C  
HETATM    2  C   UNL     1     -10.673   3.818  72.701  1.00  0.00    -0.096 C  
ENDROOT
BRANCH   2   3
HETATM    3  C   UNL     1     -11.234   5.233  72.628  1.00  0.00    -0.311 C  
BRANCH   3   4
HETATM    4  C   UNL     1     -10.672   5.989  71.425  1.00  0.00    -0.314 C  
BRANCH   4   5
HETATM    5  C   UNL     1     -11.798   6.726  70.715  1.00  0.00    -0.446 C  
BRANCH   5   6
HETATM    6  C   UNL     1     -12.807   7.319  71.653  1.00  0.00    -0.415 C  
HETATM    7  C   UNL     1     -12.818   8.624  71.966  1.00  0.00    -0.425 C  
BRANCH   7   8
HETATM    8  C   UNL     1     -11.828   9.622  71.444  1.00  0.00    -0.484 C  
BRANCH   8   9
HETATM    9  C   UNL     1     -12.416  10.996  71.347  1.00  0.00    -0.436 C  
HETATM   10  C   UNL     1     -12.127  11.884  70.384  1.00  0.00    -0.421 C  
BRANCH  10  11
HETATM   11  C   UNL     1     -11.101  11.679  69.310  1.00  0.00    -0.291 C  
BRANCH  11  12
HETATM   12  C   UNL     1     -11.736  11.580  67.951  1.00  0.00    -0.317 C  
HETATM   13  C   UNL     1     -11.061  11.562  66.790  1.00  0.00    -0.361 C  
BRANCH  13  14
HETATM   14  C   UNL     1      -9.567  11.656  66.733  1.00  0.00    -0.207 C  
BRANCH  14  15
HETATM   15  C   UNL     1      -8.906  10.497  65.998  1.00  0.00    -0.179 C  
BRANCH  15  16
HETATM   16  C   UNL     1      -8.314   9.527  67.020  1.00  0.00    -0.124 C  
BRANCH  16  17
HETATM   17  C   UNL     1      -7.803  10.258  68.253  1.00  0.00    -0.101 C  
HETATM   18  C   UNL     1      -8.012   9.447  69.509  1.00  0.00    -0.098 C  
HETATM   19  O   UNL     1      -8.527   8.339  69.561  1.00  0.00    -0.122 OA 
HETATM   20  O   UNL     1      -7.560  10.086  70.612  1.00  0.00    -0.286 OA 
ENDBRANCH  16  17
ENDBRANCH  15  16
ENDBRANCH  14  15
ENDBRANCH  13  14
ENDBRANCH  11  12
ENDBRANCH  10  11
ENDBRANCH   8   9
ENDBRANCH   7   8
ENDBRANCH   5   6
ENDBRANCH   4   5
ENDBRANCH   3   4
ENDBRANCH   2   3
TORSDOF 12
ENDMDL
MODEL      347
REMARK 921   NORMALIZED FREE ENERGY PREDICTED BY IDOCK:   -2.98 KCAL/MOL
REMARK 922        TOTAL FREE ENERGY PREDICTED BY IDOCK:   -7.02 KCAL/MOL
REMARK 923 INTER-LIGAND FREE ENERGY PREDICTED BY IDOCK:   -5.58 KCAL/MOL
REMARK 924 INTRA-LIGAND FREE ENERGY PREDICTED BY IDOCK:   -1.44 KCAL/MOL
REMARK 927      BINDING AFFINITY PREDICTED BY RF-SCORE:    0.00 PKD
ROOT
HETATM    1  C   UNL     1     -13.684   9.058  72.015  1.00  0.00    -0.516 C  
HETATM    2  C   UNL     1     -13.831   7.589  71.658  1.00  0.00    -0.486 C  
ENDROOT
BRANCH   2   3
HETATM    3  C   UNL     1     -12.471   6.905  71.575  1.00  0.00    -0.420 C  
BRANCH   3   4
HETATM    4  C   UNL     1     -11.479   7.528  72.555  1.00  0.00    -0.376 C  
BRANCH   4   5
HETATM    5  C   UNL     1     -10.172   7.829  71.836  1.00  0.00    -0.250 C  
BRANCH   5   6
HETATM    6  C   UNL     1     -10.157   9.169  71.162  1.00  0.00    -0.384 C  
HETATM    7  C   UNL     1      -9.845   9.319  69.865  1.00  0.00    -0.219 C  
BRANCH   7   8
HETATM    8  C   UNL     1      -9.457   8.189  68.959  1.00  0.00    -0.155 C  
BRANCH   8   9
HETATM    9  C   UNL     1     -10.432   8.014  67.836  1.00  0.00    -0.259 C  
HETATM   10  C   UNL     1     -10.362   8.652  66.658  1.00  0.00    -0.303 C  
BRANCH  10  11
HETATM   11  C   UNL     1      -9.357   9.710  66.315  1.00  0.00    -0.238 C  
BRANCH  11  12
HETATM   12  C   UNL     1     -10.006  10.899  65.663  1.00  0.00    -0.305 C  
HETATM   13  C   UNL     1     -10.109  12.116  66.219  1.00  0.00    -0.247 C  
BRANCH  13  14
HETATM   14  C   UNL     1      -9.583  12.416  67.589  1.00  0.00    -0.193 C  
BRANCH  14  15
HETATM   15  C   UNL     1      -9.549  13.901  67.924  1.00  0.00    -0.227 C  
BRANCH  15  16
HETATM   16  C   UNL     1      -8.363  14.549  67.209  1.00  0.00    -0.232 C  
BRANCH  16  17
HETATM   17  C   UNL     1      -8.107  15.960  67.720  1.00  0.00    -0.155 C  
HETATM   18  C   UNL     1      -6.667  16.370  67.523  1.00  0.00    -0.153 C  
HETATM   19  O   UNL     1      -5.793  15.678  67.022  1.00  0.00    -0.294 OA 
HETATM   20  O   UNL     1      -6.427  17.624  67.973  1.00  0.00    -0.171 OA 
ENDBRANCH  16  17
ENDBRANCH  15  16
ENDBRANCH  14  15
ENDBRANCH  13  14
ENDBRANCH  11  12
ENDBRANCH  10  11
ENDBRANCH   8   9
ENDBRANCH   7   8
ENDBRANCH   5   6
ENDBRANCH   4   5
ENDBRANCH   3   4
ENDBRANCH   2   3
TORSDOF 12
ENDMDL
MODEL      348
REMARK 921   NORMALIZED FREE ENERGY PREDICTED BY IDOCK:   -2.96 KCAL/MOL
REMARK 922        TOTAL FREE ENERGY PREDICTED BY IDOCK:   -6.99 KCAL/MOL
REMARK 923 INTER-LIGAND FREE ENERGY PREDICTED BY IDOCK:   -5.67 KCAL/MOL
REMARK 924 INTRA-LIGAND FREE ENERGY PREDICTED BY IDOCK:   -1.33 KCAL/MOL
REMARK 927      BINDING AFFINITY PREDICTED BY RF-SCORE:    0.00 PKD
ROOT
HETATM    1  C   UNL     1      -9.120   3.981  72.666  1.00  0.00    -0.131 C  
HETATM    2  C   UNL     1     -10.637   4.063  72.660  1.00  0.00    -0.186 C  
ENDROOT
BRANCH   2   3
HETATM    3  C   UNL     1     -11.111   5.496  72.869  1.00  0.00    -0.349 C  
BRANCH   3   4
HETATM    4  C   UNL     1     -10.323   6.471  71.997  1.00  0.00    -0.221 C  
BRANCH   4   5
HETATM    5  C   UNL     1     -11.272   7.182  71.042  1.00  0.00    -0.298 C  
BRANCH   5   6
HETATM    6  C   UNL     1     -12.608   7.490  71.651  1.00  0.00    -0.376 C  
HETATM    7  C   UNL     1     -13.009   8.745  71.908  1.00  0.00    -0.421 C  
BRANCH   7   8
HETATM    8  C   UNL     1     -12.175   9.964  71.647  1.00  0.00    -0.482 C  
BRANCH   8   9
HETATM    9  C   UNL     1     -12.938  11.228  71.896  1.00  0.00    -0.471 C  
HETATM   10  C   UNL     1     -12.901  12.311  71.106  1.00  0.00    -0.302 C  
BRANCH  10  11
HETATM   11  C   UNL     1     -12.020  12.464  69.903  1.00  0.00    -0.369 C  
BRANCH  11  12
HETATM   12  C   UNL     1     -12.136  13.837  69.304  1.00  0.00    -0.374 C  
HETATM   13  C   UNL     1     -11.168  14.452  68.605  1.00  0.00    -0.280 C  
BRANCH  13  14
HETATM   14  C   UNL     1      -9.833  13.817  68.360  1.00  0.00    -0.227 C  
BRANCH  14  15
HETATM   15  C   UNL     1      -9.466  13.709  66.886  1.00  0.00    -0.263 C  
BRANCH  15  16
HETATM   16  C   UNL     1      -9.679  12.269  66.419  1.00  0.00    -0.243 C  
BRANCH  16  17
HETATM   17  C   UNL     1      -9.290  11.269  67.498  1.00  0.00    -0.166 C  
HETATM   18  C   UNL     1     -10.341  10.200  67.672  1.00  0.00    -0.219 C  
HETATM   19  O   UNL     1     -11.386  10.122  67.042  1.00  0.00    -0.122 OA 
HETATM   20  O   UNL     1     -10.006   9.304  68.628  1.00  0.00    -0.168 OA 
ENDBRANCH  16  17
ENDBRANCH  15  16
ENDBRANCH  14  15
ENDBRANCH  13  14
ENDBRANCH  11  12
ENDBRANCH  10  11
ENDBRANCH   8   9
ENDBRANCH   7   8
ENDBRANCH   5   6
ENDBRANCH   4   5
ENDBRANCH   3   4
ENDBRANCH   2   3
TORSDOF 12
ENDMDL
MODEL      349
REMARK 921   NORMALIZED FREE ENERGY PREDICTED BY IDOCK:   -2.96 KCAL/MOL
REMARK 922        TOTAL FREE ENERGY PREDICTED BY IDOCK:   -6.99 KCAL/MOL
REMARK 923 INTER-LIGAND FREE ENERGY PREDICTED BY IDOCK:   -5.97 KCAL/MOL
REMARK 924 INTRA-LIGAND FREE ENERGY PREDICTED BY IDOCK:   -1.02 KCAL/MOL
REMARK 927      BINDING AFFINITY PREDICTED BY RF-SCORE:    0.00 PKD
ROOT
HETATM    1  C   UNL     1      -8.255   3.766  69.454  1.00  0.00    -0.066 C  
HETATM    2  C   UNL     1      -9.182   3.720  68.252  1.00  0.00    -0.215 C  
ENDROOT
BRANCH   2   3
HETATM    3  C   UNL     1     -10.196   4.857  68.297  1.00  0.00    -0.102 C  
BRANCH   3   4
HETATM    4  C   UNL     1      -9.830   5.882  69.369  1.00  0.00    -0.207 C  
BRANCH   4   5
HETATM    5  C   UNL     1     -11.043   6.155  70.248  1.00  0.00    -0.436 C  
BRANCH   5   6
HETATM    6  C   UNL     1     -10.777   5.953  71.710  1.00  0.00    -0.299 C  
HETATM    7  C   UNL     1     -10.910   6.941  72.609  1.00  0.00    -0.290 C  
BRANCH   7   8
HETATM    8  C   UNL     1     -11.308   8.344  72.261  1.00  0.00    -0.448 C  
BRANCH   8   9
HETATM    9  C   UNL     1     -12.762   8.593  72.517  1.00  0.00    -0.357 C  
HETATM   10  C   UNL     1     -13.549   9.370  71.758  1.00  0.00    -0.461 C  
BRANCH  10  11
HETATM   11  C   UNL     1     -13.079  10.185  70.592  1.00  0.00    -0.274 C  
BRANCH  11  12
HETATM   12  C   UNL     1     -12.283  11.380  71.038  1.00  0.00    -0.391 C  
HETATM   13  C   UNL     1     -11.537  12.149  70.228  1.00  0.00    -0.105 C  
BRANCH  13  14
HETATM   14  C   UNL     1     -11.410  11.875  68.761  1.00  0.00    -0.330 C  
BRANCH  14  15
HETATM   15  C   UNL     1     -11.746  13.072  67.881  1.00  0.00    -0.402 C  
BRANCH  15  16
HETATM   16  C   UNL     1     -11.213  14.344  68.540  1.00  0.00    -0.286 C  
BRANCH  16  17
HETATM   17  C   UNL     1     -11.018  15.460  67.523  1.00  0.00    -0.315 C  
HETATM   18  C   UNL     1     -10.548  16.735  68.179  1.00  0.00    -0.350 C  
HETATM   19  O   UNL     1     -10.343  16.886  69.374  1.00  0.00    -0.298 OA 
HETATM   20  O   UNL     1     -10.369  17.735  67.284  1.00  0.00    -0.340 OA 
ENDBRANCH  16  17
ENDBRANCH  15  16
ENDBRANCH  14  15
ENDBRANCH  13  14
ENDBRANCH  11  12
ENDBRANCH  10  11
ENDBRANCH   8   9
ENDBRANCH   7   8
ENDBRANCH   5   6
ENDBRANCH   4   5
ENDBRANCH   3   4
ENDBRANCH   2   3
TORSDOF 12
ENDMDL
MODEL      350
REMARK 921   NORMALIZED FREE ENERGY PREDICTED BY IDOCK:   -2.95 KCAL/MOL
REMARK 922        TOTAL FREE ENERGY PREDICTED BY IDOCK:   -6.98 KCAL/MOL
REMARK 923 INTER-LIGAND FREE ENERGY PREDICTED BY IDOCK:   -5.00 KCAL/MOL
REMARK 924 INTRA-LIGAND FREE ENERGY PREDICTED BY IDOCK:   -1.98 KCAL/MOL
REMARK 927      BINDING AFFINITY PREDICTED BY RF-SCORE:    0.00 PKD
ROOT
HETATM    1  C   UNL     1     -11.397   9.424  71.425  1.00  0.00    -0.451 C  
HETATM    2  C   UNL     1     -10.858  10.024  70.138  1.00  0.00    -0.365 C  
ENDROOT
BRANCH   2   3
HETATM    3  C   UNL     1     -11.340  11.458  69.957  1.00  0.00    -0.260 C  
BRANCH   3   4
HETATM    4  C   UNL     1     -11.813  11.705  68.525  1.00  0.00    -0.357 C  
BRANCH   4   5
HETATM    5  C   UNL     1     -10.663  11.457  67.559  1.00  0.00    -0.266 C  
BRANCH   5   6
HETATM    6  C   UNL     1      -9.607  12.521  67.603  1.00  0.00    -0.190 C  
HETATM    7  C   UNL     1      -8.298  12.233  67.661  1.00  0.00    -0.166 C  
BRANCH   7   8
HETATM    8  C   UNL     1      -7.745  10.840  67.712  1.00  0.00    -0.104 C  
BRANCH   8   9
HETATM    9  C   UNL     1      -7.310  10.362  66.361  1.00  0.00    -0.120 C  
HETATM   10  C   UNL     1      -7.543   9.133  65.875  1.00  0.00    -0.095 C  
BRANCH  10  11
HETATM   11  C   UNL     1      -8.188   8.017  66.640  1.00  0.00    -0.108 C  
BRANCH  11  12
HETATM   12  C   UNL     1      -9.677   8.200  66.734  1.00  0.00    -0.303 C  
HETATM   13  C   UNL     1     -10.481   7.520  67.566  1.00  0.00    -0.341 C  
BRANCH  13  14
HETATM   14  C   UNL     1      -9.960   6.471  68.501  1.00  0.00    -0.148 C  
BRANCH  14  15
HETATM   15  C   UNL     1     -10.833   6.255  69.730  1.00  0.00    -0.399 C  
BRANCH  15  16
HETATM   16  C   UNL     1      -9.943   6.173  70.970  1.00  0.00    -0.221 C  
BRANCH  16  17
HETATM   17  C   UNL     1     -10.372   5.040  71.891  1.00  0.00    -0.270 C  
HETATM   18  C   UNL     1     -10.691   5.542  73.279  1.00  0.00    -0.274 C  
HETATM   19  O   UNL     1     -10.620   6.705  73.648  1.00  0.00    -0.295 OA 
HETATM   20  O   UNL     1     -11.076   4.544  74.108  1.00  0.00    -0.269 OA 
ENDBRANCH  16  17
ENDBRANCH  15  16
ENDBRANCH  14  15
ENDBRANCH  13  14
ENDBRANCH  11  12
ENDBRANCH  10  11
ENDBRANCH   8   9
ENDBRANCH   7   8
ENDBRANCH   5   6
ENDBRANCH   4   5
ENDBRANCH   3   4
ENDBRANCH   2   3
TORSDOF 12
ENDMDL
MODEL      351
REMARK 921   NORMALIZED FREE ENERGY PREDICTED BY IDOCK:   -2.95 KCAL/MOL
REMARK 922        TOTAL FREE ENERGY PREDICTED BY IDOCK:   -6.98 KCAL/MOL
REMARK 923 INTER-LIGAND FREE ENERGY PREDICTED BY IDOCK:   -5.48 KCAL/MOL
REMARK 924 INTRA-LIGAND FREE ENERGY PREDICTED BY IDOCK:   -1.49 KCAL/MOL
REMARK 927      BINDING AFFINITY PREDICTED BY RF-SCORE:    0.00 PKD
ROOT
HETATM    1  C   UNL     1      -7.658   8.436  71.258  1.00  0.00    -0.100 C  
HETATM    2  C   UNL     1      -7.852   7.382  72.333  1.00  0.00    -0.106 C  
ENDROOT
BRANCH   2   3
HETATM    3  C   UNL     1      -8.271   6.048  71.725  1.00  0.00    -0.118 C  
BRANCH   3   4
HETATM    4  C   UNL     1      -9.258   5.314  72.631  1.00  0.00    -0.144 C  
BRANCH   4   5
HETATM    5  C   UNL     1     -10.446   4.836  71.808  1.00  0.00    -0.182 C  
BRANCH   5   6
HETATM    6  C   UNL     1     -10.530   5.477  70.455  1.00  0.00    -0.356 C  
HETATM    7  C   UNL     1     -11.372   6.488  70.189  1.00  0.00    -0.463 C  
BRANCH   7   8
HETATM    8  C   UNL     1     -12.329   7.068  71.187  1.00  0.00    -0.423 C  
BRANCH   8   9
HETATM    9  C   UNL     1     -11.664   8.065  72.085  1.00  0.00    -0.399 C  
HETATM   10  C   UNL     1     -11.245   9.281  71.700  1.00  0.00    -0.449 C  
BRANCH  10  11
HETATM   11  C   UNL     1     -11.290   9.795  70.293  1.00  0.00    -0.333 C  
BRANCH  11  12
HETATM   12  C   UNL     1     -12.326  10.872  70.130  1.00  0.00    -0.399 C  
HETATM   13  C   UNL     1     -12.159  11.992  69.410  1.00  0.00    -0.261 C  
BRANCH  13  14
HETATM   14  C   UNL     1     -10.882  12.295  68.687  1.00  0.00    -0.268 C  
BRANCH  14  15
HETATM   15  C   UNL     1     -10.914  11.941  67.207  1.00  0.00    -0.319 C  
BRANCH  15  16
HETATM   16  C   UNL     1      -9.961  12.866  66.449  1.00  0.00    -0.267 C  
BRANCH  16  17
HETATM   17  C   UNL     1      -9.172  13.754  67.400  1.00  0.00    -0.221 C  
HETATM   18  C   UNL     1      -9.590  15.200  67.286  1.00  0.00    -0.209 C  
HETATM   19  O   UNL     1     -10.448  15.635  66.532  1.00  0.00    -0.290 OA 
HETATM   20  O   UNL     1      -8.896  16.001  68.128  1.00  0.00    -0.174 OA 
ENDBRANCH  16  17
ENDBRANCH  15  16
ENDBRANCH  14  15
ENDBRANCH  13  14
ENDBRANCH  11  12
ENDBRANCH  10  11
ENDBRANCH   8   9
ENDBRANCH   7   8
ENDBRANCH   5   6
ENDBRANCH   4   5
ENDBRANCH   3   4
ENDBRANCH   2   3
TORSDOF 12
ENDMDL
MODEL      352
REMARK 921   NORMALIZED FREE ENERGY PREDICTED BY IDOCK:   -2.95 KCAL/MOL
REMARK 922        TOTAL FREE ENERGY PREDICTED BY IDOCK:   -6.98 KCAL/MOL
REMARK 923 INTER-LIGAND FREE ENERGY PREDICTED BY IDOCK:   -6.18 KCAL/MOL
REMARK 924 INTRA-LIGAND FREE ENERGY PREDICTED BY IDOCK:   -0.79 KCAL/MOL
REMARK 927      BINDING AFFINITY PREDICTED BY RF-SCORE:    0.00 PKD
ROOT
HETATM    1  C   UNL     1      -5.803  21.079  67.928  1.00  0.00    -0.391 C  
HETATM    2  C   UNL     1      -6.620  19.959  68.548  1.00  0.00    -0.324 C  
ENDROOT
BRANCH   2   3
HETATM    3  C   UNL     1      -8.035  19.935  67.983  1.00  0.00    -0.314 C  
BRANCH   3   4
HETATM    4  C   UNL     1      -8.697  18.577  68.211  1.00  0.00    -0.333 C  
BRANCH   4   5
HETATM    5  C   UNL     1      -9.289  18.072  66.903  1.00  0.00    -0.276 C  
BRANCH   5   6
HETATM    6  C   UNL     1      -8.566  16.883  66.341  1.00  0.00    -0.328 C  
HETATM    7  C   UNL     1      -9.206  15.765  65.964  1.00  0.00    -0.379 C  
BRANCH   7   8
HETATM    8  C   UNL     1     -10.687  15.565  66.081  1.00  0.00    -0.315 C  
BRANCH   8   9
HETATM    9  C   UNL     1     -11.274  14.990  64.829  1.00  0.00    -0.393 C  
HETATM   10  C   UNL     1     -11.562  13.692  64.646  1.00  0.00    -0.393 C  
BRANCH  10  11
HETATM   11  C   UNL     1     -11.256  12.601  65.626  1.00  0.00    -0.344 C  
BRANCH  11  12
HETATM   12  C   UNL     1     -12.000  12.792  66.918  1.00  0.00    -0.380 C  
HETATM   13  C   UNL     1     -11.631  12.272  68.099  1.00  0.00    -0.396 C  
BRANCH  13  14
HETATM   14  C   UNL     1     -10.413  11.413  68.248  1.00  0.00    -0.221 C  
BRANCH  14  15
HETATM   15  C   UNL     1     -10.722   9.932  68.426  1.00  0.00    -0.271 C  
BRANCH  15  16
HETATM   16  C   UNL     1      -9.895   9.123  67.426  1.00  0.00    -0.237 C  
BRANCH  16  17
HETATM   17  C   UNL     1     -10.630   7.867  66.981  1.00  0.00    -0.381 C  
HETATM   18  C   UNL     1      -9.986   6.619  67.537  1.00  0.00    -0.135 C  
HETATM   19  O   UNL     1      -8.997   6.590  68.254  1.00  0.00    -0.123 OA 
HETATM   20  O   UNL     1     -10.632   5.495  67.149  1.00  0.00    -0.248 OA 
ENDBRANCH  16  17
ENDBRANCH  15  16
ENDBRANCH  14  15
ENDBRANCH  13  14
ENDBRANCH  11  12
ENDBRANCH  10  11
ENDBRANCH   8   9
ENDBRANCH   7   8
ENDBRANCH   5   6
ENDBRANCH   4   5
ENDBRANCH   3   4
ENDBRANCH   2   3
TORSDOF 12
ENDMDL
MODEL      353
REMARK 921   NORMALIZED FREE ENERGY PREDICTED BY IDOCK:   -2.95 KCAL/MOL
REMARK 922        TOTAL FREE ENERGY PREDICTED BY IDOCK:   -6.97 KCAL/MOL
REMARK 923 INTER-LIGAND FREE ENERGY PREDICTED BY IDOCK:   -6.24 KCAL/MOL
REMARK 924 INTRA-LIGAND FREE ENERGY PREDICTED BY IDOCK:   -0.73 KCAL/MOL
REMARK 927      BINDING AFFINITY PREDICTED BY RF-SCORE:    0.00 PKD
ROOT
HETATM    1  C   UNL     1      -9.407   3.663  72.792  1.00  0.00    -0.145 C  
HETATM    2  C   UNL     1     -10.862   3.781  73.210  1.00  0.00    -0.293 C  
ENDROOT
BRANCH   2   3
HETATM    3  C   UNL     1     -11.369   5.208  73.037  1.00  0.00    -0.381 C  
BRANCH   3   4
HETATM    4  C   UNL     1     -10.884   5.810  71.719  1.00  0.00    -0.311 C  
BRANCH   4   5
HETATM    5  C   UNL     1     -11.932   6.777  71.185  1.00  0.00    -0.421 C  
BRANCH   5   6
HETATM    6  C   UNL     1     -12.232   7.908  72.123  1.00  0.00    -0.353 C  
HETATM    7  C   UNL     1     -11.812   9.162  71.895  1.00  0.00    -0.439 C  
BRANCH   7   8
HETATM    8  C   UNL     1     -10.988   9.570  70.712  1.00  0.00    -0.389 C  
BRANCH   8   9
HETATM    9  C   UNL     1     -11.618  10.696  69.952  1.00  0.00    -0.396 C  
HETATM   10  C   UNL     1     -10.979  11.468  69.060  1.00  0.00    -0.285 C  
BRANCH  10  11
HETATM   11  C   UNL     1      -9.514  11.389  68.753  1.00  0.00    -0.128 C  
BRANCH  11  12
HETATM   12  C   UNL     1      -9.179  12.098  67.471  1.00  0.00    -0.182 C  
HETATM   13  C   UNL     1      -9.170  13.430  67.312  1.00  0.00    -0.222 C  
BRANCH  13  14
HETATM   14  C   UNL     1      -9.517  14.370  68.426  1.00  0.00    -0.207 C  
BRANCH  14  15
HETATM   15  C   UNL     1      -8.457  15.432  68.688  1.00  0.00    -0.170 C  
BRANCH  15  16
HETATM   16  C   UNL     1      -9.092  16.817  68.561  1.00  0.00    -0.241 C  
BRANCH  16  17
HETATM   17  C   UNL     1     -10.223  16.821  67.542  1.00  0.00    -0.289 C  
HETATM   18  C   UNL     1      -9.749  17.286  66.186  1.00  0.00    -0.224 C  
HETATM   19  O   UNL     1      -8.608  17.627  65.911  1.00  0.00    -0.526 OA 
HETATM   20  O   UNL     1     -10.746  17.293  65.271  1.00  0.00    -0.637 OA 
ENDBRANCH  16  17
ENDBRANCH  15  16
ENDBRANCH  14  15
ENDBRANCH  13  14
ENDBRANCH  11  12
ENDBRANCH  10  11
ENDBRANCH   8   9
ENDBRANCH   7   8
ENDBRANCH   5   6
ENDBRANCH   4   5
ENDBRANCH   3   4
ENDBRANCH   2   3
TORSDOF 12
ENDMDL
MODEL      354
REMARK 921   NORMALIZED FREE ENERGY PREDICTED BY IDOCK:   -2.95 KCAL/MOL
REMARK 922        TOTAL FREE ENERGY PREDICTED BY IDOCK:   -6.97 KCAL/MOL
REMARK 923 INTER-LIGAND FREE ENERGY PREDICTED BY IDOCK:   -5.28 KCAL/MOL
REMARK 924 INTRA-LIGAND FREE ENERGY PREDICTED BY IDOCK:   -1.69 KCAL/MOL
REMARK 927      BINDING AFFINITY PREDICTED BY RF-SCORE:    0.00 PKD
ROOT
HETATM    1  C   UNL     1     -12.308  12.078  63.709  1.00  0.00    -0.602 C  
HETATM    2  C   UNL     1     -12.041  12.544  65.129  1.00  0.00    -0.503 C  
ENDROOT
BRANCH   2   3
HETATM    3  C   UNL     1     -12.780  13.842  65.429  1.00  0.00    -0.525 C  
BRANCH   3   4
HETATM    4  C   UNL     1     -12.253  14.989  64.568  1.00  0.00    -0.344 C  
BRANCH   4   5
HETATM    5  C   UNL     1     -10.798  15.264  64.920  1.00  0.00    -0.444 C  
BRANCH   5   6
HETATM    6  C   UNL     1     -10.629  16.320  65.972  1.00  0.00    -0.288 C  
HETATM    7  C   UNL     1      -9.566  16.354  66.792  1.00  0.00    -0.263 C  
BRANCH   7   8
HETATM    8  C   UNL     1      -8.456  15.346  66.771  1.00  0.00    -0.307 C  
BRANCH   8   9
HETATM    9  C   UNL     1      -7.191  15.896  67.352  1.00  0.00    -0.227 C  
HETATM   10  C   UNL     1      -6.561  15.393  68.424  1.00  0.00    -0.113 C  
BRANCH  10  11
HETATM   11  C   UNL     1      -7.072  14.264  69.266  1.00  0.00    -0.107 C  
BRANCH  11  12
HETATM   12  C   UNL     1      -6.710  12.928  68.680  1.00  0.00    -0.095 C  
HETATM   13  C   UNL     1      -7.589  12.049  68.175  1.00  0.00    -0.120 C  
BRANCH  13  14
HETATM   14  C   UNL     1      -9.064  12.315  68.157  1.00  0.00    -0.196 C  
BRANCH  14  15
HETATM   15  C   UNL     1      -9.889  11.164  67.597  1.00  0.00    -0.191 C  
BRANCH  15  16
HETATM   16  C   UNL     1      -9.171  10.576  66.382  1.00  0.00    -0.190 C  
BRANCH  16  17
HETATM   17  C   UNL     1      -9.736   9.214  66.005  1.00  0.00    -0.358 C  
HETATM   18  C   UNL     1      -8.936   8.091  66.619  1.00  0.00    -0.150 C  
HETATM   19  O   UNL     1      -7.951   8.226  67.330  1.00  0.00    -0.104 OA 
HETATM   20  O   UNL     1      -9.430   6.874  66.292  1.00  0.00    -0.155 OA 
ENDBRANCH  16  17
ENDBRANCH  15  16
ENDBRANCH  14  15
ENDBRANCH  13  14
ENDBRANCH  11  12
ENDBRANCH  10  11
ENDBRANCH   8   9
ENDBRANCH   7   8
ENDBRANCH   5   6
ENDBRANCH   4   5
ENDBRANCH   3   4
ENDBRANCH   2   3
TORSDOF 12
ENDMDL
MODEL      355
REMARK 921   NORMALIZED FREE ENERGY PREDICTED BY IDOCK:   -2.92 KCAL/MOL
REMARK 922        TOTAL FREE ENERGY PREDICTED BY IDOCK:   -6.92 KCAL/MOL
REMARK 923 INTER-LIGAND FREE ENERGY PREDICTED BY IDOCK:   -5.41 KCAL/MOL
REMARK 924 INTRA-LIGAND FREE ENERGY PREDICTED BY IDOCK:   -1.51 KCAL/MOL
REMARK 927      BINDING AFFINITY PREDICTED BY RF-SCORE:    0.00 PKD
ROOT
HETATM    1  C   UNL     1     -10.582   5.793  69.815  1.00  0.00    -0.388 C  
HETATM    2  C   UNL     1     -11.581   6.502  70.712  1.00  0.00    -0.437 C  
ENDROOT
BRANCH   2   3
HETATM    3  C   UNL     1     -11.701   7.976  70.343  1.00  0.00    -0.001 C  
BRANCH   3   4
HETATM    4  C   UNL     1     -10.492   8.443  69.535  1.00  0.00    -0.225 C  
BRANCH   4   5
HETATM    5  C   UNL     1     -10.402   9.962  69.584  1.00  0.00    -0.265 C  
BRANCH   5   6
HETATM    6  C   UNL     1      -9.123  10.502  69.014  1.00  0.00    -0.188 C  
HETATM    7  C   UNL     1      -9.095  11.279  67.920  1.00  0.00    -0.150 C  
BRANCH   7   8
HETATM    8  C   UNL     1     -10.312  11.671  67.137  1.00  0.00    -0.247 C  
BRANCH   8   9
HETATM    9  C   UNL     1     -10.248  11.183  65.723  1.00  0.00    -0.310 C  
HETATM   10  C   UNL     1     -11.045  11.610  64.731  1.00  0.00    -0.328 C  
BRANCH  10  11
HETATM   11  C   UNL     1     -12.184  12.569  64.900  1.00  0.00    -0.534 C  
BRANCH  11  12
HETATM   12  C   UNL     1     -11.992  13.808  64.073  1.00  0.00    -0.451 C  
HETATM   13  C   UNL     1     -11.430  14.945  64.515  1.00  0.00    -0.328 C  
BRANCH  13  14
HETATM   14  C   UNL     1     -10.939  15.099  65.921  1.00  0.00    -0.339 C  
BRANCH  14  15
HETATM   15  C   UNL     1      -9.451  15.409  66.023  1.00  0.00    -0.381 C  
BRANCH  15  16
HETATM   16  C   UNL     1      -8.998  15.229  67.472  1.00  0.00    -0.192 C  
BRANCH  16  17
HETATM   17  C   UNL     1      -7.805  16.116  67.797  1.00  0.00    -0.157 C  
HETATM   18  C   UNL     1      -7.353  15.939  69.227  1.00  0.00    -0.221 C  
HETATM   19  O   UNL     1      -7.863  15.188  70.045  1.00  0.00    -0.056 OA 
HETATM   20  O   UNL     1      -6.291  16.722  69.528  1.00  0.00    -0.214 OA 
ENDBRANCH  16  17
ENDBRANCH  15  16
ENDBRANCH  14  15
ENDBRANCH  13  14
ENDBRANCH  11  12
ENDBRANCH  10  11
ENDBRANCH   8   9
ENDBRANCH   7   8
ENDBRANCH   5   6
ENDBRANCH   4   5
ENDBRANCH   3   4
ENDBRANCH   2   3
TORSDOF 12
ENDMDL
MODEL      356
REMARK 921   NORMALIZED FREE ENERGY PREDICTED BY IDOCK:   -2.91 KCAL/MOL
REMARK 922        TOTAL FREE ENERGY PREDICTED BY IDOCK:   -6.91 KCAL/MOL
REMARK 923 INTER-LIGAND FREE ENERGY PREDICTED BY IDOCK:   -5.40 KCAL/MOL
REMARK 924 INTRA-LIGAND FREE ENERGY PREDICTED BY IDOCK:   -1.50 KCAL/MOL
REMARK 927      BINDING AFFINITY PREDICTED BY RF-SCORE:    0.00 PKD
ROOT
HETATM    1  C   UNL     1      -5.767  10.449  67.711  1.00  0.00    -0.044 C  
HETATM    2  C   UNL     1      -5.697   8.932  67.699  1.00  0.00    -0.039 C  
ENDROOT
BRANCH   2   3
HETATM    3  C   UNL     1      -6.717   8.328  68.657  1.00  0.00    -0.059 C  
BRANCH   3   4
HETATM    4  C   UNL     1      -7.210   6.972  68.155  1.00  0.00    -0.091 C  
BRANCH   4   5
HETATM    5  C   UNL     1      -7.801   7.129  66.761  1.00  0.00    -0.103 C  
BRANCH   5   6
HETATM    6  C   UNL     1      -9.299   7.208  66.755  1.00  0.00    -0.199 C  
HETATM    7  C   UNL     1      -9.958   8.366  66.593  1.00  0.00    -0.354 C  
BRANCH   7   8
HETATM    8  C   UNL     1      -9.287   9.697  66.427  1.00  0.00    -0.224 C  
BRANCH   8   9
HETATM    9  C   UNL     1      -9.038  10.022  64.987  1.00  0.00    -0.255 C  
HETATM   10  C   UNL     1      -9.861  10.747  64.214  1.00  0.00    -0.384 C  
BRANCH  10  11
HETATM   11  C   UNL     1     -11.201  11.264  64.640  1.00  0.00    -0.152 C  
BRANCH  11  12
HETATM   12  C   UNL     1     -11.920  11.938  63.505  1.00  0.00    -0.567 C  
HETATM   13  C   UNL     1     -12.164  13.256  63.428  1.00  0.00    -0.476 C  
BRANCH  13  14
HETATM   14  C   UNL     1     -11.745  14.211  64.504  1.00  0.00    -0.426 C  
BRANCH  14  15
HETATM   15  C   UNL     1     -12.743  14.325  65.648  1.00  0.00    -0.395 C  
BRANCH  15  16
HETATM   16  C   UNL     1     -12.099  13.798  66.931  1.00  0.00    -0.454 C  
BRANCH  16  17
HETATM   17  C   UNL     1     -11.314  14.886  67.649  1.00  0.00    -0.348 C  
HETATM   18  C   UNL     1     -11.302  14.670  69.143  1.00  0.00    -0.281 C  
HETATM   19  O   UNL     1     -11.848  13.749  69.732  1.00  0.00    -0.293 OA 
HETATM   20  O   UNL     1     -10.605  15.632  69.793  1.00  0.00    -0.258 OA 
ENDBRANCH  16  17
ENDBRANCH  15  16
ENDBRANCH  14  15
ENDBRANCH  13  14
ENDBRANCH  11  12
ENDBRANCH  10  11
ENDBRANCH   8   9
ENDBRANCH   7   8
ENDBRANCH   5   6
ENDBRANCH   4   5
ENDBRANCH   3   4
ENDBRANCH   2   3
TORSDOF 12
ENDMDL
MODEL      357
REMARK 921   NORMALIZED FREE ENERGY PREDICTED BY IDOCK:   -2.90 KCAL/MOL
REMARK 922        TOTAL FREE ENERGY PREDICTED BY IDOCK:   -6.88 KCAL/MOL
REMARK 923 INTER-LIGAND FREE ENERGY PREDICTED BY IDOCK:   -5.13 KCAL/MOL
REMARK 924 INTRA-LIGAND FREE ENERGY PREDICTED BY IDOCK:   -1.75 KCAL/MOL
REMARK 927      BINDING AFFINITY PREDICTED BY RF-SCORE:    0.00 PKD
ROOT
HETATM    1  C   UNL     1      -6.485  14.421  67.435  1.00  0.00     0.092 C  
HETATM    2  C   UNL     1      -6.912  15.846  67.741  1.00  0.00    -0.170 C  
ENDROOT
BRANCH   2   3
HETATM    3  C   UNL     1      -6.961  16.688  66.472  1.00  0.00    -0.176 C  
BRANCH   3   4
HETATM    4  C   UNL     1      -6.061  17.917  66.589  1.00  0.00    -0.203 C  
BRANCH   4   5
HETATM    5  C   UNL     1      -6.288  18.588  67.937  1.00  0.00    -0.196 C  
BRANCH   5   6
HETATM    6  C   UNL     1      -7.314  19.682  67.892  1.00  0.00    -0.315 C  
HETATM    7  C   UNL     1      -8.541  19.538  68.416  1.00  0.00    -0.389 C  
BRANCH   7   8
HETATM    8  C   UNL     1      -9.033  18.283  69.073  1.00  0.00    -0.043 C  
BRANCH   8   9
HETATM    9  C   UNL     1     -10.193  17.685  68.339  1.00  0.00    -0.381 C  
HETATM   10  C   UNL     1     -10.813  16.547  68.687  1.00  0.00    -0.345 C  
BRANCH  10  11
HETATM   11  C   UNL     1     -10.384  15.646  69.805  1.00  0.00    -0.309 C  
BRANCH  11  12
HETATM   12  C   UNL     1     -11.357  15.683  70.950  1.00  0.00    -0.417 C  
HETATM   13  C   UNL     1     -12.321  14.774  71.166  1.00  0.00    -0.397 C  
BRANCH  13  14
HETATM   14  C   UNL     1     -12.537  13.606  70.252  1.00  0.00    -0.253 C  
BRANCH  14  15
HETATM   15  C   UNL     1     -12.665  12.274  70.978  1.00  0.00    -0.319 C  
BRANCH  15  16
HETATM   16  C   UNL     1     -11.843  11.218  70.238  1.00  0.00    -0.446 C  
BRANCH  16  17
HETATM   17  C   UNL     1     -11.220  11.784  68.970  1.00  0.00    -0.324 C  
HETATM   18  C   UNL     1     -10.020  10.979  68.532  1.00  0.00    -0.193 C  
HETATM   19  O   UNL     1      -9.578   9.994  69.104  1.00  0.00    -0.186 OA 
HETATM   20  O   UNL     1      -9.458  11.472  67.404  1.00  0.00    -0.164 OA 
ENDBRANCH  16  17
ENDBRANCH  15  16
ENDBRANCH  14  15
ENDBRANCH  13  14
ENDBRANCH  11  12
ENDBRANCH  10  11
ENDBRANCH   8   9
ENDBRANCH   7   8
ENDBRANCH   5   6
ENDBRANCH   4   5
ENDBRANCH   3   4
ENDBRANCH   2   3
TORSDOF 12
ENDMDL
MODEL      358
REMARK 921   NORMALIZED FREE ENERGY PREDICTED BY IDOCK:   -2.89 KCAL/MOL
REMARK 922        TOTAL FREE ENERGY PREDICTED BY IDOCK:   -6.87 KCAL/MOL
REMARK 923 INTER-LIGAND FREE ENERGY PREDICTED BY IDOCK:   -5.62 KCAL/MOL
REMARK 924 INTRA-LIGAND FREE ENERGY PREDICTED BY IDOCK:   -1.24 KCAL/MOL
REMARK 927      BINDING AFFINITY PREDICTED BY RF-SCORE:    0.00 PKD
ROOT
HETATM    1  C   UNL     1     -13.799  13.828  72.383  1.00  0.00    -0.681 C  
HETATM    2  C   UNL     1     -12.676  14.814  72.114  1.00  0.00    -0.401 C  
ENDROOT
BRANCH   2   3
HETATM    3  C   UNL     1     -12.643  15.223  70.646  1.00  0.00    -0.471 C  
BRANCH   3   4
HETATM    4  C   UNL     1     -11.387  14.697  69.955  1.00  0.00    -0.302 C  
BRANCH   4   5
HETATM    5  C   UNL     1     -11.652  13.302  69.407  1.00  0.00    -0.364 C  
BRANCH   5   6
HETATM    6  C   UNL     1     -11.640  13.238  67.909  1.00  0.00    -0.370 C  
HETATM    7  C   UNL     1     -11.651  12.075  67.239  1.00  0.00    -0.383 C  
BRANCH   7   8
HETATM    8  C   UNL     1     -11.650  10.727  67.895  1.00  0.00    -0.212 C  
BRANCH   8   9
HETATM    9  C   UNL     1     -10.515   9.874  67.419  1.00  0.00    -0.325 C  
HETATM   10  C   UNL     1      -9.443   9.548  68.157  1.00  0.00    -0.145 C  
BRANCH  10  11
HETATM   11  C   UNL     1      -9.164  10.063  69.537  1.00  0.00    -0.238 C  
BRANCH  11  12
HETATM   12  C   UNL     1     -10.336   9.849  70.454  1.00  0.00    -0.322 C  
HETATM   13  C   UNL     1     -10.390   8.921  71.423  1.00  0.00    -0.377 C  
BRANCH  13  14
HETATM   14  C   UNL     1      -9.261   7.971  71.684  1.00  0.00    -0.196 C  
BRANCH  14  15
HETATM   15  C   UNL     1      -9.501   6.568  71.144  1.00  0.00    -0.173 C  
BRANCH  15  16
HETATM   16  C   UNL     1      -8.709   6.385  69.849  1.00  0.00    -0.142 C  
BRANCH  16  17
HETATM   17  C   UNL     1      -9.425   5.453  68.883  1.00  0.00    -0.174 C  
HETATM   18  C   UNL     1      -8.784   5.468  67.516  1.00  0.00    -0.107 C  
HETATM   19  O   UNL     1      -7.814   6.137  67.194  1.00  0.00    -0.100 OA 
HETATM   20  O   UNL     1      -9.412   4.642  66.648  1.00  0.00    -0.141 OA 
ENDBRANCH  16  17
ENDBRANCH  15  16
ENDBRANCH  14  15
ENDBRANCH  13  14
ENDBRANCH  11  12
ENDBRANCH  10  11
ENDBRANCH   8   9
ENDBRANCH   7   8
ENDBRANCH   5   6
ENDBRANCH   4   5
ENDBRANCH   3   4
ENDBRANCH   2   3
TORSDOF 12
ENDMDL
MODEL      359
REMARK 921   NORMALIZED FREE ENERGY PREDICTED BY IDOCK:   -2.88 KCAL/MOL
REMARK 922        TOTAL FREE ENERGY PREDICTED BY IDOCK:   -6.86 KCAL/MOL
REMARK 923 INTER-LIGAND FREE ENERGY PREDICTED BY IDOCK:   -5.33 KCAL/MOL
REMARK 924 INTRA-LIGAND FREE ENERGY PREDICTED BY IDOCK:   -1.53 KCAL/MOL
REMARK 927      BINDING AFFINITY PREDICTED BY RF-SCORE:    0.00 PKD
ROOT
HETATM    1  C   UNL     1     -12.869   8.757  71.589  1.00  0.00    -0.392 C  
HETATM    2  C   UNL     1     -13.076   7.252  71.600  1.00  0.00    -0.417 C  
ENDROOT
BRANCH   2   3
HETATM    3  C   UNL     1     -11.779   6.522  71.926  1.00  0.00    -0.371 C  
BRANCH   3   4
HETATM    4  C   UNL     1     -10.932   7.318  72.918  1.00  0.00    -0.381 C  
BRANCH   4   5
HETATM    5  C   UNL     1      -9.503   7.421  72.402  1.00  0.00    -0.189 C  
BRANCH   5   6
HETATM    6  C   UNL     1      -9.172   8.767  71.830  1.00  0.00    -0.332 C  
HETATM    7  C   UNL     1      -9.082   8.984  70.508  1.00  0.00    -0.259 C  
BRANCH   7   8
HETATM    8  C   UNL     1      -9.273   7.922  69.468  1.00  0.00    -0.152 C  
BRANCH   8   9
HETATM    9  C   UNL     1     -10.486   8.175  68.626  1.00  0.00    -0.195 C  
HETATM   10  C   UNL     1     -10.458   8.520  67.330  1.00  0.00    -0.366 C  
BRANCH  10  11
HETATM   11  C   UNL     1      -9.212   8.800  66.545  1.00  0.00    -0.228 C  
BRANCH  11  12
HETATM   12  C   UNL     1      -9.384   9.987  65.640  1.00  0.00    -0.257 C  
HETATM   13  C   UNL     1      -9.211  11.265  66.011  1.00  0.00    -0.224 C  
BRANCH  13  14
HETATM   14  C   UNL     1      -8.832  11.647  67.410  1.00  0.00    -0.160 C  
BRANCH  14  15
HETATM   15  C   UNL     1      -7.663  12.621  67.486  1.00  0.00    -0.161 C  
BRANCH  15  16
HETATM   16  C   UNL     1      -8.203  14.035  67.700  1.00  0.00    -0.185 C  
BRANCH  16  17
HETATM   17  C   UNL     1      -9.446  14.031  68.578  1.00  0.00    -0.191 C  
HETATM   18  C   UNL     1     -10.707  14.151  67.757  1.00  0.00    -0.247 C  
HETATM   19  O   UNL     1     -10.756  14.244  66.540  1.00  0.00    -0.292 OA 
HETATM   20  O   UNL     1     -11.820  14.148  68.527  1.00  0.00    -0.329 OA 
ENDBRANCH  16  17
ENDBRANCH  15  16
ENDBRANCH  14  15
ENDBRANCH  13  14
ENDBRANCH  11  12
ENDBRANCH  10  11
ENDBRANCH   8   9
ENDBRANCH   7   8
ENDBRANCH   5   6
ENDBRANCH   4   5
ENDBRANCH   3   4
ENDBRANCH   2   3
TORSDOF 12
ENDMDL
MODEL      360
REMARK 921   NORMALIZED FREE ENERGY PREDICTED BY IDOCK:   -2.88 KCAL/MOL
REMARK 922        TOTAL FREE ENERGY PREDICTED BY IDOCK:   -6.86 KCAL/MOL
REMARK 923 INTER-LIGAND FREE ENERGY PREDICTED BY IDOCK:   -5.48 KCAL/MOL
REMARK 924 INTRA-LIGAND FREE ENERGY PREDICTED BY IDOCK:   -1.38 KCAL/MOL
REMARK 927      BINDING AFFINITY PREDICTED BY RF-SCORE:    0.00 PKD
ROOT
HETATM    1  C   UNL     1      -8.560   7.046  65.435  1.00  0.00    -0.048 C  
HETATM    2  C   UNL     1      -9.417   5.957  66.055  1.00  0.00    -0.087 C  
ENDROOT
BRANCH   2   3
HETATM    3  C   UNL     1     -10.512   6.552  66.932  1.00  0.00    -0.347 C  
BRANCH   3   4
HETATM    4  C   UNL     1     -10.165   6.421  68.414  1.00  0.00    -0.198 C  
BRANCH   4   5
HETATM    5  C   UNL     1      -9.151   7.491  68.796  1.00  0.00    -0.135 C  
BRANCH   5   6
HETATM    6  C   UNL     1      -9.300   7.975  70.208  1.00  0.00    -0.159 C  
HETATM    7  C   UNL     1      -9.983   9.089  70.517  1.00  0.00    -0.263 C  
BRANCH   7   8
HETATM    8  C   UNL     1     -10.644   9.977  69.506  1.00  0.00    -0.267 C  
BRANCH   8   9
HETATM    9  C   UNL     1      -9.722  11.051  69.018  1.00  0.00    -0.151 C  
HETATM   10  C   UNL     1      -9.605  11.434  67.738  1.00  0.00    -0.177 C  
BRANCH  10  11
HETATM   11  C   UNL     1     -10.305  10.784  66.583  1.00  0.00    -0.294 C  
BRANCH  11  12
HETATM   12  C   UNL     1      -9.342  10.041  65.699  1.00  0.00    -0.257 C  
HETATM   13  C   UNL     1      -9.010  10.406  64.451  1.00  0.00    -0.247 C  
BRANCH  13  14
HETATM   14  C   UNL     1      -9.595  11.617  63.790  1.00  0.00    -0.210 C  
BRANCH  14  15
HETATM   15  C   UNL     1     -10.986  11.392  63.214  1.00  0.00    -0.250 C  
BRANCH  15  16
HETATM   16  C   UNL     1     -11.866  12.598  63.542  1.00  0.00    -0.619 C  
BRANCH  16  17
HETATM   17  C   UNL     1     -11.192  13.525  64.543  1.00  0.00    -0.392 C  
HETATM   18  C   UNL     1     -11.832  14.893  64.554  1.00  0.00    -0.396 C  
HETATM   19  O   UNL     1     -12.772  15.243  63.856  1.00  0.00    -0.732 OA 
HETATM   20  O   UNL     1     -11.241  15.726  65.441  1.00  0.00    -0.254 OA 
ENDBRANCH  16  17
ENDBRANCH  15  16
ENDBRANCH  14  15
ENDBRANCH  13  14
ENDBRANCH  11  12
ENDBRANCH  10  11
ENDBRANCH   8   9
ENDBRANCH   7   8
ENDBRANCH   5   6
ENDBRANCH   4   5
ENDBRANCH   3   4
ENDBRANCH   2   3
TORSDOF 12
ENDMDL
MODEL      361
REMARK 921   NORMALIZED FREE ENERGY PREDICTED BY IDOCK:   -2.87 KCAL/MOL
REMARK 922        TOTAL FREE ENERGY PREDICTED BY IDOCK:   -6.84 KCAL/MOL
REMARK 923 INTER-LIGAND FREE ENERGY PREDICTED BY IDOCK:   -5.67 KCAL/MOL
REMARK 924 INTRA-LIGAND FREE ENERGY PREDICTED BY IDOCK:   -1.17 KCAL/MOL
REMARK 927      BINDING AFFINITY PREDICTED BY RF-SCORE:    0.00 PKD
ROOT
HETATM    1  C   UNL     1      -5.792   4.286  68.898  1.00  0.00    -0.022 C  
HETATM    2  C   UNL     1      -5.965   3.696  70.286  1.00  0.00    -0.018 C  
ENDROOT
BRANCH   2   3
HETATM    3  C   UNL     1      -7.385   3.904  70.799  1.00  0.00    -0.041 C  
BRANCH   3   4
HETATM    4  C   UNL     1      -8.327   2.824  70.269  1.00  0.00    -0.073 C  
BRANCH   4   5
HETATM    5  C   UNL     1      -9.471   3.476  69.504  1.00  0.00    -0.236 C  
BRANCH   5   6
HETATM    6  C   UNL     1      -9.356   3.324  68.017  1.00  0.00    -0.245 C  
HETATM    7  C   UNL     1      -9.212   4.376  67.196  1.00  0.00    -0.157 C  
BRANCH   7   8
HETATM    8  C   UNL     1      -9.174   5.802  67.656  1.00  0.00    -0.105 C  
BRANCH   8   9
HETATM    9  C   UNL     1     -10.424   6.541  67.291  1.00  0.00    -0.337 C  
HETATM   10  C   UNL     1     -10.462   7.809  66.853  1.00  0.00    -0.388 C  
BRANCH  10  11
HETATM   11  C   UNL     1      -9.273   8.715  66.752  1.00  0.00    -0.211 C  
BRANCH  11  12
HETATM   12  C   UNL     1      -9.168   9.625  67.944  1.00  0.00    -0.134 C  
HETATM   13  C   UNL     1      -9.854  10.769  68.097  1.00  0.00    -0.171 C  
BRANCH  13  14
HETATM   14  C   UNL     1     -10.809  11.273  67.059  1.00  0.00    -0.332 C  
BRANCH  14  15
HETATM   15  C   UNL     1     -11.202  12.733  67.243  1.00  0.00    -0.339 C  
BRANCH  15  16
HETATM   16  C   UNL     1     -12.180  13.132  66.137  1.00  0.00    -0.451 C  
BRANCH  16  17
HETATM   17  C   UNL     1     -11.958  14.569  65.688  1.00  0.00    -0.311 C  
HETATM   18  C   UNL     1     -12.271  14.750  64.223  1.00  0.00    -0.379 C  
HETATM   19  O   UNL     1     -12.655  13.871  63.465  1.00  0.00    -0.842 OA 
HETATM   20  O   UNL     1     -12.079  16.024  63.812  1.00  0.00    -0.882 OA 
ENDBRANCH  16  17
ENDBRANCH  15  16
ENDBRANCH  14  15
ENDBRANCH  13  14
ENDBRANCH  11  12
ENDBRANCH  10  11
ENDBRANCH   8   9
ENDBRANCH   7   8
ENDBRANCH   5   6
ENDBRANCH   4   5
ENDBRANCH   3   4
ENDBRANCH   2   3
TORSDOF 12
ENDMDL
MODEL      362
REMARK 921   NORMALIZED FREE ENERGY PREDICTED BY IDOCK:   -2.87 KCAL/MOL
REMARK 922        TOTAL FREE ENERGY PREDICTED BY IDOCK:   -6.84 KCAL/MOL
REMARK 923 INTER-LIGAND FREE ENERGY PREDICTED BY IDOCK:   -6.02 KCAL/MOL
REMARK 924 INTRA-LIGAND FREE ENERGY PREDICTED BY IDOCK:   -0.82 KCAL/MOL
REMARK 927      BINDING AFFINITY PREDICTED BY RF-SCORE:    0.00 PKD
ROOT
HETATM    1  C   UNL     1     -10.016  19.659  69.071  1.00  0.00    -0.482 C  
HETATM    2  C   UNL     1      -9.104  19.538  67.863  1.00  0.00    -0.387 C  
ENDROOT
BRANCH   2   3
HETATM    3  C   UNL     1      -9.706  20.236  66.649  1.00  0.00    -0.550 C  
BRANCH   3   4
HETATM    4  C   UNL     1     -10.594  19.285  65.849  1.00  0.00    -0.521 C  
BRANCH   4   5
HETATM    5  C   UNL     1     -10.092  17.858  66.016  1.00  0.00    -0.258 C  
BRANCH   5   6
HETATM    6  C   UNL     1     -10.661  16.904  65.007  1.00  0.00    -0.057 C  
HETATM    7  C   UNL     1     -11.003  15.645  65.321  1.00  0.00    -0.375 C  
BRANCH   7   8
HETATM    8  C   UNL     1     -10.836  15.044  66.684  1.00  0.00    -0.318 C  
BRANCH   8   9
HETATM    9  C   UNL     1      -9.705  14.064  66.729  1.00  0.00    -0.283 C  
HETATM   10  C   UNL     1      -9.835  12.740  66.556  1.00  0.00    -0.258 C  
BRANCH  10  11
HETATM   11  C   UNL     1     -11.140  12.022  66.386  1.00  0.00    -0.365 C  
BRANCH  11  12
HETATM   12  C   UNL     1     -11.604  11.405  67.675  1.00  0.00    -0.315 C  
HETATM   13  C   UNL     1     -11.255  10.184  68.109  1.00  0.00    -0.245 C  
BRANCH  13  14
HETATM   14  C   UNL     1     -10.353   9.284  67.322  1.00  0.00    -0.332 C  
BRANCH  14  15
HETATM   15  C   UNL     1     -10.115   7.928  67.974  1.00  0.00    -0.235 C  
BRANCH  15  16
HETATM   16  C   UNL     1     -10.474   6.823  66.980  1.00  0.00    -0.369 C  
BRANCH  16  17
HETATM   17  C   UNL     1     -10.495   5.456  67.648  1.00  0.00    -0.217 C  
HETATM   18  C   UNL     1      -9.716   4.436  66.853  1.00  0.00    -0.210 C  
HETATM   19  O   UNL     1      -9.135   4.649  65.799  1.00  0.00    -0.128 OA 
HETATM   20  O   UNL     1      -9.726   3.216  67.439  1.00  0.00    -0.117 OA 
ENDBRANCH  16  17
ENDBRANCH  15  16
ENDBRANCH  14  15
ENDBRANCH  13  14
ENDBRANCH  11  12
ENDBRANCH  10  11
ENDBRANCH   8   9
ENDBRANCH   7   8
ENDBRANCH   5   6
ENDBRANCH   4   5
ENDBRANCH   3   4
ENDBRANCH   2   3
TORSDOF 12
ENDMDL
MODEL      363
REMARK 921   NORMALIZED FREE ENERGY PREDICTED BY IDOCK:   -2.85 KCAL/MOL
REMARK 922        TOTAL FREE ENERGY PREDICTED BY IDOCK:   -6.81 KCAL/MOL
REMARK 923 INTER-LIGAND FREE ENERGY PREDICTED BY IDOCK:   -5.27 KCAL/MOL
REMARK 924 INTRA-LIGAND FREE ENERGY PREDICTED BY IDOCK:   -1.54 KCAL/MOL
REMARK 927      BINDING AFFINITY PREDICTED BY RF-SCORE:    0.00 PKD
ROOT
HETATM    1  C   UNL     1      -8.891   8.081  65.981  1.00  0.00    -0.196 C  
HETATM    2  C   UNL     1      -9.436   8.810  67.197  1.00  0.00    -0.208 C  
ENDROOT
BRANCH   2   3
HETATM    3  C   UNL     1      -8.765   8.323  68.476  1.00  0.00    -0.133 C  
BRANCH   3   4
HETATM    4  C   UNL     1      -8.788   9.402  69.557  1.00  0.00    -0.165 C  
BRANCH   4   5
HETATM    5  C   UNL     1      -8.116  10.663  69.032  1.00  0.00    -0.148 C  
BRANCH   5   6
HETATM    6  C   UNL     1      -6.632  10.684  69.252  1.00  0.00    -0.068 C  
HETATM    7  C   UNL     1      -5.826  11.563  68.637  1.00  0.00    -0.042 C  
BRANCH   7   8
HETATM    8  C   UNL     1      -6.300  12.594  67.657  1.00  0.00    -0.147 C  
BRANCH   8   9
HETATM    9  C   UNL     1      -6.838  13.812  68.341  1.00  0.00    -0.101 C  
HETATM   10  C   UNL     1      -8.075  14.301  68.170  1.00  0.00    -0.144 C  
BRANCH  10  11
HETATM   11  C   UNL     1      -9.081  13.765  67.197  1.00  0.00    -0.243 C  
BRANCH  11  12
HETATM   12  C   UNL     1     -10.206  13.057  67.898  1.00  0.00    -0.234 C  
HETATM   13  C   UNL     1     -11.507  13.354  67.750  1.00  0.00    -0.351 C  
BRANCH  13  14
HETATM   14  C   UNL     1     -11.978  14.460  66.856  1.00  0.00    -0.425 C  
BRANCH  14  15
HETATM   15  C   UNL     1     -12.790  13.980  65.660  1.00  0.00    -0.442 C  
BRANCH  15  16
HETATM   16  C   UNL     1     -11.994  14.233  64.379  1.00  0.00    -0.476 C  
BRANCH  16  17
HETATM   17  C   UNL     1     -10.973  13.131  64.131  1.00  0.00    -0.418 C  
HETATM   18  C   UNL     1     -11.626  11.877  63.602  1.00  0.00    -0.464 C  
HETATM   19  O   UNL     1     -12.822  11.732  63.393  1.00  0.00    -0.632 OA 
HETATM   20  O   UNL     1     -10.729  10.889  63.376  1.00  0.00    -0.233 OA 
ENDBRANCH  16  17
ENDBRANCH  15  16
ENDBRANCH  14  15
ENDBRANCH  13  14
ENDBRANCH  11  12
ENDBRANCH  10  11
ENDBRANCH   8   9
ENDBRANCH   7   8
ENDBRANCH   5   6
ENDBRANCH   4   5
ENDBRANCH   3   4
ENDBRANCH   2   3
TORSDOF 12
ENDMDL
MODEL      364
REMARK 921   NORMALIZED FREE ENERGY PREDICTED BY IDOCK:   -2.85 KCAL/MOL
REMARK 922        TOTAL FREE ENERGY PREDICTED BY IDOCK:   -6.80 KCAL/MOL
REMARK 923 INTER-LIGAND FREE ENERGY PREDICTED BY IDOCK:   -5.59 KCAL/MOL
REMARK 924 INTRA-LIGAND FREE ENERGY PREDICTED BY IDOCK:   -1.21 KCAL/MOL
REMARK 927      BINDING AFFINITY PREDICTED BY RF-SCORE:    0.00 PKD
ROOT
HETATM    1  C   UNL     1      -8.946  16.265  66.221  1.00  0.00    -0.366 C  
HETATM    2  C   UNL     1      -9.285  17.037  67.484  1.00  0.00    -0.231 C  
ENDROOT
BRANCH   2   3
HETATM    3  C   UNL     1     -10.757  16.876  67.847  1.00  0.00    -0.344 C  
BRANCH   3   4
HETATM    4  C   UNL     1     -10.919  16.317  69.260  1.00  0.00    -0.317 C  
BRANCH   4   5
HETATM    5  C   UNL     1     -11.772  15.057  69.214  1.00  0.00    -0.349 C  
BRANCH   5   6
HETATM    6  C   UNL     1     -11.866  14.450  67.846  1.00  0.00    -0.384 C  
HETATM    7  C   UNL     1     -11.478  13.191  67.589  1.00  0.00    -0.366 C  
BRANCH   7   8
HETATM    8  C   UNL     1     -10.892  12.267  68.615  1.00  0.00    -0.268 C  
BRANCH   8   9
HETATM    9  C   UNL     1     -11.896  11.271  69.108  1.00  0.00    -0.423 C  
HETATM   10  C   UNL     1     -11.624   9.986  69.383  1.00  0.00    -0.084 C  
BRANCH  10  11
HETATM   11  C   UNL     1     -10.301   9.322  69.151  1.00  0.00    -0.222 C  
BRANCH  11  12
HETATM   12  C   UNL     1     -10.256   8.630  67.818  1.00  0.00    -0.282 C  
HETATM   13  C   UNL     1     -10.690   7.380  67.588  1.00  0.00    -0.278 C  
BRANCH  13  14
HETATM   14  C   UNL     1     -11.265   6.522  68.673  1.00  0.00    -0.302 C  
BRANCH  14  15
HETATM   15  C   UNL     1     -10.344   5.393  69.118  1.00  0.00    -0.300 C  
BRANCH  15  16
HETATM   16  C   UNL     1     -10.293   5.359  70.646  1.00  0.00    -0.333 C  
BRANCH  16  17
HETATM   17  C   UNL     1      -9.687   4.059  71.154  1.00  0.00    -0.257 C  
HETATM   18  C   UNL     1     -10.207   3.702  72.526  1.00  0.00    -0.159 C  
HETATM   19  O   UNL     1     -11.012   4.355  73.173  1.00  0.00    -0.229 OA 
HETATM   20  O   UNL     1      -9.676   2.546  72.989  1.00  0.00    -0.099 OA 
ENDBRANCH  16  17
ENDBRANCH  15  16
ENDBRANCH  14  15
ENDBRANCH  13  14
ENDBRANCH  11  12
ENDBRANCH  10  11
ENDBRANCH   8   9
ENDBRANCH   7   8
ENDBRANCH   5   6
ENDBRANCH   4   5
ENDBRANCH   3   4
ENDBRANCH   2   3
TORSDOF 12
ENDMDL
MODEL      365
REMARK 921   NORMALIZED FREE ENERGY PREDICTED BY IDOCK:   -2.84 KCAL/MOL
REMARK 922        TOTAL FREE ENERGY PREDICTED BY IDOCK:   -6.79 KCAL/MOL
REMARK 923 INTER-LIGAND FREE ENERGY PREDICTED BY IDOCK:   -5.16 KCAL/MOL
REMARK 924 INTRA-LIGAND FREE ENERGY PREDICTED BY IDOCK:   -1.63 KCAL/MOL
REMARK 927      BINDING AFFINITY PREDICTED BY RF-SCORE:    0.00 PKD
ROOT
HETATM    1  C   UNL     1     -12.518  12.019  63.372  1.00  0.00    -0.625 C  
HETATM    2  C   UNL     1     -11.906  12.359  64.719  1.00  0.00    -0.442 C  
ENDROOT
BRANCH   2   3
HETATM    3  C   UNL     1     -12.502  13.642  65.286  1.00  0.00    -0.517 C  
BRANCH   3   4
HETATM    4  C   UNL     1     -11.645  14.855  64.925  1.00  0.00    -0.395 C  
BRANCH   4   5
HETATM    5  C   UNL     1     -10.483  14.967  65.902  1.00  0.00    -0.327 C  
BRANCH   5   6
HETATM    6  C   UNL     1     -10.837  15.687  67.169  1.00  0.00    -0.297 C  
HETATM    7  C   UNL     1      -9.979  15.801  68.195  1.00  0.00    -0.214 C  
BRANCH   7   8
HETATM    8  C   UNL     1      -8.600  15.211  68.206  1.00  0.00    -0.164 C  
BRANCH   8   9
HETATM    9  C   UNL     1      -7.652  16.021  69.035  1.00  0.00    -0.209 C  
HETATM   10  C   UNL     1      -6.482  15.573  69.515  1.00  0.00    -0.165 C  
BRANCH  10  11
HETATM   11  C   UNL     1      -5.985  14.166  69.381  1.00  0.00    -0.095 C  
BRANCH  11  12
HETATM   12  C   UNL     1      -5.754  13.796  67.943  1.00  0.00    -0.116 C  
HETATM   13  C   UNL     1      -6.008  12.589  67.413  1.00  0.00    -0.147 C  
BRANCH  13  14
HETATM   14  C   UNL     1      -6.550  11.455  68.229  1.00  0.00    -0.058 C  
BRANCH  14  15
HETATM   15  C   UNL     1      -7.962  11.692  68.749  1.00  0.00    -0.086 C  
BRANCH  15  16
HETATM   16  C   UNL     1      -8.938  11.683  67.573  1.00  0.00    -0.165 C  
BRANCH  16  17
HETATM   17  C   UNL     1     -10.364  11.957  68.029  1.00  0.00    -0.209 C  
HETATM   18  C   UNL     1     -11.169  10.684  68.132  1.00  0.00    -0.302 C  
HETATM   19  O   UNL     1     -10.757   9.560  67.883  1.00  0.00    -0.250 OA 
HETATM   20  O   UNL     1     -12.440  10.914  68.538  1.00  0.00    -0.375 OA 
ENDBRANCH  16  17
ENDBRANCH  15  16
ENDBRANCH  14  15
ENDBRANCH  13  14
ENDBRANCH  11  12
ENDBRANCH  10  11
ENDBRANCH   8   9
ENDBRANCH   7   8
ENDBRANCH   5   6
ENDBRANCH   4   5
ENDBRANCH   3   4
ENDBRANCH   2   3
TORSDOF 12
ENDMDL
MODEL      366
REMARK 921   NORMALIZED FREE ENERGY PREDICTED BY IDOCK:   -2.84 KCAL/MOL
REMARK 922        TOTAL FREE ENERGY PREDICTED BY IDOCK:   -6.79 KCAL/MOL
REMARK 923 INTER-LIGAND FREE ENERGY PREDICTED BY IDOCK:   -5.55 KCAL/MOL
REMARK 924 INTRA-LIGAND FREE ENERGY PREDICTED BY IDOCK:   -1.24 KCAL/MOL
REMARK 927      BINDING AFFINITY PREDICTED BY RF-SCORE:    0.00 PKD
ROOT
HETATM    1  C   UNL     1      -8.688   9.616  69.768  1.00  0.00    -0.221 C  
HETATM    2  C   UNL     1     -10.039   9.876  70.410  1.00  0.00    -0.258 C  
ENDROOT
BRANCH   2   3
HETATM    3  C   UNL     1     -10.874  10.830  69.565  1.00  0.00    -0.288 C  
BRANCH   3   4
HETATM    4  C   UNL     1     -11.192  10.224  68.199  1.00  0.00    -0.294 C  
BRANCH   4   5
HETATM    5  C   UNL     1     -10.842  11.223  67.104  1.00  0.00    -0.321 C  
BRANCH   5   6
HETATM    6  C   UNL     1     -11.416  12.589  67.339  1.00  0.00    -0.404 C  
HETATM    7  C   UNL     1     -12.151  13.228  66.415  1.00  0.00    -0.454 C  
BRANCH   7   8
HETATM    8  C   UNL     1     -12.460  12.674  65.057  1.00  0.00    -0.556 C  
BRANCH   8   9
HETATM    9  C   UNL     1     -11.491  13.157  64.022  1.00  0.00    -0.455 C  
HETATM   10  C   UNL     1     -10.525  12.407  63.471  1.00  0.00    -0.430 C  
BRANCH  10  11
HETATM   11  C   UNL     1     -10.201  11.000  63.870  1.00  0.00    -0.425 C  
BRANCH  11  12
HETATM   12  C   UNL     1      -9.332  10.321  62.848  1.00  0.00    -0.336 C  
HETATM   13  C   UNL     1      -8.463   9.334  63.116  1.00  0.00    -0.212 C  
BRANCH  13  14
HETATM   14  C   UNL     1      -8.258   8.805  64.502  1.00  0.00    -0.168 C  
BRANCH  14  15
HETATM   15  C   UNL     1      -7.040   7.901  64.641  1.00  0.00    -0.076 C  
BRANCH  15  16
HETATM   16  C   UNL     1      -7.432   6.649  65.427  1.00  0.00    -0.080 C  
BRANCH  16  17
HETATM   17  C   UNL     1      -8.232   5.679  64.569  1.00  0.00    -0.125 C  
HETATM   18  C   UNL     1      -9.317   4.996  65.366  1.00  0.00    -0.113 C  
HETATM   19  O   UNL     1      -9.546   5.175  66.553  1.00  0.00    -0.137 OA 
HETATM   20  O   UNL     1     -10.036   4.131  64.614  1.00  0.00    -0.196 OA 
ENDBRANCH  16  17
ENDBRANCH  15  16
ENDBRANCH  14  15
ENDBRANCH  13  14
ENDBRANCH  11  12
ENDBRANCH  10  11
ENDBRANCH   8   9
ENDBRANCH   7   8
ENDBRANCH   5   6
ENDBRANCH   4   5
ENDBRANCH   3   4
ENDBRANCH   2   3
TORSDOF 12
ENDMDL
MODEL      367
REMARK 921   NORMALIZED FREE ENERGY PREDICTED BY IDOCK:   -2.84 KCAL/MOL
REMARK 922        TOTAL FREE ENERGY PREDICTED BY IDOCK:   -6.78 KCAL/MOL
REMARK 923 INTER-LIGAND FREE ENERGY PREDICTED BY IDOCK:   -5.37 KCAL/MOL
REMARK 924 INTRA-LIGAND FREE ENERGY PREDICTED BY IDOCK:   -1.41 KCAL/MOL
REMARK 927      BINDING AFFINITY PREDICTED BY RF-SCORE:    0.00 PKD
ROOT
HETATM    1  C   UNL     1     -11.070   6.494  68.301  1.00  0.00    -0.332 C  
HETATM    2  C   UNL     1      -9.823   7.358  68.244  1.00  0.00    -0.173 C  
ENDROOT
BRANCH   2   3
HETATM    3  C   UNL     1     -10.103   8.763  68.764  1.00  0.00    -0.213 C  
BRANCH   3   4
HETATM    4  C   UNL     1     -10.787   9.620  67.699  1.00  0.00    -0.276 C  
BRANCH   4   5
HETATM    5  C   UNL     1      -9.962   9.595  66.420  1.00  0.00    -0.323 C  
BRANCH   5   6
HETATM    6  C   UNL     1     -10.213  10.775  65.528  1.00  0.00    -0.330 C  
HETATM    7  C   UNL     1      -9.588  11.951  65.698  1.00  0.00    -0.221 C  
BRANCH   7   8
HETATM    8  C   UNL     1      -8.602  12.227  66.794  1.00  0.00    -0.149 C  
BRANCH   8   9
HETATM    9  C   UNL     1      -9.172  13.129  67.844  1.00  0.00    -0.207 C  
HETATM   10  C   UNL     1      -9.097  14.469  67.823  1.00  0.00    -0.190 C  
BRANCH  10  11
HETATM   11  C   UNL     1      -8.350  15.269  66.800  1.00  0.00    -0.258 C  
BRANCH  11  12
HETATM   12  C   UNL     1      -6.945  15.563  67.246  1.00  0.00    -0.206 C  
HETATM   13  C   UNL     1      -6.287  16.708  67.000  1.00  0.00    -0.222 C  
BRANCH  13  14
HETATM   14  C   UNL     1      -6.902  17.831  66.223  1.00  0.00    -0.308 C  
BRANCH  14  15
HETATM   15  C   UNL     1      -6.808  19.183  66.918  1.00  0.00    -0.206 C  
BRANCH  15  16
HETATM   16  C   UNL     1      -8.215  19.755  67.094  1.00  0.00    -0.335 C  
BRANCH  16  17
HETATM   17  C   UNL     1      -9.038  18.924  68.068  1.00  0.00    -0.340 C  
HETATM   18  C   UNL     1     -10.185  18.229  67.375  1.00  0.00    -0.371 C  
HETATM   19  O   UNL     1     -10.448  18.307  66.184  1.00  0.00    -0.420 OA 
HETATM   20  O   UNL     1     -10.924  17.485  68.231  1.00  0.00    -0.290 OA 
ENDBRANCH  16  17
ENDBRANCH  15  16
ENDBRANCH  14  15
ENDBRANCH  13  14
ENDBRANCH  11  12
ENDBRANCH  10  11
ENDBRANCH   8   9
ENDBRANCH   7   8
ENDBRANCH   5   6
ENDBRANCH   4   5
ENDBRANCH   3   4
ENDBRANCH   2   3
TORSDOF 12
ENDMDL
MODEL      368
REMARK 921   NORMALIZED FREE ENERGY PREDICTED BY IDOCK:   -2.83 KCAL/MOL
REMARK 922        TOTAL FREE ENERGY PREDICTED BY IDOCK:   -6.78 KCAL/MOL
REMARK 923 INTER-LIGAND FREE ENERGY PREDICTED BY IDOCK:   -5.21 KCAL/MOL
REMARK 924 INTRA-LIGAND FREE ENERGY PREDICTED BY IDOCK:   -1.57 KCAL/MOL
REMARK 927      BINDING AFFINITY PREDICTED BY RF-SCORE:    0.00 PKD
ROOT
HETATM    1  C   UNL     1     -10.276   5.462  69.275  1.00  0.00    -0.315 C  
HETATM    2  C   UNL     1      -9.482   6.746  69.113  1.00  0.00    -0.141 C  
ENDROOT
BRANCH   2   3
HETATM    3  C   UNL     1     -10.350   7.968  69.387  1.00  0.00    -0.217 C  
BRANCH   3   4
HETATM    4  C   UNL     1     -10.697   8.701  68.092  1.00  0.00    -0.116 C  
BRANCH   4   5
HETATM    5  C   UNL     1      -9.423   9.240  67.456  1.00  0.00    -0.160 C  
BRANCH   5   6
HETATM    6  C   UNL     1      -9.673  10.047  66.216  1.00  0.00    -0.272 C  
HETATM    7  C   UNL     1      -9.935  11.363  66.256  1.00  0.00    -0.259 C  
BRANCH   7   8
HETATM    8  C   UNL     1     -10.034  12.162  67.521  1.00  0.00    -0.202 C  
BRANCH   8   9
HETATM    9  C   UNL     1     -11.450  12.303  67.985  1.00  0.00    -0.378 C  
HETATM   10  C   UNL     1     -12.081  13.472  68.170  1.00  0.00    -0.290 C  
BRANCH  10  11
HETATM   11  C   UNL     1     -11.442  14.821  68.034  1.00  0.00    -0.351 C  
BRANCH  11  12
HETATM   12  C   UNL     1     -11.192  15.452  69.375  1.00  0.00    -0.300 C  
HETATM   13  C   UNL     1      -9.981  15.613  69.932  1.00  0.00    -0.235 C  
BRANCH  13  14
HETATM   14  C   UNL     1      -8.724  15.154  69.259  1.00  0.00    -0.207 C  
BRANCH  14  15
HETATM   15  C   UNL     1      -7.656  16.233  69.150  1.00  0.00    -0.227 C  
BRANCH  15  16
HETATM   16  C   UNL     1      -7.217  16.359  67.690  1.00  0.00    -0.156 C  
BRANCH  16  17
HETATM   17  C   UNL     1      -8.322  15.930  66.736  1.00  0.00    -0.306 C  
HETATM   18  C   UNL     1      -9.177  17.100  66.313  1.00  0.00    -0.231 C  
HETATM   19  O   UNL     1      -9.027  18.257  66.675  1.00  0.00    -0.273 OA 
HETATM   20  O   UNL     1     -10.164  16.731  65.463  1.00  0.00    -0.567 OA 
ENDBRANCH  16  17
ENDBRANCH  15  16
ENDBRANCH  14  15
ENDBRANCH  13  14
ENDBRANCH  11  12
ENDBRANCH  10  11
ENDBRANCH   8   9
ENDBRANCH   7   8
ENDBRANCH   5   6
ENDBRANCH   4   5
ENDBRANCH   3   4
ENDBRANCH   2   3
TORSDOF 12
ENDMDL
MODEL      369
REMARK 921   NORMALIZED FREE ENERGY PREDICTED BY IDOCK:   -2.82 KCAL/MOL
REMARK 922        TOTAL FREE ENERGY PREDICTED BY IDOCK:   -6.75 KCAL/MOL
REMARK 923 INTER-LIGAND FREE ENERGY PREDICTED BY IDOCK:   -4.72 KCAL/MOL
REMARK 924 INTRA-LIGAND FREE ENERGY PREDICTED BY IDOCK:   -2.02 KCAL/MOL
REMARK 927      BINDING AFFINITY PREDICTED BY RF-SCORE:    0.00 PKD
ROOT
HETATM    1  C   UNL     1      -8.760  10.293  64.680  1.00  0.00    -0.203 C  
HETATM    2  C   UNL     1     -10.097  10.978  64.897  1.00  0.00    -0.359 C  
ENDROOT
BRANCH   2   3
HETATM    3  C   UNL     1     -10.501  10.940  66.367  1.00  0.00    -0.307 C  
BRANCH   3   4
HETATM    4  C   UNL     1      -9.765   9.829  67.113  1.00  0.00    -0.223 C  
BRANCH   4   5
HETATM    5  C   UNL     1     -10.774   8.844  67.687  1.00  0.00    -0.221 C  
BRANCH   5   6
HETATM    6  C   UNL     1     -10.700   7.483  67.062  1.00  0.00    -0.367 C  
HETATM    7  C   UNL     1     -10.859   6.356  67.773  1.00  0.00    -0.418 C  
BRANCH   7   8
HETATM    8  C   UNL     1     -11.101   6.323  69.252  1.00  0.00    -0.461 C  
BRANCH   8   9
HETATM    9  C   UNL     1     -10.434   5.150  69.902  1.00  0.00    -0.296 C  
HETATM   10  C   UNL     1      -9.235   5.189  70.503  1.00  0.00    -0.191 C  
BRANCH  10  11
HETATM   11  C   UNL     1      -8.332   6.385  70.535  1.00  0.00    -0.129 C  
BRANCH  11  12
HETATM   12  C   UNL     1      -8.587   7.237  71.747  1.00  0.00    -0.121 C  
HETATM   13  C   UNL     1      -8.658   8.577  71.739  1.00  0.00    -0.254 C  
BRANCH  13  14
HETATM   14  C   UNL     1      -8.472   9.380  70.488  1.00  0.00    -0.251 C  
BRANCH  14  15
HETATM   15  C   UNL     1      -7.040   9.846  70.264  1.00  0.00    -0.155 C  
BRANCH  15  16
HETATM   16  C   UNL     1      -7.038  10.996  69.256  1.00  0.00    -0.123 C  
BRANCH  16  17
HETATM   17  C   UNL     1      -6.251  10.639  68.003  1.00  0.00    -0.053 C  
HETATM   18  C   UNL     1      -6.105  11.825  67.080  1.00  0.00    -0.144 C  
HETATM   19  O   UNL     1      -6.555  12.943  67.284  1.00  0.00    -0.157 OA 
HETATM   20  O   UNL     1      -5.406  11.520  65.963  1.00  0.00    -0.288 OA 
ENDBRANCH  16  17
ENDBRANCH  15  16
ENDBRANCH  14  15
ENDBRANCH  13  14
ENDBRANCH  11  12
ENDBRANCH  10  11
ENDBRANCH   8   9
ENDBRANCH   7   8
ENDBRANCH   5   6
ENDBRANCH   4   5
ENDBRANCH   3   4
ENDBRANCH   2   3
TORSDOF 12
ENDMDL
MODEL      370
REMARK 921   NORMALIZED FREE ENERGY PREDICTED BY IDOCK:   -2.81 KCAL/MOL
REMARK 922        TOTAL FREE ENERGY PREDICTED BY IDOCK:   -6.74 KCAL/MOL
REMARK 923 INTER-LIGAND FREE ENERGY PREDICTED BY IDOCK:   -6.01 KCAL/MOL
REMARK 924 INTRA-LIGAND FREE ENERGY PREDICTED BY IDOCK:   -0.73 KCAL/MOL
REMARK 927      BINDING AFFINITY PREDICTED BY RF-SCORE:    0.00 PKD
ROOT
HETATM    1  C   UNL     1      -6.047  20.389  68.265  1.00  0.00    -0.326 C  
HETATM    2  C   UNL     1      -7.162  19.372  68.428  1.00  0.00    -0.345 C  
ENDROOT
BRANCH   2   3
HETATM    3  C   UNL     1      -8.442  19.846  67.751  1.00  0.00    -0.356 C  
BRANCH   3   4
HETATM    4  C   UNL     1      -9.636  18.987  68.163  1.00  0.00    -0.395 C  
BRANCH   4   5
HETATM    5  C   UNL     1      -9.847  17.882  67.137  1.00  0.00    -0.308 C  
BRANCH   5   6
HETATM    6  C   UNL     1      -9.143  16.604  67.485  1.00  0.00    -0.204 C  
HETATM    7  C   UNL     1      -9.797  15.441  67.632  1.00  0.00    -0.220 C  
BRANCH   7   8
HETATM    8  C   UNL     1     -11.282  15.288  67.494  1.00  0.00    -0.317 C  
BRANCH   8   9
HETATM    9  C   UNL     1     -11.649  14.399  66.346  1.00  0.00    -0.383 C  
HETATM   10  C   UNL     1     -11.824  13.072  66.434  1.00  0.00    -0.465 C  
BRANCH  10  11
HETATM   11  C   UNL     1     -11.587  12.257  67.669  1.00  0.00    -0.421 C  
BRANCH  11  12
HETATM   12  C   UNL     1     -10.684  11.087  67.395  1.00  0.00    -0.303 C  
HETATM   13  C   UNL     1     -10.644   9.962  68.126  1.00  0.00    -0.270 C  
BRANCH  13  14
HETATM   14  C   UNL     1     -11.511   9.762  69.331  1.00  0.00    -0.015 C  
BRANCH  14  15
HETATM   15  C   UNL     1     -10.744   9.339  70.577  1.00  0.00    -0.313 C  
BRANCH  15  16
HETATM   16  C   UNL     1     -11.564   8.300  71.343  1.00  0.00    -0.322 C  
BRANCH  16  17
HETATM   17  C   UNL     1     -11.135   8.214  72.800  1.00  0.00    -0.407 C  
HETATM   18  C   UNL     1     -10.044   7.190  73.000  1.00  0.00    -0.228 C  
HETATM   19  O   UNL     1      -9.549   6.498  72.121  1.00  0.00    -0.150 OA 
HETATM   20  O   UNL     1      -9.652   7.105  74.292  1.00  0.00    -0.257 OA 
ENDBRANCH  16  17
ENDBRANCH  15  16
ENDBRANCH  14  15
ENDBRANCH  13  14
ENDBRANCH  11  12
ENDBRANCH  10  11
ENDBRANCH   8   9
ENDBRANCH   7   8
ENDBRANCH   5   6
ENDBRANCH   4   5
ENDBRANCH   3   4
ENDBRANCH   2   3
TORSDOF 12
ENDMDL
MODEL      371
REMARK 921   NORMALIZED FREE ENERGY PREDICTED BY IDOCK:   -2.79 KCAL/MOL
REMARK 922        TOTAL FREE ENERGY PREDICTED BY IDOCK:   -6.71 KCAL/MOL
REMARK 923 INTER-LIGAND FREE ENERGY PREDICTED BY IDOCK:   -5.24 KCAL/MOL
REMARK 924 INTRA-LIGAND FREE ENERGY PREDICTED BY IDOCK:   -1.46 KCAL/MOL
REMARK 927      BINDING AFFINITY PREDICTED BY RF-SCORE:    0.00 PKD
ROOT
HETATM    1  C   UNL     1      -9.896  15.361  65.380  1.00  0.00    -0.314 C  
HETATM    2  C   UNL     1      -9.106  16.434  66.108  1.00  0.00    -0.362 C  
ENDROOT
BRANCH   2   3
HETATM    3  C   UNL     1      -9.890  16.984  67.294  1.00  0.00    -0.260 C  
BRANCH   3   4
HETATM    4  C   UNL     1      -9.342  16.447  68.615  1.00  0.00    -0.233 C  
BRANCH   4   5
HETATM    5  C   UNL     1     -10.492  16.207  69.583  1.00  0.00    -0.291 C  
BRANCH   5   6
HETATM    6  C   UNL     1     -11.756  15.761  68.909  1.00  0.00    -0.404 C  
HETATM    7  C   UNL     1     -12.134  14.474  68.870  1.00  0.00    -0.272 C  
BRANCH   7   8
HETATM    8  C   UNL     1     -11.342  13.347  69.463  1.00  0.00    -0.248 C  
BRANCH   8   9
HETATM    9  C   UNL     1     -12.193  12.145  69.730  1.00  0.00    -0.212 C  
HETATM   10  C   UNL     1     -11.754  10.878  69.706  1.00  0.00    -0.413 C  
BRANCH  10  11
HETATM   11  C   UNL     1     -10.370  10.458  69.314  1.00  0.00    -0.250 C  
BRANCH  11  12
HETATM   12  C   UNL     1     -10.392   9.443  68.205  1.00  0.00    -0.251 C  
HETATM   13  C   UNL     1      -9.971   8.174  68.321  1.00  0.00    -0.212 C  
BRANCH  13  14
HETATM   14  C   UNL     1      -9.409   7.632  69.599  1.00  0.00    -0.156 C  
BRANCH  14  15
HETATM   15  C   UNL     1     -10.467   7.138  70.577  1.00  0.00    -0.228 C  
BRANCH  15  16
HETATM   16  C   UNL     1     -10.220   7.771  71.946  1.00  0.00    -0.250 C  
BRANCH  16  17
HETATM   17  C   UNL     1      -8.937   8.590  71.959  1.00  0.00    -0.301 C  
HETATM   18  C   UNL     1      -7.970   8.093  73.006  1.00  0.00    -0.165 C  
HETATM   19  O   UNL     1      -8.164   7.155  73.765  1.00  0.00    -0.120 OA 
HETATM   20  O   UNL     1      -6.824   8.813  73.026  1.00  0.00    -0.303 OA 
ENDBRANCH  16  17
ENDBRANCH  15  16
ENDBRANCH  14  15
ENDBRANCH  13  14
ENDBRANCH  11  12
ENDBRANCH  10  11
ENDBRANCH   8   9
ENDBRANCH   7   8
ENDBRANCH   5   6
ENDBRANCH   4   5
ENDBRANCH   3   4
ENDBRANCH   2   3
TORSDOF 12
ENDMDL
MODEL      372
REMARK 921   NORMALIZED FREE ENERGY PREDICTED BY IDOCK:   -2.79 KCAL/MOL
REMARK 922        TOTAL FREE ENERGY PREDICTED BY IDOCK:   -6.71 KCAL/MOL
REMARK 923 INTER-LIGAND FREE ENERGY PREDICTED BY IDOCK:   -5.14 KCAL/MOL
REMARK 924 INTRA-LIGAND FREE ENERGY PREDICTED BY IDOCK:   -1.56 KCAL/MOL
REMARK 927      BINDING AFFINITY PREDICTED BY RF-SCORE:    0.00 PKD
ROOT
HETATM    1  C   UNL     1      -8.286   6.151  65.766  1.00  0.00    -0.143 C  
HETATM    2  C   UNL     1      -9.425   5.168  65.973  1.00  0.00    -0.170 C  
ENDROOT
BRANCH   2   3
HETATM    3  C   UNL     1     -10.623   5.845  66.627  1.00  0.00    -0.330 C  
BRANCH   3   4
HETATM    4  C   UNL     1     -10.765   5.423  68.089  1.00  0.00    -0.076 C  
BRANCH   4   5
HETATM    5  C   UNL     1      -9.750   6.177  68.937  1.00  0.00    -0.151 C  
BRANCH   5   6
HETATM    6  C   UNL     1     -10.045   6.123  70.407  1.00  0.00    -0.237 C  
HETATM    7  C   UNL     1     -10.706   7.102  71.044  1.00  0.00    -0.252 C  
BRANCH   7   8
HETATM    8  C   UNL     1     -11.196   8.354  70.381  1.00  0.00    -0.220 C  
BRANCH   8   9
HETATM    9  C   UNL     1     -10.131   9.404  70.310  1.00  0.00    -0.288 C  
HETATM   10  C   UNL     1     -10.026  10.322  69.338  1.00  0.00    -0.254 C  
BRANCH  10  11
HETATM   11  C   UNL     1     -10.899  10.384  68.121  1.00  0.00    -0.311 C  
BRANCH  11  12
HETATM   12  C   UNL     1     -10.430   9.434  67.055  1.00  0.00    -0.302 C  
HETATM   13  C   UNL     1      -9.981   9.802  65.845  1.00  0.00    -0.345 C  
BRANCH  13  14
HETATM   14  C   UNL     1      -9.915  11.237  65.420  1.00  0.00    -0.297 C  
BRANCH  14  15
HETATM   15  C   UNL     1     -11.279  11.885  65.227  1.00  0.00    -0.351 C  
BRANCH  15  16
HETATM   16  C   UNL     1     -11.218  13.336  65.704  1.00  0.00    -0.304 C  
BRANCH  16  17
HETATM   17  C   UNL     1      -9.837  13.691  66.235  1.00  0.00    -0.310 C  
HETATM   18  C   UNL     1      -9.658  15.184  66.369  1.00  0.00    -0.284 C  
HETATM   19  O   UNL     1     -10.499  16.028  66.092  1.00  0.00    -0.308 OA 
HETATM   20  O   UNL     1      -8.433  15.513  66.842  1.00  0.00    -0.212 OA 
ENDBRANCH  16  17
ENDBRANCH  15  16
ENDBRANCH  14  15
ENDBRANCH  13  14
ENDBRANCH  11  12
ENDBRANCH  10  11
ENDBRANCH   8   9
ENDBRANCH   7   8
ENDBRANCH   5   6
ENDBRANCH   4   5
ENDBRANCH   3   4
ENDBRANCH   2   3
TORSDOF 12
ENDMDL
MODEL      373
REMARK 921   NORMALIZED FREE ENERGY PREDICTED BY IDOCK:   -2.79 KCAL/MOL
REMARK 922        TOTAL FREE ENERGY PREDICTED BY IDOCK:   -6.70 KCAL/MOL
REMARK 923 INTER-LIGAND FREE ENERGY PREDICTED BY IDOCK:   -5.11 KCAL/MOL
REMARK 924 INTRA-LIGAND FREE ENERGY PREDICTED BY IDOCK:   -1.59 KCAL/MOL
REMARK 927      BINDING AFFINITY PREDICTED BY RF-SCORE:    0.00 PKD
ROOT
HETATM    1  C   UNL     1      -8.641   8.617  65.406  1.00  0.00    -0.206 C  
HETATM    2  C   UNL     1      -9.367   9.690  66.197  1.00  0.00    -0.248 C  
ENDROOT
BRANCH   2   3
HETATM    3  C   UNL     1      -9.502   9.295  67.663  1.00  0.00    -0.156 C  
BRANCH   3   4
HETATM    4  C   UNL     1      -9.856  10.503  68.530  1.00  0.00    -0.175 C  
BRANCH   4   5
HETATM    5  C   UNL     1      -8.774  11.565  68.389  1.00  0.00    -0.160 C  
BRANCH   5   6
HETATM    6  C   UNL     1      -7.523  11.247  69.153  1.00  0.00    -0.084 C  
HETATM    7  C   UNL     1      -6.498  12.108  69.244  1.00  0.00    -0.111 C  
BRANCH   7   8
HETATM    8  C   UNL     1      -6.470  13.454  68.585  1.00  0.00    -0.091 C  
BRANCH   8   9
HETATM    9  C   UNL     1      -6.528  14.568  69.584  1.00  0.00    -0.148 C  
HETATM   10  C   UNL     1      -7.536  15.447  69.690  1.00  0.00    -0.165 C  
BRANCH  10  11
HETATM   11  C   UNL     1      -8.715  15.514  68.767  1.00  0.00    -0.192 C  
BRANCH  11  12
HETATM   12  C   UNL     1      -9.235  16.918  68.635  1.00  0.00    -0.265 C  
HETATM   13  C   UNL     1      -9.549  17.513  67.473  1.00  0.00    -0.265 C  
BRANCH  13  14
HETATM   14  C   UNL     1      -9.396  16.820  66.154  1.00  0.00    -0.288 C  
BRANCH  14  15
HETATM   15  C   UNL     1     -10.718  16.448  65.497  1.00  0.00    -0.300 C  
BRANCH  15  16
HETATM   16  C   UNL     1     -10.670  14.982  65.065  1.00  0.00    -0.448 C  
BRANCH  16  17
HETATM   17  C   UNL     1     -10.740  14.046  66.263  1.00  0.00    -0.289 C  
HETATM   18  C   UNL     1     -11.947  13.141  66.191  1.00  0.00    -0.422 C  
HETATM   19  O   UNL     1     -12.781  13.139  65.298  1.00  0.00    -0.551 OA 
HETATM   20  O   UNL     1     -12.020  12.302  67.250  1.00  0.00    -0.546 OA 
ENDBRANCH  16  17
ENDBRANCH  15  16
ENDBRANCH  14  15
ENDBRANCH  13  14
ENDBRANCH  11  12
ENDBRANCH  10  11
ENDBRANCH   8   9
ENDBRANCH   7   8
ENDBRANCH   5   6
ENDBRANCH   4   5
ENDBRANCH   3   4
ENDBRANCH   2   3
TORSDOF 12
ENDMDL
MODEL      374
REMARK 921   NORMALIZED FREE ENERGY PREDICTED BY IDOCK:   -2.78 KCAL/MOL
REMARK 922        TOTAL FREE ENERGY PREDICTED BY IDOCK:   -6.69 KCAL/MOL
REMARK 923 INTER-LIGAND FREE ENERGY PREDICTED BY IDOCK:   -4.99 KCAL/MOL
REMARK 924 INTRA-LIGAND FREE ENERGY PREDICTED BY IDOCK:   -1.70 KCAL/MOL
REMARK 927      BINDING AFFINITY PREDICTED BY RF-SCORE:    0.00 PKD
ROOT
HETATM    1  C   UNL     1      -9.337   9.978  64.145  1.00  0.00    -0.335 C  
HETATM    2  C   UNL     1     -10.206  10.485  65.282  1.00  0.00    -0.352 C  
ENDROOT
BRANCH   2   3
HETATM    3  C   UNL     1     -10.138   9.551  66.485  1.00  0.00    -0.326 C  
BRANCH   3   4
HETATM    4  C   UNL     1      -9.827  10.322  67.766  1.00  0.00    -0.195 C  
BRANCH   4   5
HETATM    5  C   UNL     1      -8.614  11.213  67.543  1.00  0.00    -0.129 C  
BRANCH   5   6
HETATM    6  C   UNL     1      -7.321  10.574  67.956  1.00  0.00    -0.089 C  
HETATM    7  C   UNL     1      -6.140  11.201  67.841  1.00  0.00    -0.049 C  
BRANCH   7   8
HETATM    8  C   UNL     1      -5.972  12.579  67.273  1.00  0.00    -0.111 C  
BRANCH   8   9
HETATM    9  C   UNL     1      -5.944  13.625  68.344  1.00  0.00    -0.097 C  
HETATM   10  C   UNL     1      -6.822  14.634  68.450  1.00  0.00    -0.102 C  
BRANCH  10  11
HETATM   11  C   UNL     1      -7.911  14.928  67.463  1.00  0.00    -0.206 C  
BRANCH  11  12
HETATM   12  C   UNL     1      -8.897  15.923  68.008  1.00  0.00    -0.178 C  
HETATM   13  C   UNL     1     -10.173  15.645  68.319  1.00  0.00    -0.223 C  
BRANCH  13  14
HETATM   14  C   UNL     1     -10.760  14.279  68.136  1.00  0.00    -0.249 C  
BRANCH  14  15
HETATM   15  C   UNL     1     -12.179  14.142  68.673  1.00  0.00    -0.216 C  
BRANCH  15  16
HETATM   16  C   UNL     1     -12.121  13.812  70.165  1.00  0.00    -0.429 C  
BRANCH  16  17
HETATM   17  C   UNL     1     -12.087  12.309  70.403  1.00  0.00    -0.385 C  
HETATM   18  C   UNL     1     -12.924  11.916  71.596  1.00  0.00    -0.342 C  
HETATM   19  O   UNL     1     -13.558  12.685  72.304  1.00  0.00    -0.547 OA 
HETATM   20  O   UNL     1     -12.903  10.581  71.817  1.00  0.00    -0.429 OA 
ENDBRANCH  16  17
ENDBRANCH  15  16
ENDBRANCH  14  15
ENDBRANCH  13  14
ENDBRANCH  11  12
ENDBRANCH  10  11
ENDBRANCH   8   9
ENDBRANCH   7   8
ENDBRANCH   5   6
ENDBRANCH   4   5
ENDBRANCH   3   4
ENDBRANCH   2   3
TORSDOF 12
ENDMDL
MODEL      375
REMARK 921   NORMALIZED FREE ENERGY PREDICTED BY IDOCK:   -2.77 KCAL/MOL
REMARK 922        TOTAL FREE ENERGY PREDICTED BY IDOCK:   -6.67 KCAL/MOL
REMARK 923 INTER-LIGAND FREE ENERGY PREDICTED BY IDOCK:   -5.49 KCAL/MOL
REMARK 924 INTRA-LIGAND FREE ENERGY PREDICTED BY IDOCK:   -1.18 KCAL/MOL
REMARK 927      BINDING AFFINITY PREDICTED BY RF-SCORE:    0.00 PKD
ROOT
HETATM    1  C   UNL     1      -5.759  21.085  67.933  1.00  0.00    -0.375 C  
HETATM    2  C   UNL     1      -6.740  20.013  68.374  1.00  0.00    -0.337 C  
ENDROOT
BRANCH   2   3
HETATM    3  C   UNL     1      -8.081  20.170  67.665  1.00  0.00    -0.334 C  
BRANCH   3   4
HETATM    4  C   UNL     1      -8.961  18.939  67.872  1.00  0.00    -0.328 C  
BRANCH   4   5
HETATM    5  C   UNL     1      -9.221  18.267  66.530  1.00  0.00    -0.298 C  
BRANCH   5   6
HETATM    6  C   UNL     1      -8.347  17.074  66.282  1.00  0.00    -0.308 C  
HETATM    7  C   UNL     1      -8.846  15.839  66.116  1.00  0.00    -0.346 C  
BRANCH   7   8
HETATM    8  C   UNL     1     -10.307  15.508  66.181  1.00  0.00    -0.327 C  
BRANCH   8   9
HETATM    9  C   UNL     1     -10.806  14.924  64.896  1.00  0.00    -0.431 C  
HETATM   10  C   UNL     1     -10.977  13.613  64.668  1.00  0.00    -0.403 C  
BRANCH  10  11
HETATM   11  C   UNL     1     -10.607  12.522  65.626  1.00  0.00    -0.298 C  
BRANCH  11  12
HETATM   12  C   UNL     1     -11.532  12.488  66.810  1.00  0.00    -0.422 C  
HETATM   13  C   UNL     1     -11.179  12.102  68.047  1.00  0.00    -0.319 C  
BRANCH  13  14
HETATM   14  C   UNL     1      -9.792  11.642  68.375  1.00  0.00    -0.202 C  
BRANCH  14  15
HETATM   15  C   UNL     1      -9.629  10.127  68.371  1.00  0.00    -0.150 C  
BRANCH  15  16
HETATM   16  C   UNL     1      -8.226   9.774  67.878  1.00  0.00    -0.113 C  
BRANCH  16  17
HETATM   17  C   UNL     1      -7.951  10.369  66.504  1.00  0.00    -0.123 C  
HETATM   18  C   UNL     1      -8.061   9.330  65.415  1.00  0.00    -0.122 C  
HETATM   19  O   UNL     1      -8.331   8.150  65.584  1.00  0.00    -0.127 OA 
HETATM   20  O   UNL     1      -7.819   9.847  64.188  1.00  0.00    -0.131 OA 
ENDBRANCH  16  17
ENDBRANCH  15  16
ENDBRANCH  14  15
ENDBRANCH  13  14
ENDBRANCH  11  12
ENDBRANCH  10  11
ENDBRANCH   8   9
ENDBRANCH   7   8
ENDBRANCH   5   6
ENDBRANCH   4   5
ENDBRANCH   3   4
ENDBRANCH   2   3
TORSDOF 12
ENDMDL
MODEL      376
REMARK 921   NORMALIZED FREE ENERGY PREDICTED BY IDOCK:   -2.77 KCAL/MOL
REMARK 922        TOTAL FREE ENERGY PREDICTED BY IDOCK:   -6.67 KCAL/MOL
REMARK 923 INTER-LIGAND FREE ENERGY PREDICTED BY IDOCK:   -4.98 KCAL/MOL
REMARK 924 INTRA-LIGAND FREE ENERGY PREDICTED BY IDOCK:   -1.69 KCAL/MOL
REMARK 927      BINDING AFFINITY PREDICTED BY RF-SCORE:    0.00 PKD
ROOT
HETATM    1  C   UNL     1     -10.542   5.903  68.364  1.00  0.00    -0.314 C  
HETATM    2  C   UNL     1      -9.590   7.053  68.642  1.00  0.00    -0.138 C  
ENDROOT
BRANCH   2   3
HETATM    3  C   UNL     1     -10.344   8.372  68.766  1.00  0.00    -0.225 C  
BRANCH   3   4
HETATM    4  C   UNL     1     -10.877   8.832  67.411  1.00  0.00    -0.087 C  
BRANCH   4   5
HETATM    5  C   UNL     1      -9.776   8.724  66.366  1.00  0.00    -0.335 C  
BRANCH   5   6
HETATM    6  C   UNL     1      -9.753   9.873  65.402  1.00  0.00    -0.375 C  
HETATM    7  C   UNL     1      -8.768  10.784  65.392  1.00  0.00    -0.190 C  
BRANCH   7   8
HETATM    8  C   UNL     1      -7.607  10.776  66.341  1.00  0.00    -0.141 C  
BRANCH   8   9
HETATM    9  C   UNL     1      -7.997  11.252  67.706  1.00  0.00    -0.117 C  
HETATM   10  C   UNL     1      -8.382  12.504  67.998  1.00  0.00    -0.171 C  
BRANCH  10  11
HETATM   11  C   UNL     1      -8.390  13.645  67.026  1.00  0.00    -0.099 C  
BRANCH  11  12
HETATM   12  C   UNL     1      -7.635  14.830  67.558  1.00  0.00    -0.215 C  
HETATM   13  C   UNL     1      -8.202  15.908  68.124  1.00  0.00    -0.149 C  
BRANCH  13  14
HETATM   14  C   UNL     1      -9.686  16.045  68.272  1.00  0.00    -0.214 C  
BRANCH  14  15
HETATM   15  C   UNL     1     -10.230  15.471  69.573  1.00  0.00    -0.279 C  
BRANCH  15  16
HETATM   16  C   UNL     1     -11.689  15.062  69.370  1.00  0.00    -0.351 C  
BRANCH  16  17
HETATM   17  C   UNL     1     -11.868  14.246  68.098  1.00  0.00    -0.374 C  
HETATM   18  C   UNL     1     -11.863  12.763  68.382  1.00  0.00    -0.310 C  
HETATM   19  O   UNL     1     -11.731  12.252  69.485  1.00  0.00    -0.302 OA 
HETATM   20  O   UNL     1     -12.022  12.026  67.258  1.00  0.00    -0.591 OA 
ENDBRANCH  16  17
ENDBRANCH  15  16
ENDBRANCH  14  15
ENDBRANCH  13  14
ENDBRANCH  11  12
ENDBRANCH  10  11
ENDBRANCH   8   9
ENDBRANCH   7   8
ENDBRANCH   5   6
ENDBRANCH   4   5
ENDBRANCH   3   4
ENDBRANCH   2   3
TORSDOF 12
ENDMDL
MODEL      377
REMARK 921   NORMALIZED FREE ENERGY PREDICTED BY IDOCK:   -2.77 KCAL/MOL
REMARK 922        TOTAL FREE ENERGY PREDICTED BY IDOCK:   -6.66 KCAL/MOL
REMARK 923 INTER-LIGAND FREE ENERGY PREDICTED BY IDOCK:   -4.56 KCAL/MOL
REMARK 924 INTRA-LIGAND FREE ENERGY PREDICTED BY IDOCK:   -2.10 KCAL/MOL
REMARK 927      BINDING AFFINITY PREDICTED BY RF-SCORE:    0.00 PKD
ROOT
HETATM    1  C   UNL     1      -9.855   9.198  71.005  1.00  0.00    -0.366 C  
HETATM    2  C   UNL     1     -11.346   9.482  71.015  1.00  0.00    -0.423 C  
ENDROOT
BRANCH   2   3
HETATM    3  C   UNL     1     -11.672  10.736  70.213  1.00  0.00    -0.442 C  
BRANCH   3   4
HETATM    4  C   UNL     1     -10.653  10.957  69.096  1.00  0.00    -0.253 C  
BRANCH   4   5
HETATM    5  C   UNL     1     -11.255  10.529  67.765  1.00  0.00    -0.344 C  
BRANCH   5   6
HETATM    6  C   UNL     1     -10.234  10.044  66.779  1.00  0.00    -0.295 C  
HETATM    7  C   UNL     1      -9.873   8.754  66.692  1.00  0.00    -0.335 C  
BRANCH   7   8
HETATM    8  C   UNL     1     -10.419   7.669  67.570  1.00  0.00    -0.336 C  
BRANCH   8   9
HETATM    9  C   UNL     1     -10.852   6.474  66.779  1.00  0.00    -0.345 C  
HETATM   10  C   UNL     1     -10.229   5.285  66.787  1.00  0.00    -0.287 C  
BRANCH  10  11
HETATM   11  C   UNL     1      -8.950   4.994  67.513  1.00  0.00    -0.113 C  
BRANCH  11  12
HETATM   12  C   UNL     1      -9.074   5.270  68.985  1.00  0.00    -0.141 C  
HETATM   13  C   UNL     1      -8.130   5.858  69.737  1.00  0.00    -0.105 C  
BRANCH  13  14
HETATM   14  C   UNL     1      -6.816   6.298  69.168  1.00  0.00    -0.062 C  
BRANCH  14  15
HETATM   15  C   UNL     1      -6.891   7.599  68.381  1.00  0.00    -0.070 C  
BRANCH  15  16
HETATM   16  C   UNL     1      -6.571   8.769  69.312  1.00  0.00    -0.049 C  
BRANCH  16  17
HETATM   17  C   UNL     1      -7.018  10.095  68.715  1.00  0.00    -0.066 C  
HETATM   18  C   UNL     1      -6.644  11.259  69.603  1.00  0.00    -0.136 C  
HETATM   19  O   UNL     1      -6.059  11.177  70.672  1.00  0.00    -0.295 OA 
HETATM   20  O   UNL     1      -7.035  12.445  69.082  1.00  0.00    -0.097 OA 
ENDBRANCH  16  17
ENDBRANCH  15  16
ENDBRANCH  14  15
ENDBRANCH  13  14
ENDBRANCH  11  12
ENDBRANCH  10  11
ENDBRANCH   8   9
ENDBRANCH   7   8
ENDBRANCH   5   6
ENDBRANCH   4   5
ENDBRANCH   3   4
ENDBRANCH   2   3
TORSDOF 12
ENDMDL
MODEL      378
REMARK 921   NORMALIZED FREE ENERGY PREDICTED BY IDOCK:   -2.77 KCAL/MOL
REMARK 922        TOTAL FREE ENERGY PREDICTED BY IDOCK:   -6.66 KCAL/MOL
REMARK 923 INTER-LIGAND FREE ENERGY PREDICTED BY IDOCK:   -5.55 KCAL/MOL
REMARK 924 INTRA-LIGAND FREE ENERGY PREDICTED BY IDOCK:   -1.11 KCAL/MOL
REMARK 927      BINDING AFFINITY PREDICTED BY RF-SCORE:    0.00 PKD
ROOT
HETATM    1  C   UNL     1      -5.949   9.409  70.600  1.00  0.00    -0.061 C  
HETATM    2  C   UNL     1      -6.211   9.502  69.107  1.00  0.00    -0.041 C  
ENDROOT
BRANCH   2   3
HETATM    3  C   UNL     1      -6.544   8.135  68.521  1.00  0.00    -0.058 C  
BRANCH   3   4
HETATM    4  C   UNL     1      -6.911   8.244  67.042  1.00  0.00    -0.070 C  
BRANCH   4   5
HETATM    5  C   UNL     1      -7.816   9.449  66.828  1.00  0.00    -0.105 C  
BRANCH   5   6
HETATM    6  C   UNL     1      -9.265   9.088  66.690  1.00  0.00    -0.211 C  
HETATM    7  C   UNL     1     -10.116   9.805  65.939  1.00  0.00    -0.314 C  
BRANCH   7   8
HETATM    8  C   UNL     1      -9.733  11.043  65.186  1.00  0.00    -0.302 C  
BRANCH   8   9
HETATM    9  C   UNL     1     -10.369  11.093  63.831  1.00  0.00    -0.441 C  
HETATM   10  C   UNL     1     -11.470  11.796  63.529  1.00  0.00    -0.489 C  
BRANCH  10  11
HETATM   11  C   UNL     1     -12.292  12.566  64.518  1.00  0.00    -0.545 C  
BRANCH  11  12
HETATM   12  C   UNL     1     -12.283  14.039  64.218  1.00  0.00    -0.453 C  
HETATM   13  C   UNL     1     -11.523  14.945  64.853  1.00  0.00    -0.407 C  
BRANCH  13  14
HETATM   14  C   UNL     1     -10.592  14.569  65.964  1.00  0.00    -0.311 C  
BRANCH  14  15
HETATM   15  C   UNL     1     -10.272  15.716  66.913  1.00  0.00    -0.281 C  
BRANCH  15  16
HETATM   16  C   UNL     1      -9.170  16.581  66.302  1.00  0.00    -0.345 C  
BRANCH  16  17
HETATM   17  C   UNL     1      -8.345  17.275  67.376  1.00  0.00    -0.211 C  
HETATM   18  C   UNL     1      -7.345  18.235  66.777  1.00  0.00    -0.212 C  
HETATM   19  O   UNL     1      -7.191  18.447  65.583  1.00  0.00    -0.493 OA 
HETATM   20  O   UNL     1      -6.606  18.860  67.722  1.00  0.00    -0.206 OA 
ENDBRANCH  16  17
ENDBRANCH  15  16
ENDBRANCH  14  15
ENDBRANCH  13  14
ENDBRANCH  11  12
ENDBRANCH  10  11
ENDBRANCH   8   9
ENDBRANCH   7   8
ENDBRANCH   5   6
ENDBRANCH   4   5
ENDBRANCH   3   4
ENDBRANCH   2   3
TORSDOF 12
ENDMDL
MODEL      379
REMARK 921   NORMALIZED FREE ENERGY PREDICTED BY IDOCK:   -2.76 KCAL/MOL
REMARK 922        TOTAL FREE ENERGY PREDICTED BY IDOCK:   -6.66 KCAL/MOL
REMARK 923 INTER-LIGAND FREE ENERGY PREDICTED BY IDOCK:   -5.63 KCAL/MOL
REMARK 924 INTRA-LIGAND FREE ENERGY PREDICTED BY IDOCK:   -1.03 KCAL/MOL
REMARK 927      BINDING AFFINITY PREDICTED BY RF-SCORE:    0.00 PKD
ROOT
HETATM    1  C   UNL     1      -9.287   9.711  68.642  1.00  0.00    -0.143 C  
HETATM    2  C   UNL     1     -10.020  11.008  68.936  1.00  0.00    -0.201 C  
ENDROOT
BRANCH   2   3
HETATM    3  C   UNL     1     -11.363  11.056  68.217  1.00  0.00    -0.366 C  
BRANCH   3   4
HETATM    4  C   UNL     1     -11.885  12.488  68.119  1.00  0.00    -0.371 C  
BRANCH   4   5
HETATM    5  C   UNL     1     -10.938  13.318  67.263  1.00  0.00    -0.284 C  
BRANCH   5   6
HETATM    6  C   UNL     1     -11.351  14.755  67.141  1.00  0.00    -0.363 C  
HETATM    7  C   UNL     1     -10.486  15.726  66.806  1.00  0.00    -0.305 C  
BRANCH   7   8
HETATM    8  C   UNL     1      -9.028  15.497  66.543  1.00  0.00    -0.348 C  
BRANCH   8   9
HETATM    9  C   UNL     1      -8.294  15.085  67.781  1.00  0.00    -0.158 C  
HETATM   10  C   UNL     1      -7.053  15.482  68.102  1.00  0.00    -0.126 C  
BRANCH  10  11
HETATM   11  C   UNL     1      -6.171  16.322  67.229  1.00  0.00    -0.205 C  
BRANCH  11  12
HETATM   12  C   UNL     1      -5.518  17.431  68.006  1.00  0.00    -0.133 C  
HETATM   13  C   UNL     1      -5.180  18.626  67.497  1.00  0.00    -0.152 C  
BRANCH  13  14
HETATM   14  C   UNL     1      -5.414  18.978  66.060  1.00  0.00    -0.178 C  
BRANCH  14  15
HETATM   15  C   UNL     1      -6.883  18.981  65.659  1.00  0.00    -0.305 C  
BRANCH  15  16
HETATM   16  C   UNL     1      -7.614  20.078  66.433  1.00  0.00    -0.320 C  
BRANCH  16  17
HETATM   17  C   UNL     1      -8.689  19.499  67.342  1.00  0.00    -0.356 C  
HETATM   18  C   UNL     1     -10.060  19.603  66.718  1.00  0.00    -0.424 C  
HETATM   19  O   UNL     1     -10.307  20.090  65.624  1.00  0.00    -0.449 OA 
HETATM   20  O   UNL     1     -11.025  19.090  67.516  1.00  0.00    -0.443 OA 
ENDBRANCH  16  17
ENDBRANCH  15  16
ENDBRANCH  14  15
ENDBRANCH  13  14
ENDBRANCH  11  12
ENDBRANCH  10  11
ENDBRANCH   8   9
ENDBRANCH   7   8
ENDBRANCH   5   6
ENDBRANCH   4   5
ENDBRANCH   3   4
ENDBRANCH   2   3
TORSDOF 12
ENDMDL
MODEL      380
REMARK 921   NORMALIZED FREE ENERGY PREDICTED BY IDOCK:   -2.74 KCAL/MOL
REMARK 922        TOTAL FREE ENERGY PREDICTED BY IDOCK:   -6.62 KCAL/MOL
REMARK 923 INTER-LIGAND FREE ENERGY PREDICTED BY IDOCK:   -5.05 KCAL/MOL
REMARK 924 INTRA-LIGAND FREE ENERGY PREDICTED BY IDOCK:   -1.56 KCAL/MOL
REMARK 927      BINDING AFFINITY PREDICTED BY RF-SCORE:    0.00 PKD
ROOT
HETATM    1  C   UNL     1     -10.103   9.972  68.429  1.00  0.00    -0.186 C  
HETATM    2  C   UNL     1      -9.761   9.945  69.908  1.00  0.00    -0.274 C  
ENDROOT
BRANCH   2   3
HETATM    3  C   UNL     1      -8.299   9.573  70.128  1.00  0.00    -0.212 C  
BRANCH   3   4
HETATM    4  C   UNL     1      -7.408  10.170  69.040  1.00  0.00    -0.087 C  
BRANCH   4   5
HETATM    5  C   UNL     1      -6.503  11.232  69.648  1.00  0.00    -0.132 C  
BRANCH   5   6
HETATM    6  C   UNL     1      -5.843  12.108  68.625  1.00  0.00    -0.053 C  
HETATM    7  C   UNL     1      -6.477  13.139  68.044  1.00  0.00    -0.126 C  
BRANCH   7   8
HETATM    8  C   UNL     1      -7.902  13.514  68.325  1.00  0.00    -0.145 C  
BRANCH   8   9
HETATM    9  C   UNL     1      -8.002  14.614  69.336  1.00  0.00    -0.003 C  
HETATM   10  C   UNL     1      -8.983  15.527  69.378  1.00  0.00    -0.275 C  
BRANCH  10  11
HETATM   11  C   UNL     1     -10.081  15.651  68.364  1.00  0.00    -0.214 C  
BRANCH  11  12
HETATM   12  C   UNL     1      -9.923  16.890  67.528  1.00  0.00    -0.268 C  
HETATM   13  C   UNL     1     -10.228  16.976  66.223  1.00  0.00    -0.336 C  
BRANCH  13  14
HETATM   14  C   UNL     1     -10.757  15.809  65.447  1.00  0.00    -0.420 C  
BRANCH  14  15
HETATM   15  C   UNL     1      -9.714  14.737  65.161  1.00  0.00    -0.013 C  
BRANCH  15  16
HETATM   16  C   UNL     1     -10.334  13.359  65.394  1.00  0.00    -0.321 C  
BRANCH  16  17
HETATM   17  C   UNL     1     -10.840  12.748  64.095  1.00  0.00    -0.437 C  
HETATM   18  C   UNL     1     -12.347  12.667  64.068  1.00  0.00    -0.443 C  
HETATM   19  O   UNL     1     -13.095  13.035  64.962  1.00  0.00    -0.761 OA 
HETATM   20  O   UNL     1     -12.809  12.126  62.917  1.00  0.00    -0.345 OA 
ENDBRANCH  16  17
ENDBRANCH  15  16
ENDBRANCH  14  15
ENDBRANCH  13  14
ENDBRANCH  11  12
ENDBRANCH  10  11
ENDBRANCH   8   9
ENDBRANCH   7   8
ENDBRANCH   5   6
ENDBRANCH   4   5
ENDBRANCH   3   4
ENDBRANCH   2   3
TORSDOF 12
ENDMDL
MODEL      381
REMARK 921   NORMALIZED FREE ENERGY PREDICTED BY IDOCK:   -2.74 KCAL/MOL
REMARK 922        TOTAL FREE ENERGY PREDICTED BY IDOCK:   -6.61 KCAL/MOL
REMARK 923 INTER-LIGAND FREE ENERGY PREDICTED BY IDOCK:   -4.54 KCAL/MOL
REMARK 924 INTRA-LIGAND FREE ENERGY PREDICTED BY IDOCK:   -2.07 KCAL/MOL
REMARK 927      BINDING AFFINITY PREDICTED BY RF-SCORE:    0.00 PKD
ROOT
HETATM    1  C   UNL     1     -10.423   8.704  68.023  1.00  0.00    -0.254 C  
HETATM    2  C   UNL     1      -8.981   8.565  68.477  1.00  0.00    -0.139 C  
ENDROOT
BRANCH   2   3
HETATM    3  C   UNL     1      -8.050   8.336  67.292  1.00  0.00    -0.109 C  
BRANCH   3   4
HETATM    4  C   UNL     1      -8.494   7.130  66.467  1.00  0.00    -0.125 C  
BRANCH   4   5
HETATM    5  C   UNL     1      -8.287   5.856  67.274  1.00  0.00    -0.105 C  
BRANCH   5   6
HETATM    6  C   UNL     1      -9.150   4.716  66.821  1.00  0.00    -0.121 C  
HETATM    7  C   UNL     1      -9.606   3.779  67.666  1.00  0.00    -0.199 C  
BRANCH   7   8
HETATM    8  C   UNL     1      -9.293   3.746  69.132  1.00  0.00    -0.243 C  
BRANCH   8   9
HETATM    9  C   UNL     1      -9.228   2.346  69.659  1.00  0.00    -0.192 C  
HETATM   10  C   UNL     1      -9.289   2.015  70.958  1.00  0.00    -0.200 C  
BRANCH  10  11
HETATM   11  C   UNL     1      -9.336   2.996  72.090  1.00  0.00    -0.182 C  
BRANCH  11  12
HETATM   12  C   UNL     1     -10.502   2.734  73.002  1.00  0.00    -0.251 C  
HETATM   13  C   UNL     1     -11.259   3.686  73.569  1.00  0.00    -0.285 C  
BRANCH  13  14
HETATM   14  C   UNL     1     -11.001   5.146  73.355  1.00  0.00    -0.381 C  
BRANCH  14  15
HETATM   15  C   UNL     1     -11.842   5.763  72.245  1.00  0.00    -0.215 C  
BRANCH  15  16
HETATM   16  C   UNL     1     -10.917   6.428  71.225  1.00  0.00    -0.321 C  
BRANCH  16  17
HETATM   17  C   UNL     1      -9.619   6.895  71.870  1.00  0.00    -0.159 C  
HETATM   18  C   UNL     1      -9.647   8.374  72.168  1.00  0.00    -0.297 C  
HETATM   19  O   UNL     1     -10.578   9.130  71.931  1.00  0.00    -0.348 OA 
HETATM   20  O   UNL     1      -8.498   8.802  72.743  1.00  0.00    -0.414 OA 
ENDBRANCH  16  17
ENDBRANCH  15  16
ENDBRANCH  14  15
ENDBRANCH  13  14
ENDBRANCH  11  12
ENDBRANCH  10  11
ENDBRANCH   8   9
ENDBRANCH   7   8
ENDBRANCH   5   6
ENDBRANCH   4   5
ENDBRANCH   3   4
ENDBRANCH   2   3
TORSDOF 12
ENDMDL
MODEL      382
REMARK 921   NORMALIZED FREE ENERGY PREDICTED BY IDOCK:   -2.73 KCAL/MOL
REMARK 922        TOTAL FREE ENERGY PREDICTED BY IDOCK:   -6.60 KCAL/MOL
REMARK 923 INTER-LIGAND FREE ENERGY PREDICTED BY IDOCK:   -5.56 KCAL/MOL
REMARK 924 INTRA-LIGAND FREE ENERGY PREDICTED BY IDOCK:   -1.04 KCAL/MOL
REMARK 927      BINDING AFFINITY PREDICTED BY RF-SCORE:    0.00 PKD
ROOT
HETATM    1  C   UNL     1     -11.460  15.562  68.339  1.00  0.00    -0.370 C  
HETATM    2  C   UNL     1     -11.950  14.130  68.210  1.00  0.00    -0.367 C  
ENDROOT
BRANCH   2   3
HETATM    3  C   UNL     1     -12.286  13.793  66.762  1.00  0.00    -0.440 C  
BRANCH   3   4
HETATM    4  C   UNL     1     -11.639  12.476  66.338  1.00  0.00    -0.449 C  
BRANCH   4   5
HETATM    5  C   UNL     1     -10.624  12.738  65.235  1.00  0.00    -0.312 C  
BRANCH   5   6
HETATM    6  C   UNL     1     -10.677  11.731  64.124  1.00  0.00    -0.410 C  
HETATM    7  C   UNL     1      -9.942  10.608  64.137  1.00  0.00    -0.406 C  
BRANCH   7   8
HETATM    8  C   UNL     1      -8.980  10.245  65.229  1.00  0.00    -0.214 C  
BRANCH   8   9
HETATM    9  C   UNL     1      -7.895   9.336  64.740  1.00  0.00    -0.118 C  
HETATM   10  C   UNL     1      -7.819   8.024  65.008  1.00  0.00    -0.123 C  
BRANCH  10  11
HETATM   11  C   UNL     1      -8.751   7.281  65.916  1.00  0.00    -0.150 C  
BRANCH  11  12
HETATM   12  C   UNL     1      -8.080   6.091  66.544  1.00  0.00    -0.109 C  
HETATM   13  C   UNL     1      -8.311   5.652  67.792  1.00  0.00    -0.100 C  
BRANCH  13  14
HETATM   14  C   UNL     1      -9.277   6.332  68.712  1.00  0.00    -0.125 C  
BRANCH  14  15
HETATM   15  C   UNL     1     -10.491   5.483  69.066  1.00  0.00    -0.296 C  
BRANCH  15  16
HETATM   16  C   UNL     1     -11.469   6.323  69.888  1.00  0.00    -0.459 C  
BRANCH  16  17
HETATM   17  C   UNL     1     -11.006   7.769  69.998  1.00  0.00    -0.218 C  
HETATM   18  C   UNL     1     -11.081   8.270  71.420  1.00  0.00    -0.251 C  
HETATM   19  O   UNL     1     -11.465   7.622  72.383  1.00  0.00    -0.299 OA 
HETATM   20  O   UNL     1     -10.671   9.555  71.532  1.00  0.00    -0.340 OA 
ENDBRANCH  16  17
ENDBRANCH  15  16
ENDBRANCH  14  15
ENDBRANCH  13  14
ENDBRANCH  11  12
ENDBRANCH  10  11
ENDBRANCH   8   9
ENDBRANCH   7   8
ENDBRANCH   5   6
ENDBRANCH   4   5
ENDBRANCH   3   4
ENDBRANCH   2   3
TORSDOF 12
ENDMDL
MODEL      383
REMARK 921   NORMALIZED FREE ENERGY PREDICTED BY IDOCK:   -2.72 KCAL/MOL
REMARK 922        TOTAL FREE ENERGY PREDICTED BY IDOCK:   -6.58 KCAL/MOL
REMARK 923 INTER-LIGAND FREE ENERGY PREDICTED BY IDOCK:   -6.16 KCAL/MOL
REMARK 924 INTRA-LIGAND FREE ENERGY PREDICTED BY IDOCK:   -0.41 KCAL/MOL
REMARK 927      BINDING AFFINITY PREDICTED BY RF-SCORE:    0.00 PKD
ROOT
HETATM    1  C   UNL     1     -11.083  12.029  63.561  1.00  0.00    -0.519 C  
HETATM    2  C   UNL     1     -10.020  11.042  64.010  1.00  0.00    -0.390 C  
ENDROOT
BRANCH   2   3
HETATM    3  C   UNL     1      -9.461  10.261  62.826  1.00  0.00    -0.323 C  
BRANCH   3   4
HETATM    4  C   UNL     1      -8.589   9.097  63.295  1.00  0.00    -0.182 C  
BRANCH   4   5
HETATM    5  C   UNL     1      -8.550   9.071  64.817  1.00  0.00    -0.201 C  
BRANCH   5   6
HETATM    6  C   UNL     1      -8.063   7.768  65.378  1.00  0.00    -0.131 C  
HETATM    7  C   UNL     1      -8.845   6.966  66.117  1.00  0.00    -0.163 C  
BRANCH   7   8
HETATM    8  C   UNL     1     -10.264   7.283  66.485  1.00  0.00    -0.139 C  
BRANCH   8   9
HETATM    9  C   UNL     1     -10.429   8.713  66.895  1.00  0.00    -0.329 C  
HETATM   10  C   UNL     1     -10.402   9.153  68.162  1.00  0.00    -0.263 C  
BRANCH  10  11
HETATM   11  C   UNL     1     -10.298   8.273  69.371  1.00  0.00    -0.223 C  
BRANCH  11  12
HETATM   12  C   UNL     1      -9.811   9.037  70.571  1.00  0.00    -0.263 C  
HETATM   13  C   UNL     1     -10.591   9.457  71.579  1.00  0.00    -0.331 C  
BRANCH  13  14
HETATM   14  C   UNL     1     -12.068   9.211  71.603  1.00  0.00    -0.432 C  
BRANCH  14  15
HETATM   15  C   UNL     1     -12.895  10.382  71.088  1.00  0.00    -0.511 C  
BRANCH  15  16
HETATM   16  C   UNL     1     -11.955  11.463  70.553  1.00  0.00    -0.451 C  
BRANCH  16  17
HETATM   17  C   UNL     1     -12.017  11.554  69.035  1.00  0.00    -0.377 C  
HETATM   18  C   UNL     1     -11.668  12.939  68.545  1.00  0.00    -0.339 C  
HETATM   19  O   UNL     1     -11.372  13.889  69.255  1.00  0.00    -0.253 OA 
HETATM   20  O   UNL     1     -11.719  13.032  67.196  1.00  0.00    -0.346 OA 
ENDBRANCH  16  17
ENDBRANCH  15  16
ENDBRANCH  14  15
ENDBRANCH  13  14
ENDBRANCH  11  12
ENDBRANCH  10  11
ENDBRANCH   8   9
ENDBRANCH   7   8
ENDBRANCH   5   6
ENDBRANCH   4   5
ENDBRANCH   3   4
ENDBRANCH   2   3
TORSDOF 12
ENDMDL
MODEL      384
REMARK 921   NORMALIZED FREE ENERGY PREDICTED BY IDOCK:   -2.69 KCAL/MOL
REMARK 922        TOTAL FREE ENERGY PREDICTED BY IDOCK:   -6.54 KCAL/MOL
REMARK 923 INTER-LIGAND FREE ENERGY PREDICTED BY IDOCK:   -4.65 KCAL/MOL
REMARK 924 INTRA-LIGAND FREE ENERGY PREDICTED BY IDOCK:   -1.89 KCAL/MOL
REMARK 927      BINDING AFFINITY PREDICTED BY RF-SCORE:    0.00 PKD
ROOT
HETATM    1  C   UNL     1      -9.713  11.896  65.674  1.00  0.00    -0.248 C  
HETATM    2  C   UNL     1     -11.038  12.066  66.395  1.00  0.00    -0.365 C  
ENDROOT
BRANCH   2   3
HETATM    3  C   UNL     1     -11.373  10.834  67.229  1.00  0.00    -0.173 C  
BRANCH   3   4
HETATM    4  C   UNL     1     -11.985  11.227  68.572  1.00  0.00    -0.288 C  
BRANCH   4   5
HETATM    5  C   UNL     1     -10.877  11.433  69.596  1.00  0.00    -0.107 C  
BRANCH   5   6
HETATM    6  C   UNL     1     -10.420  10.160  70.245  1.00  0.00    -0.284 C  
HETATM    7  C   UNL     1      -9.224   9.610  69.984  1.00  0.00    -0.275 C  
BRANCH   7   8
HETATM    8  C   UNL     1      -8.231  10.177  69.015  1.00  0.00    -0.132 C  
BRANCH   8   9
HETATM    9  C   UNL     1      -7.170  10.978  69.704  1.00  0.00    -0.060 C  
HETATM   10  C   UNL     1      -6.757  12.193  69.315  1.00  0.00    -0.084 C  
BRANCH  10  11
HETATM   11  C   UNL     1      -7.220  12.900  68.077  1.00  0.00    -0.115 C  
BRANCH  11  12
HETATM   12  C   UNL     1      -7.306  14.386  68.287  1.00  0.00    -0.122 C  
HETATM   13  C   UNL     1      -8.447  15.069  68.468  1.00  0.00    -0.163 C  
BRANCH  13  14
HETATM   14  C   UNL     1      -9.788  14.401  68.465  1.00  0.00    -0.233 C  
BRANCH  14  15
HETATM   15  C   UNL     1     -10.960  15.373  68.479  1.00  0.00    -0.278 C  
BRANCH  15  16
HETATM   16  C   UNL     1     -10.728  16.454  67.423  1.00  0.00    -0.278 C  
BRANCH  16  17
HETATM   17  C   UNL     1     -10.173  17.729  68.041  1.00  0.00    -0.377 C  
HETATM   18  C   UNL     1      -9.265  18.462  67.083  1.00  0.00    -0.264 C  
HETATM   19  O   UNL     1      -8.989  18.101  65.948  1.00  0.00    -0.503 OA 
HETATM   20  O   UNL     1      -8.766  19.599  67.621  1.00  0.00    -0.305 OA 
ENDBRANCH  16  17
ENDBRANCH  15  16
ENDBRANCH  14  15
ENDBRANCH  13  14
ENDBRANCH  11  12
ENDBRANCH  10  11
ENDBRANCH   8   9
ENDBRANCH   7   8
ENDBRANCH   5   6
ENDBRANCH   4   5
ENDBRANCH   3   4
ENDBRANCH   2   3
TORSDOF 12
ENDMDL
MODEL      385
REMARK 921   NORMALIZED FREE ENERGY PREDICTED BY IDOCK:   -2.69 KCAL/MOL
REMARK 922        TOTAL FREE ENERGY PREDICTED BY IDOCK:   -6.54 KCAL/MOL
REMARK 923 INTER-LIGAND FREE ENERGY PREDICTED BY IDOCK:   -4.97 KCAL/MOL
REMARK 924 INTRA-LIGAND FREE ENERGY PREDICTED BY IDOCK:   -1.57 KCAL/MOL
REMARK 927      BINDING AFFINITY PREDICTED BY RF-SCORE:    0.00 PKD
ROOT
HETATM    1  C   UNL     1     -12.751  10.383  70.065  1.00  0.00    -0.071 C  
HETATM    2  C   UNL     1     -12.274  10.531  71.499  1.00  0.00    -0.385 C  
ENDROOT
BRANCH   2   3
HETATM    3  C   UNL     1     -11.720   9.215  72.032  1.00  0.00    -0.384 C  
BRANCH   3   4
HETATM    4  C   UNL     1     -12.232   8.029  71.215  1.00  0.00    -0.308 C  
BRANCH   4   5
HETATM    5  C   UNL     1     -11.053   7.190  70.741  1.00  0.00    -0.296 C  
BRANCH   5   6
HETATM    6  C   UNL     1     -11.370   6.340  69.547  1.00  0.00    -0.475 C  
HETATM    7  C   UNL     1     -11.057   6.712  68.296  1.00  0.00    -0.283 C  
BRANCH   7   8
HETATM    8  C   UNL     1     -10.388   8.008  67.947  1.00  0.00    -0.282 C  
BRANCH   8   9
HETATM    9  C   UNL     1     -10.011   8.072  66.500  1.00  0.00    -0.283 C  
HETATM   10  C   UNL     1      -8.920   8.688  66.021  1.00  0.00    -0.227 C  
BRANCH  10  11
HETATM   11  C   UNL     1      -7.959   9.490  66.845  1.00  0.00    -0.109 C  
BRANCH  11  12
HETATM   12  C   UNL     1      -7.574  10.770  66.156  1.00  0.00    -0.139 C  
HETATM   13  C   UNL     1      -7.372  11.943  66.777  1.00  0.00    -0.011 C  
BRANCH  13  14
HETATM   14  C   UNL     1      -7.528  12.100  68.259  1.00  0.00    -0.107 C  
BRANCH  14  15
HETATM   15  C   UNL     1      -8.749  12.914  68.665  1.00  0.00     0.060 C  
BRANCH  15  16
HETATM   16  C   UNL     1      -9.289  13.655  67.442  1.00  0.00    -0.227 C  
BRANCH  16  17
HETATM   17  C   UNL     1     -10.798  13.502  67.318  1.00  0.00    -0.285 C  
HETATM   18  C   UNL     1     -11.185  12.828  66.023  1.00  0.00    -0.299 C  
HETATM   19  O   UNL     1     -10.407  12.444  65.162  1.00  0.00    -0.276 OA 
HETATM   20  O   UNL     1     -12.525  12.685  65.902  1.00  0.00    -0.584 OA 
ENDBRANCH  16  17
ENDBRANCH  15  16
ENDBRANCH  14  15
ENDBRANCH  13  14
ENDBRANCH  11  12
ENDBRANCH  10  11
ENDBRANCH   8   9
ENDBRANCH   7   8
ENDBRANCH   5   6
ENDBRANCH   4   5
ENDBRANCH   3   4
ENDBRANCH   2   3
TORSDOF 12
ENDMDL
MODEL      386
REMARK 921   NORMALIZED FREE ENERGY PREDICTED BY IDOCK:   -2.69 KCAL/MOL
REMARK 922        TOTAL FREE ENERGY PREDICTED BY IDOCK:   -6.53 KCAL/MOL
REMARK 923 INTER-LIGAND FREE ENERGY PREDICTED BY IDOCK:   -5.70 KCAL/MOL
REMARK 924 INTRA-LIGAND FREE ENERGY PREDICTED BY IDOCK:   -0.83 KCAL/MOL
REMARK 927      BINDING AFFINITY PREDICTED BY RF-SCORE:    0.00 PKD
ROOT
HETATM    1  C   UNL     1     -12.049   9.217  71.557  1.00  0.00    -0.435 C  
HETATM    2  C   UNL     1     -11.601   8.087  72.466  1.00  0.00    -0.464 C  
ENDROOT
BRANCH   2   3
HETATM    3  C   UNL     1     -10.685   7.118  71.727  1.00  0.00    -0.241 C  
BRANCH   3   4
HETATM    4  C   UNL     1     -11.331   6.625  70.434  1.00  0.00    -0.421 C  
BRANCH   4   5
HETATM    5  C   UNL     1     -10.251   6.349  69.397  1.00  0.00    -0.230 C  
BRANCH   5   6
HETATM    6  C   UNL     1     -10.794   5.852  68.090  1.00  0.00    -0.323 C  
HETATM    7  C   UNL     1     -10.891   6.638  67.006  1.00  0.00    -0.467 C  
BRANCH   7   8
HETATM    8  C   UNL     1     -10.501   8.085  66.980  1.00  0.00    -0.410 C  
BRANCH   8   9
HETATM    9  C   UNL     1      -9.233   8.309  66.215  1.00  0.00    -0.258 C  
HETATM   10  C   UNL     1      -8.203   9.052  66.645  1.00  0.00    -0.118 C  
BRANCH  10  11
HETATM   11  C   UNL     1      -8.194   9.852  67.912  1.00  0.00    -0.113 C  
BRANCH  11  12
HETATM   12  C   UNL     1      -8.055  11.323  67.636  1.00  0.00    -0.119 C  
HETATM   13  C   UNL     1      -8.965  12.254  67.963  1.00  0.00    -0.190 C  
BRANCH  13  14
HETATM   14  C   UNL     1     -10.254  11.906  68.643  1.00  0.00    -0.202 C  
BRANCH  14  15
HETATM   15  C   UNL     1     -11.454  11.875  67.706  1.00  0.00    -0.389 C  
BRANCH  15  16
HETATM   16  C   UNL     1     -12.065  13.274  67.626  1.00  0.00    -0.295 C  
BRANCH  16  17
HETATM   17  C   UNL     1     -10.990  14.350  67.570  1.00  0.00    -0.299 C  
HETATM   18  C   UNL     1     -10.920  15.135  68.858  1.00  0.00    -0.254 C  
HETATM   19  O   UNL     1     -11.628  14.956  69.838  1.00  0.00    -0.257 OA 
HETATM   20  O   UNL     1      -9.966  16.094  68.821  1.00  0.00    -0.213 OA 
ENDBRANCH  16  17
ENDBRANCH  15  16
ENDBRANCH  14  15
ENDBRANCH  13  14
ENDBRANCH  11  12
ENDBRANCH  10  11
ENDBRANCH   8   9
ENDBRANCH   7   8
ENDBRANCH   5   6
ENDBRANCH   4   5
ENDBRANCH   3   4
ENDBRANCH   2   3
TORSDOF 12
ENDMDL
MODEL      387
REMARK 921   NORMALIZED FREE ENERGY PREDICTED BY IDOCK:   -2.67 KCAL/MOL
REMARK 922        TOTAL FREE ENERGY PREDICTED BY IDOCK:   -6.50 KCAL/MOL
REMARK 923 INTER-LIGAND FREE ENERGY PREDICTED BY IDOCK:   -4.20 KCAL/MOL
REMARK 924 INTRA-LIGAND FREE ENERGY PREDICTED BY IDOCK:   -2.30 KCAL/MOL
REMARK 927      BINDING AFFINITY PREDICTED BY RF-SCORE:    0.00 PKD
ROOT
HETATM    1  C   UNL     1      -9.907   9.309  70.385  1.00  0.00    -0.290 C  
HETATM    2  C   UNL     1      -9.944  10.522  69.472  1.00  0.00    -0.187 C  
ENDROOT
BRANCH   2   3
HETATM    3  C   UNL     1     -11.308  10.669  68.809  1.00  0.00    -0.339 C  
BRANCH   3   4
HETATM    4  C   UNL     1     -11.166  11.040  67.333  1.00  0.00    -0.355 C  
BRANCH   4   5
HETATM    5  C   UNL     1      -9.845  10.506  66.798  1.00  0.00    -0.237 C  
BRANCH   5   6
HETATM    6  C   UNL     1      -9.877  10.202  65.329  1.00  0.00    -0.388 C  
HETATM    7  C   UNL     1      -8.762  10.133  64.585  1.00  0.00    -0.205 C  
BRANCH   7   8
HETATM    8  C   UNL     1      -7.381  10.372  65.117  1.00  0.00    -0.088 C  
BRANCH   8   9
HETATM    9  C   UNL     1      -6.874   9.202  65.902  1.00  0.00    -0.087 C  
HETATM   10  C   UNL     1      -6.121   9.293  67.008  1.00  0.00    -0.060 C  
BRANCH  10  11
HETATM   11  C   UNL     1      -5.589  10.573  67.578  1.00  0.00    -0.044 C  
BRANCH  11  12
HETATM   12  C   UNL     1      -6.449  11.078  68.703  1.00  0.00    -0.052 C  
HETATM   13  C   UNL     1      -7.135  12.232  68.684  1.00  0.00    -0.103 C  
BRANCH  13  14
HETATM   14  C   UNL     1      -7.098  13.163  67.511  1.00  0.00    -0.156 C  
BRANCH  14  15
HETATM   15  C   UNL     1      -8.419  13.875  67.250  1.00  0.00    -0.212 C  
BRANCH  15  16
HETATM   16  C   UNL     1      -8.861  14.597  68.524  1.00  0.00    -0.182 C  
BRANCH  16  17
HETATM   17  C   UNL     1      -9.135  16.071  68.263  1.00  0.00    -0.191 C  
HETATM   18  C   UNL     1     -10.616  16.359  68.198  1.00  0.00    -0.318 C  
HETATM   19  O   UNL     1     -11.506  15.532  68.332  1.00  0.00    -0.337 OA 
HETATM   20  O   UNL     1     -10.873  17.667  67.968  1.00  0.00    -0.369 OA 
ENDBRANCH  16  17
ENDBRANCH  15  16
ENDBRANCH  14  15
ENDBRANCH  13  14
ENDBRANCH  11  12
ENDBRANCH  10  11
ENDBRANCH   8   9
ENDBRANCH   7   8
ENDBRANCH   5   6
ENDBRANCH   4   5
ENDBRANCH   3   4
ENDBRANCH   2   3
TORSDOF 12
ENDMDL
MODEL      388
REMARK 921   NORMALIZED FREE ENERGY PREDICTED BY IDOCK:   -2.67 KCAL/MOL
REMARK 922        TOTAL FREE ENERGY PREDICTED BY IDOCK:   -6.50 KCAL/MOL
REMARK 923 INTER-LIGAND FREE ENERGY PREDICTED BY IDOCK:   -4.80 KCAL/MOL
REMARK 924 INTRA-LIGAND FREE ENERGY PREDICTED BY IDOCK:   -1.70 KCAL/MOL
REMARK 927      BINDING AFFINITY PREDICTED BY RF-SCORE:    0.00 PKD
ROOT
HETATM    1  C   UNL     1     -11.761   8.852  70.830  1.00  0.00    -0.312 C  
HETATM    2  C   UNL     1     -12.020  10.347  70.776  1.00  0.00    -0.462 C  
ENDROOT
BRANCH   2   3
HETATM    3  C   UNL     1     -11.675  10.915  69.405  1.00  0.00    -0.397 C  
BRANCH   3   4
HETATM    4  C   UNL     1     -11.718  12.442  69.414  1.00  0.00    -0.384 C  
BRANCH   4   5
HETATM    5  C   UNL     1     -11.186  12.975  68.090  1.00  0.00    -0.305 C  
BRANCH   5   6
HETATM    6  C   UNL     1     -12.247  13.592  67.228  1.00  0.00    -0.317 C  
HETATM    7  C   UNL     1     -12.150  13.637  65.890  1.00  0.00    -0.476 C  
BRANCH   7   8
HETATM    8  C   UNL     1     -10.982  13.107  65.114  1.00  0.00    -0.317 C  
BRANCH   8   9
HETATM    9  C   UNL     1     -11.243  11.734  64.577  1.00  0.00    -0.368 C  
HETATM   10  C   UNL     1     -10.302  10.797  64.386  1.00  0.00    -0.405 C  
BRANCH  10  11
HETATM   11  C   UNL     1      -8.832  11.006  64.588  1.00  0.00    -0.022 C  
BRANCH  11  12
HETATM   12  C   UNL     1      -8.207   9.857  65.330  1.00  0.00    -0.145 C  
HETATM   13  C   UNL     1      -7.974   9.835  66.652  1.00  0.00    -0.112 C  
BRANCH  13  14
HETATM   14  C   UNL     1      -8.311  10.992  67.542  1.00  0.00    -0.118 C  
BRANCH  14  15
HETATM   15  C   UNL     1      -7.097  11.636  68.200  1.00  0.00    -0.078 C  
BRANCH  15  16
HETATM   16  C   UNL     1      -7.518  12.957  68.845  1.00  0.00     0.020 C  
BRANCH  16  17
HETATM   17  C   UNL     1      -6.336  13.903  68.998  1.00  0.00    -0.099 C  
HETATM   18  C   UNL     1      -6.775  15.272  69.459  1.00  0.00    -0.172 C  
HETATM   19  O   UNL     1      -7.928  15.610  69.685  1.00  0.00    -0.206 OA 
HETATM   20  O   UNL     1      -5.732  16.123  69.601  1.00  0.00    -0.127 OA 
ENDBRANCH  16  17
ENDBRANCH  15  16
ENDBRANCH  14  15
ENDBRANCH  13  14
ENDBRANCH  11  12
ENDBRANCH  10  11
ENDBRANCH   8   9
ENDBRANCH   7   8
ENDBRANCH   5   6
ENDBRANCH   4   5
ENDBRANCH   3   4
ENDBRANCH   2   3
TORSDOF 12
ENDMDL
MODEL      389
REMARK 921   NORMALIZED FREE ENERGY PREDICTED BY IDOCK:   -2.67 KCAL/MOL
REMARK 922        TOTAL FREE ENERGY PREDICTED BY IDOCK:   -6.50 KCAL/MOL
REMARK 923 INTER-LIGAND FREE ENERGY PREDICTED BY IDOCK:   -4.68 KCAL/MOL
REMARK 924 INTRA-LIGAND FREE ENERGY PREDICTED BY IDOCK:   -1.82 KCAL/MOL
REMARK 927      BINDING AFFINITY PREDICTED BY RF-SCORE:    0.00 PKD
ROOT
HETATM    1  C   UNL     1     -11.524  14.642  66.854  1.00  0.00    -0.372 C  
HETATM    2  C   UNL     1     -11.713  13.166  66.555  1.00  0.00    -0.433 C  
ENDROOT
BRANCH   2   3
HETATM    3  C   UNL     1     -11.766  12.347  67.839  1.00  0.00    -0.421 C  
BRANCH   3   4
HETATM    4  C   UNL     1     -11.452  10.877  67.570  1.00  0.00    -0.234 C  
BRANCH   4   5
HETATM    5  C   UNL     1     -11.339  10.129  68.891  1.00  0.00    -0.176 C  
BRANCH   5   6
HETATM    6  C   UNL     1     -10.025  10.338  69.583  1.00  0.00    -0.240 C  
HETATM    7  C   UNL     1      -8.982   9.511  69.410  1.00  0.00    -0.174 C  
BRANCH   7   8
HETATM    8  C   UNL     1      -9.014   8.290  68.542  1.00  0.00    -0.137 C  
BRANCH   8   9
HETATM    9  C   UNL     1      -7.683   8.016  67.912  1.00  0.00    -0.114 C  
HETATM   10  C   UNL     1      -7.151   6.795  67.749  1.00  0.00    -0.085 C  
BRANCH  10  11
HETATM   11  C   UNL     1      -7.758   5.523  68.256  1.00  0.00    -0.085 C  
BRANCH  11  12
HETATM   12  C   UNL     1      -7.209   5.146  69.604  1.00  0.00    -0.056 C  
HETATM   13  C   UNL     1      -7.912   4.547  70.577  1.00  0.00    -0.057 C  
BRANCH  13  14
HETATM   14  C   UNL     1      -9.360   4.197  70.417  1.00  0.00    -0.225 C  
BRANCH  14  15
HETATM   15  C   UNL     1     -10.255   4.765  71.511  1.00  0.00    -0.246 C  
BRANCH  15  16
HETATM   16  C   UNL     1     -10.332   6.285  71.356  1.00  0.00    -0.251 C  
BRANCH  16  17
HETATM   17  C   UNL     1     -11.766   6.753  71.160  1.00  0.00    -0.394 C  
HETATM   18  C   UNL     1     -12.025   8.064  71.863  1.00  0.00    -0.314 C  
HETATM   19  O   UNL     1     -11.206   8.692  72.518  1.00  0.00    -0.329 OA 
HETATM   20  O   UNL     1     -13.298   8.492  71.695  1.00  0.00    -0.337 OA 
ENDBRANCH  16  17
ENDBRANCH  15  16
ENDBRANCH  14  15
ENDBRANCH  13  14
ENDBRANCH  11  12
ENDBRANCH  10  11
ENDBRANCH   8   9
ENDBRANCH   7   8
ENDBRANCH   5   6
ENDBRANCH   4   5
ENDBRANCH   3   4
ENDBRANCH   2   3
TORSDOF 12
ENDMDL
MODEL      390
REMARK 921   NORMALIZED FREE ENERGY PREDICTED BY IDOCK:   -2.67 KCAL/MOL
REMARK 922        TOTAL FREE ENERGY PREDICTED BY IDOCK:   -6.49 KCAL/MOL
REMARK 923 INTER-LIGAND FREE ENERGY PREDICTED BY IDOCK:   -4.92 KCAL/MOL
REMARK 924 INTRA-LIGAND FREE ENERGY PREDICTED BY IDOCK:   -1.57 KCAL/MOL
REMARK 927      BINDING AFFINITY PREDICTED BY RF-SCORE:    0.00 PKD
ROOT
HETATM    1  C   UNL     1     -12.135  10.076  70.113  1.00  0.00    -0.164 C  
HETATM    2  C   UNL     1     -12.066   9.920  71.622  1.00  0.00    -0.457 C  
ENDROOT
BRANCH   2   3
HETATM    3  C   UNL     1     -11.544   8.542  72.008  1.00  0.00    -0.432 C  
BRANCH   3   4
HETATM    4  C   UNL     1     -11.968   7.485  70.990  1.00  0.00    -0.317 C  
BRANCH   4   5
HETATM    5  C   UNL     1     -10.736   6.762  70.462  1.00  0.00    -0.277 C  
BRANCH   5   6
HETATM    6  C   UNL     1     -10.999   5.971  69.215  1.00  0.00    -0.436 C  
HETATM    7  C   UNL     1     -10.981   6.527  67.994  1.00  0.00    -0.368 C  
BRANCH   7   8
HETATM    8  C   UNL     1     -10.727   7.982  67.737  1.00  0.00    -0.174 C  
BRANCH   8   9
HETATM    9  C   UNL     1      -9.264   8.289  67.662  1.00  0.00    -0.150 C  
HETATM   10  C   UNL     1      -8.738   9.523  67.717  1.00  0.00    -0.115 C  
BRANCH  10  11
HETATM   11  C   UNL     1      -9.535  10.791  67.765  1.00  0.00    -0.165 C  
BRANCH  11  12
HETATM   12  C   UNL     1      -8.916  11.865  66.914  1.00  0.00    -0.196 C  
HETATM   13  C   UNL     1      -9.558  12.540  65.947  1.00  0.00    -0.174 C  
BRANCH  13  14
HETATM   14  C   UNL     1     -10.990  12.272  65.600  1.00  0.00    -0.338 C  
BRANCH  14  15
HETATM   15  C   UNL     1     -11.171  11.364  64.391  1.00  0.00    -0.277 C  
BRANCH  15  16
HETATM   16  C   UNL     1     -10.105  11.699  63.348  1.00  0.00    -0.468 C  
BRANCH  16  17
HETATM   17  C   UNL     1      -9.592  10.447  62.652  1.00  0.00    -0.274 C  
HETATM   18  C   UNL     1      -8.175  10.123  63.062  1.00  0.00    -0.158 C  
HETATM   19  O   UNL     1      -7.498  10.768  63.849  1.00  0.00     0.133 OA 
HETATM   20  O   UNL     1      -7.708   9.010  62.451  1.00  0.00    -0.113 OA 
ENDBRANCH  16  17
ENDBRANCH  15  16
ENDBRANCH  14  15
ENDBRANCH  13  14
ENDBRANCH  11  12
ENDBRANCH  10  11
ENDBRANCH   8   9
ENDBRANCH   7   8
ENDBRANCH   5   6
ENDBRANCH   4   5
ENDBRANCH   3   4
ENDBRANCH   2   3
TORSDOF 12
ENDMDL
MODEL      391
REMARK 921   NORMALIZED FREE ENERGY PREDICTED BY IDOCK:   -2.64 KCAL/MOL
REMARK 922        TOTAL FREE ENERGY PREDICTED BY IDOCK:   -6.44 KCAL/MOL
REMARK 923 INTER-LIGAND FREE ENERGY PREDICTED BY IDOCK:   -5.25 KCAL/MOL
REMARK 924 INTRA-LIGAND FREE ENERGY PREDICTED BY IDOCK:   -1.19 KCAL/MOL
REMARK 927      BINDING AFFINITY PREDICTED BY RF-SCORE:    0.00 PKD
ROOT
HETATM    1  C   UNL     1     -10.305   8.925  71.929  1.00  0.00    -0.407 C  
HETATM    2  C   UNL     1     -11.627   9.349  71.314  1.00  0.00    -0.434 C  
ENDROOT
BRANCH   2   3
HETATM    3  C   UNL     1     -11.448  10.558  70.404  1.00  0.00    -0.427 C  
BRANCH   3   4
HETATM    4  C   UNL     1     -11.481  10.151  68.932  1.00  0.00    -0.125 C  
BRANCH   4   5
HETATM    5  C   UNL     1     -10.141   9.542  68.542  1.00  0.00    -0.198 C  
BRANCH   5   6
HETATM    6  C   UNL     1     -10.215   8.674  67.320  1.00  0.00    -0.337 C  
HETATM    7  C   UNL     1      -9.971   9.146  66.087  1.00  0.00    -0.338 C  
BRANCH   7   8
HETATM    8  C   UNL     1      -9.626  10.574  65.788  1.00  0.00    -0.260 C  
BRANCH   8   9
HETATM    9  C   UNL     1      -8.276  10.947  66.317  1.00  0.00    -0.165 C  
HETATM   10  C   UNL     1      -7.950  12.158  66.793  1.00  0.00    -0.023 C  
BRANCH  10  11
HETATM   11  C   UNL     1      -8.854  13.354  66.781  1.00  0.00    -0.145 C  
BRANCH  11  12
HETATM   12  C   UNL     1      -9.754  13.379  67.985  1.00  0.00    -0.222 C  
HETATM   13  C   UNL     1     -10.715  14.290  68.203  1.00  0.00    -0.249 C  
BRANCH  13  14
HETATM   14  C   UNL     1     -10.984  15.413  67.248  1.00  0.00    -0.317 C  
BRANCH  14  15
HETATM   15  C   UNL     1     -10.849  16.796  67.872  1.00  0.00    -0.311 C  
BRANCH  15  16
HETATM   16  C   UNL     1      -9.384  17.044  68.230  1.00  0.00    -0.255 C  
BRANCH  16  17
HETATM   17  C   UNL     1      -9.155  18.480  68.678  1.00  0.00    -0.325 C  
HETATM   18  C   UNL     1      -7.739  18.928  68.410  1.00  0.00    -0.319 C  
HETATM   19  O   UNL     1      -6.862  18.245  67.901  1.00  0.00    -0.206 OA 
HETATM   20  O   UNL     1      -7.523  20.205  68.803  1.00  0.00    -0.187 OA 
ENDBRANCH  16  17
ENDBRANCH  15  16
ENDBRANCH  14  15
ENDBRANCH  13  14
ENDBRANCH  11  12
ENDBRANCH  10  11
ENDBRANCH   8   9
ENDBRANCH   7   8
ENDBRANCH   5   6
ENDBRANCH   4   5
ENDBRANCH   3   4
ENDBRANCH   2   3
TORSDOF 12
ENDMDL
MODEL      392
REMARK 921   NORMALIZED FREE ENERGY PREDICTED BY IDOCK:   -2.63 KCAL/MOL
REMARK 922        TOTAL FREE ENERGY PREDICTED BY IDOCK:   -6.42 KCAL/MOL
REMARK 923 INTER-LIGAND FREE ENERGY PREDICTED BY IDOCK:   -5.36 KCAL/MOL
REMARK 924 INTRA-LIGAND FREE ENERGY PREDICTED BY IDOCK:   -1.06 KCAL/MOL
REMARK 927      BINDING AFFINITY PREDICTED BY RF-SCORE:    0.00 PKD
ROOT
HETATM    1  C   UNL     1      -8.373  10.373  64.786  1.00  0.00    -0.157 C  
HETATM    2  C   UNL     1      -9.829  10.778  64.934  1.00  0.00    -0.350 C  
ENDROOT
BRANCH   2   3
HETATM    3  C   UNL     1     -10.313  10.572  66.365  1.00  0.00    -0.283 C  
BRANCH   3   4
HETATM    4  C   UNL     1      -9.590   9.403  67.030  1.00  0.00    -0.209 C  
BRANCH   4   5
HETATM    5  C   UNL     1     -10.440   8.145  66.913  1.00  0.00    -0.379 C  
BRANCH   5   6
HETATM    6  C   UNL     1      -9.671   6.949  66.435  1.00  0.00    -0.127 C  
HETATM    7  C   UNL     1      -9.474   5.866  67.204  1.00  0.00    -0.123 C  
BRANCH   7   8
HETATM    8  C   UNL     1      -9.967   5.736  68.614  1.00  0.00    -0.201 C  
BRANCH   8   9
HETATM    9  C   UNL     1      -9.729   4.365  69.165  1.00  0.00    -0.240 C  
HETATM   10  C   UNL     1      -9.656   4.069  70.472  1.00  0.00    -0.261 C  
BRANCH  10  11
HETATM   11  C   UNL     1      -9.705   5.075  71.582  1.00  0.00    -0.226 C  
BRANCH  11  12
HETATM   12  C   UNL     1     -11.061   5.120  72.228  1.00  0.00    -0.176 C  
HETATM   13  C   UNL     1     -11.657   6.233  72.683  1.00  0.00    -0.213 C  
BRANCH  13  14
HETATM   14  C   UNL     1     -11.004   7.579  72.601  1.00  0.00    -0.385 C  
BRANCH  14  15
HETATM   15  C   UNL     1     -10.553   7.959  71.197  1.00  0.00    -0.238 C  
BRANCH  15  16
HETATM   16  C   UNL     1     -10.938   9.413  70.922  1.00  0.00    -0.391 C  
BRANCH  16  17
HETATM   17  C   UNL     1     -12.185   9.815  71.696  1.00  0.00    -0.488 C  
HETATM   18  C   UNL     1     -12.638  11.210  71.336  1.00  0.00    -0.374 C  
HETATM   19  O   UNL     1     -12.092  11.948  70.530  1.00  0.00    -0.366 OA 
HETATM   20  O   UNL     1     -13.747  11.579  72.018  1.00  0.00    -0.178 OA 
ENDBRANCH  16  17
ENDBRANCH  15  16
ENDBRANCH  14  15
ENDBRANCH  13  14
ENDBRANCH  11  12
ENDBRANCH  10  11
ENDBRANCH   8   9
ENDBRANCH   7   8
ENDBRANCH   5   6
ENDBRANCH   4   5
ENDBRANCH   3   4
ENDBRANCH   2   3
TORSDOF 12
ENDMDL
MODEL      393
REMARK 921   NORMALIZED FREE ENERGY PREDICTED BY IDOCK:   -2.61 KCAL/MOL
REMARK 922        TOTAL FREE ENERGY PREDICTED BY IDOCK:   -6.39 KCAL/MOL
REMARK 923 INTER-LIGAND FREE ENERGY PREDICTED BY IDOCK:   -4.64 KCAL/MOL
REMARK 924 INTRA-LIGAND FREE ENERGY PREDICTED BY IDOCK:   -1.76 KCAL/MOL
REMARK 927      BINDING AFFINITY PREDICTED BY RF-SCORE:    0.00 PKD
ROOT
HETATM    1  C   UNL     1     -12.512   9.839  71.136  1.00  0.00    -0.443 C  
HETATM    2  C   UNL     1     -11.706  11.087  70.825  1.00  0.00    -0.286 C  
ENDROOT
BRANCH   2   3
HETATM    3  C   UNL     1     -12.438  11.981  69.831  1.00  0.00    -0.019 C  
BRANCH   3   4
HETATM    4  C   UNL     1     -11.593  12.225  68.582  1.00  0.00    -0.372 C  
BRANCH   4   5
HETATM    5  C   UNL     1     -10.707  13.444  68.797  1.00  0.00    -0.257 C  
BRANCH   5   6
HETATM    6  C   UNL     1     -11.241  14.690  68.154  1.00  0.00    -0.304 C  
HETATM    7  C   UNL     1     -10.859  15.088  66.930  1.00  0.00    -0.315 C  
BRANCH   7   8
HETATM    8  C   UNL     1      -9.854  14.363  66.087  1.00  0.00    -0.340 C  
BRANCH   8   9
HETATM    9  C   UNL     1     -10.502  13.610  64.966  1.00  0.00    -0.406 C  
HETATM   10  C   UNL     1     -10.414  12.284  64.786  1.00  0.00    -0.328 C  
BRANCH  10  11
HETATM   11  C   UNL     1      -9.579  11.360  65.619  1.00  0.00    -0.258 C  
BRANCH  11  12
HETATM   12  C   UNL     1      -9.842   9.919  65.281  1.00  0.00    -0.373 C  
HETATM   13  C   UNL     1     -10.099   8.956  66.180  1.00  0.00    -0.209 C  
BRANCH  13  14
HETATM   14  C   UNL     1     -10.136   9.227  67.653  1.00  0.00    -0.266 C  
BRANCH  14  15
HETATM   15  C   UNL     1      -9.641   8.066  68.504  1.00  0.00    -0.159 C  
BRANCH  15  16
HETATM   16  C   UNL     1      -8.148   8.247  68.780  1.00  0.00    -0.115 C  
BRANCH  16  17
HETATM   17  C   UNL     1      -7.396   6.928  68.665  1.00  0.00    -0.094 C  
HETATM   18  C   UNL     1      -6.448   6.725  69.822  1.00  0.00    -0.044 C  
HETATM   19  O   UNL     1      -6.280   7.504  70.748  1.00  0.00    -0.035 OA 
HETATM   20  O   UNL     1      -5.774   5.555  69.731  1.00  0.00    -0.014 OA 
ENDBRANCH  16  17
ENDBRANCH  15  16
ENDBRANCH  14  15
ENDBRANCH  13  14
ENDBRANCH  11  12
ENDBRANCH  10  11
ENDBRANCH   8   9
ENDBRANCH   7   8
ENDBRANCH   5   6
ENDBRANCH   4   5
ENDBRANCH   3   4
ENDBRANCH   2   3
TORSDOF 12
ENDMDL
MODEL      394
REMARK 921   NORMALIZED FREE ENERGY PREDICTED BY IDOCK:   -2.60 KCAL/MOL
REMARK 922        TOTAL FREE ENERGY PREDICTED BY IDOCK:   -6.38 KCAL/MOL
REMARK 923 INTER-LIGAND FREE ENERGY PREDICTED BY IDOCK:   -4.54 KCAL/MOL
REMARK 924 INTRA-LIGAND FREE ENERGY PREDICTED BY IDOCK:   -1.84 KCAL/MOL
REMARK 927      BINDING AFFINITY PREDICTED BY RF-SCORE:    0.00 PKD
ROOT
HETATM    1  C   UNL     1     -10.177  16.446  68.911  1.00  0.00    -0.258 C  
HETATM    2  C   UNL     1     -10.728  17.241  67.741  1.00  0.00    -0.333 C  
ENDROOT
BRANCH   2   3
HETATM    3  C   UNL     1      -9.960  16.938  66.460  1.00  0.00    -0.309 C  
BRANCH   3   4
HETATM    4  C   UNL     1     -10.910  16.750  65.278  1.00  0.00    -0.148 C  
BRANCH   4   5
HETATM    5  C   UNL     1     -10.717  15.361  64.685  1.00  0.00    -0.214 C  
BRANCH   5   6
HETATM    6  C   UNL     1     -11.933  14.490  64.799  1.00  0.00    -0.449 C  
HETATM    7  C   UNL     1     -12.081  13.588  65.781  1.00  0.00    -0.473 C  
BRANCH   7   8
HETATM    8  C   UNL     1     -11.057  13.330  66.846  1.00  0.00    -0.310 C  
BRANCH   8   9
HETATM    9  C   UNL     1     -11.684  12.862  68.123  1.00  0.00    -0.395 C  
HETATM   10  C   UNL     1     -11.309  11.767  68.801  1.00  0.00    -0.325 C  
BRANCH  10  11
HETATM   11  C   UNL     1     -10.271  10.789  68.342  1.00  0.00    -0.192 C  
BRANCH  11  12
HETATM   12  C   UNL     1     -10.770   9.947  67.201  1.00  0.00    -0.276 C  
HETATM   13  C   UNL     1     -10.034   9.580  66.140  1.00  0.00    -0.342 C  
BRANCH  13  14
HETATM   14  C   UNL     1      -8.605   9.998  65.977  1.00  0.00    -0.148 C  
BRANCH  14  15
HETATM   15  C   UNL     1      -7.601   8.912  66.341  1.00  0.00    -0.092 C  
BRANCH  15  16
HETATM   16  C   UNL     1      -6.391   9.554  67.021  1.00  0.00    -0.066 C  
BRANCH  16  17
HETATM   17  C   UNL     1      -6.806  10.704  67.927  1.00  0.00    -0.073 C  
HETATM   18  C   UNL     1      -6.573  10.379  69.382  1.00  0.00    -0.063 C  
HETATM   19  O   UNL     1      -6.114   9.330  69.811  1.00  0.00    -0.037 OA 
HETATM   20  O   UNL     1      -6.937  11.395  70.198  1.00  0.00    -0.042 OA 
ENDBRANCH  16  17
ENDBRANCH  15  16
ENDBRANCH  14  15
ENDBRANCH  13  14
ENDBRANCH  11  12
ENDBRANCH  10  11
ENDBRANCH   8   9
ENDBRANCH   7   8
ENDBRANCH   5   6
ENDBRANCH   4   5
ENDBRANCH   3   4
ENDBRANCH   2   3
TORSDOF 12
ENDMDL
MODEL      395
REMARK 921   NORMALIZED FREE ENERGY PREDICTED BY IDOCK:   -2.59 KCAL/MOL
REMARK 922        TOTAL FREE ENERGY PREDICTED BY IDOCK:   -6.36 KCAL/MOL
REMARK 923 INTER-LIGAND FREE ENERGY PREDICTED BY IDOCK:   -4.43 KCAL/MOL
REMARK 924 INTRA-LIGAND FREE ENERGY PREDICTED BY IDOCK:   -1.93 KCAL/MOL
REMARK 927      BINDING AFFINITY PREDICTED BY RF-SCORE:    0.00 PKD
ROOT
HETATM    1  C   UNL     1     -10.673   9.588  68.141  1.00  0.00    -0.247 C  
HETATM    2  C   UNL     1     -10.361  10.220  69.486  1.00  0.00    -0.267 C  
ENDROOT
BRANCH   2   3
HETATM    3  C   UNL     1     -11.540  11.041  69.994  1.00  0.00    -0.427 C  
BRANCH   3   4
HETATM    4  C   UNL     1     -12.254  10.329  71.142  1.00  0.00    -0.500 C  
BRANCH   4   5
HETATM    5  C   UNL     1     -11.355   9.234  71.700  1.00  0.00    -0.467 C  
BRANCH   5   6
HETATM    6  C   UNL     1     -12.114   8.055  72.234  1.00  0.00    -0.392 C  
HETATM    7  C   UNL     1     -12.182   6.887  71.577  1.00  0.00    -0.415 C  
BRANCH   7   8
HETATM    8  C   UNL     1     -11.542   6.633  70.246  1.00  0.00    -0.454 C  
BRANCH   8   9
HETATM    9  C   UNL     1     -10.105   6.234  70.382  1.00  0.00    -0.226 C  
HETATM   10  C   UNL     1      -9.415   5.540  69.465  1.00  0.00    -0.185 C  
BRANCH  10  11
HETATM   11  C   UNL     1      -9.995   4.972  68.206  1.00  0.00    -0.193 C  
BRANCH  11  12
HETATM   12  C   UNL     1      -9.881   5.937  67.060  1.00  0.00    -0.173 C  
HETATM   13  C   UNL     1      -9.006   5.824  66.048  1.00  0.00    -0.157 C  
BRANCH  13  14
HETATM   14  C   UNL     1      -8.018   4.701  65.967  1.00  0.00    -0.103 C  
BRANCH  14  15
HETATM   15  C   UNL     1      -6.576   5.131  66.201  1.00  0.00    -0.052 C  
BRANCH  15  16
HETATM   16  C   UNL     1      -5.776   3.940  66.728  1.00  0.00    -0.022 C  
BRANCH  16  17
HETATM   17  C   UNL     1      -6.689   2.854  67.278  1.00  0.00    -0.041 C  
HETATM   18  C   UNL     1      -6.818   2.942  68.780  1.00  0.00    -0.041 C  
HETATM   19  O   UNL     1      -6.267   3.769  69.493  1.00  0.00    -0.026 OA 
HETATM   20  O   UNL     1      -7.629   1.982  69.281  1.00  0.00    -0.043 OA 
ENDBRANCH  16  17
ENDBRANCH  15  16
ENDBRANCH  14  15
ENDBRANCH  13  14
ENDBRANCH  11  12
ENDBRANCH  10  11
ENDBRANCH   8   9
ENDBRANCH   7   8
ENDBRANCH   5   6
ENDBRANCH   4   5
ENDBRANCH   3   4
ENDBRANCH   2   3
TORSDOF 12
ENDMDL
MODEL      396
REMARK 921   NORMALIZED FREE ENERGY PREDICTED BY IDOCK:   -2.57 KCAL/MOL
REMARK 922        TOTAL FREE ENERGY PREDICTED BY IDOCK:   -6.33 KCAL/MOL
REMARK 923 INTER-LIGAND FREE ENERGY PREDICTED BY IDOCK:   -4.04 KCAL/MOL
REMARK 924 INTRA-LIGAND FREE ENERGY PREDICTED BY IDOCK:   -2.29 KCAL/MOL
REMARK 927      BINDING AFFINITY PREDICTED BY RF-SCORE:    0.00 PKD
ROOT
HETATM    1  C   UNL     1      -9.651   9.137  65.715  1.00  0.00    -0.323 C  
HETATM    2  C   UNL     1      -8.706   8.746  66.838  1.00  0.00    -0.136 C  
ENDROOT
BRANCH   2   3
HETATM    3  C   UNL     1      -7.421   8.139  66.289  1.00  0.00    -0.082 C  
BRANCH   3   4
HETATM    4  C   UNL     1      -7.718   7.118  65.192  1.00  0.00    -0.116 C  
BRANCH   4   5
HETATM    5  C   UNL     1      -7.453   5.714  65.716  1.00  0.00    -0.078 C  
BRANCH   5   6
HETATM    6  C   UNL     1      -8.392   4.684  65.162  1.00  0.00    -0.126 C  
HETATM    7  C   UNL     1      -9.487   4.278  65.824  1.00  0.00    -0.176 C  
BRANCH   7   8
HETATM    8  C   UNL     1      -9.881   4.778  67.182  1.00  0.00    -0.222 C  
BRANCH   8   9
HETATM    9  C   UNL     1     -10.870   5.899  67.100  1.00  0.00    -0.373 C  
HETATM   10  C   UNL     1     -11.407   6.522  68.159  1.00  0.00    -0.105 C  
BRANCH  10  11
HETATM   11  C   UNL     1     -11.178   6.134  69.588  1.00  0.00    -0.488 C  
BRANCH  11  12
HETATM   12  C   UNL     1     -12.254   6.674  70.488  1.00  0.00    -0.209 C  
HETATM   13  C   UNL     1     -12.034   7.304  71.652  1.00  0.00    -0.341 C  
BRANCH  13  14
HETATM   14  C   UNL     1     -10.654   7.527  72.192  1.00  0.00    -0.262 C  
BRANCH  14  15
HETATM   15  C   UNL     1      -9.975   8.776  71.647  1.00  0.00    -0.381 C  
BRANCH  15  16
HETATM   16  C   UNL     1      -8.466   8.539  71.583  1.00  0.00    -0.235 C  
BRANCH  16  17
HETATM   17  C   UNL     1      -8.042   8.011  70.220  1.00  0.00    -0.113 C  
HETATM   18  C   UNL     1      -7.611   6.566  70.292  1.00  0.00    -0.096 C  
HETATM   19  O   UNL     1      -7.592   5.880  71.303  1.00  0.00    -0.099 OA 
HETATM   20  O   UNL     1      -7.233   6.084  69.085  1.00  0.00    -0.077 OA 
ENDBRANCH  16  17
ENDBRANCH  15  16
ENDBRANCH  14  15
ENDBRANCH  13  14
ENDBRANCH  11  12
ENDBRANCH  10  11
ENDBRANCH   8   9
ENDBRANCH   7   8
ENDBRANCH   5   6
ENDBRANCH   4   5
ENDBRANCH   3   4
ENDBRANCH   2   3
TORSDOF 12
ENDMDL
MODEL      397
REMARK 921   NORMALIZED FREE ENERGY PREDICTED BY IDOCK:   -2.55 KCAL/MOL
REMARK 922        TOTAL FREE ENERGY PREDICTED BY IDOCK:   -6.29 KCAL/MOL
REMARK 923 INTER-LIGAND FREE ENERGY PREDICTED BY IDOCK:   -5.08 KCAL/MOL
REMARK 924 INTRA-LIGAND FREE ENERGY PREDICTED BY IDOCK:   -1.21 KCAL/MOL
REMARK 927      BINDING AFFINITY PREDICTED BY RF-SCORE:    0.00 PKD
ROOT
HETATM    1  C   UNL     1     -10.192   5.292  69.356  1.00  0.00    -0.321 C  
HETATM    2  C   UNL     1      -9.311   6.522  69.496  1.00  0.00    -0.148 C  
ENDROOT
BRANCH   2   3
HETATM    3  C   UNL     1     -10.135   7.747  69.875  1.00  0.00    -0.203 C  
BRANCH   3   4
HETATM    4  C   UNL     1     -10.488   8.578  68.643  1.00  0.00    -0.200 C  
BRANCH   4   5
HETATM    5  C   UNL     1      -9.429   8.373  67.569  1.00  0.00    -0.182 C  
BRANCH   5   6
HETATM    6  C   UNL     1      -9.725   9.103  66.293  1.00  0.00    -0.344 C  
HETATM    7  C   UNL     1      -9.168  10.288  65.996  1.00  0.00    -0.200 C  
BRANCH   7   8
HETATM    8  C   UNL     1      -8.220  11.019  66.899  1.00  0.00    -0.140 C  
BRANCH   8   9
HETATM    9  C   UNL     1      -8.928  11.656  68.055  1.00  0.00    -0.176 C  
HETATM   10  C   UNL     1      -9.289  12.947  68.112  1.00  0.00    -0.214 C  
BRANCH  10  11
HETATM   11  C   UNL     1      -8.959  13.975  67.074  1.00  0.00    -0.248 C  
BRANCH  11  12
HETATM   12  C   UNL     1      -7.640  14.640  67.354  1.00  0.00    -0.218 C  
HETATM   13  C   UNL     1      -7.426  15.965  67.309  1.00  0.00    -0.244 C  
BRANCH  13  14
HETATM   14  C   UNL     1      -8.508  16.938  66.953  1.00  0.00    -0.243 C  
BRANCH  14  15
HETATM   15  C   UNL     1      -8.984  17.784  68.125  1.00  0.00    -0.271 C  
BRANCH  15  16
HETATM   16  C   UNL     1     -10.513  17.824  68.126  1.00  0.00    -0.382 C  
BRANCH  16  17
HETATM   17  C   UNL     1     -11.108  16.431  67.984  1.00  0.00    -0.292 C  
HETATM   18  C   UNL     1     -11.418  15.818  69.329  1.00  0.00    -0.365 C  
HETATM   19  O   UNL     1     -11.224  16.348  70.413  1.00  0.00    -0.378 OA 
HETATM   20  O   UNL     1     -11.948  14.578  69.215  1.00  0.00    -0.310 OA 
ENDBRANCH  16  17
ENDBRANCH  15  16
ENDBRANCH  14  15
ENDBRANCH  13  14
ENDBRANCH  11  12
ENDBRANCH  10  11
ENDBRANCH   8   9
ENDBRANCH   7   8
ENDBRANCH   5   6
ENDBRANCH   4   5
ENDBRANCH   3   4
ENDBRANCH   2   3
TORSDOF 12
ENDMDL
MODEL      398
REMARK 921   NORMALIZED FREE ENERGY PREDICTED BY IDOCK:   -2.54 KCAL/MOL
REMARK 922        TOTAL FREE ENERGY PREDICTED BY IDOCK:   -6.27 KCAL/MOL
REMARK 923 INTER-LIGAND FREE ENERGY PREDICTED BY IDOCK:   -5.40 KCAL/MOL
REMARK 924 INTRA-LIGAND FREE ENERGY PREDICTED BY IDOCK:   -0.87 KCAL/MOL
REMARK 927      BINDING AFFINITY PREDICTED BY RF-SCORE:    0.00 PKD
ROOT
HETATM    1  C   UNL     1      -7.229   3.268  67.643  1.00  0.00    -0.054 C  
HETATM    2  C   UNL     1      -8.523   3.247  66.849  1.00  0.00    -0.103 C  
ENDROOT
BRANCH   2   3
HETATM    3  C   UNL     1      -9.654   3.913  67.624  1.00  0.00    -0.205 C  
BRANCH   3   4
HETATM    4  C   UNL     1      -9.111   4.756  68.777  1.00  0.00    -0.151 C  
BRANCH   4   5
HETATM    5  C   UNL     1      -9.948   4.510  70.025  1.00  0.00    -0.280 C  
BRANCH   5   6
HETATM    6  C   UNL     1      -9.131   4.132  71.225  1.00  0.00    -0.181 C  
HETATM    7  C   UNL     1      -8.845   5.004  72.204  1.00  0.00    -0.137 C  
BRANCH   7   8
HETATM    8  C   UNL     1      -9.278   6.439  72.203  1.00  0.00    -0.140 C  
BRANCH   8   9
HETATM    9  C   UNL     1     -10.315   6.712  73.249  1.00  0.00    -0.275 C  
HETATM   10  C   UNL     1     -11.215   7.704  73.192  1.00  0.00    -0.311 C  
BRANCH  10  11
HETATM   11  C   UNL     1     -11.266   8.753  72.123  1.00  0.00    -0.408 C  
BRANCH  11  12
HETATM   12  C   UNL     1     -12.680   9.160  71.814  1.00  0.00    -0.446 C  
HETATM   13  C   UNL     1     -13.029  10.277  71.156  1.00  0.00    -0.503 C  
BRANCH  13  14
HETATM   14  C   UNL     1     -12.015  11.264  70.664  1.00  0.00    -0.435 C  
BRANCH  14  15
HETATM   15  C   UNL     1     -12.117  11.559  69.173  1.00  0.00    -0.329 C  
BRANCH  15  16
HETATM   16  C   UNL     1     -11.635  12.985  68.909  1.00  0.00    -0.355 C  
BRANCH  16  17
HETATM   17  C   UNL     1     -10.913  13.091  67.573  1.00  0.00    -0.282 C  
HETATM   18  C   UNL     1     -10.419  14.495  67.318  1.00  0.00    -0.266 C  
HETATM   19  O   UNL     1     -10.566  15.448  68.069  1.00  0.00    -0.251 OA 
HETATM   20  O   UNL     1      -9.774  14.602  66.133  1.00  0.00    -0.290 OA 
ENDBRANCH  16  17
ENDBRANCH  15  16
ENDBRANCH  14  15
ENDBRANCH  13  14
ENDBRANCH  11  12
ENDBRANCH  10  11
ENDBRANCH   8   9
ENDBRANCH   7   8
ENDBRANCH   5   6
ENDBRANCH   4   5
ENDBRANCH   3   4
ENDBRANCH   2   3
TORSDOF 12
ENDMDL
MODEL      399
REMARK 921   NORMALIZED FREE ENERGY PREDICTED BY IDOCK:   -2.54 KCAL/MOL
REMARK 922        TOTAL FREE ENERGY PREDICTED BY IDOCK:   -6.27 KCAL/MOL
REMARK 923 INTER-LIGAND FREE ENERGY PREDICTED BY IDOCK:   -5.13 KCAL/MOL
REMARK 924 INTRA-LIGAND FREE ENERGY PREDICTED BY IDOCK:   -1.14 KCAL/MOL
REMARK 927      BINDING AFFINITY PREDICTED BY RF-SCORE:    0.00 PKD
ROOT
HETATM    1  C   UNL     1     -12.060  12.917  63.526  1.00  0.00    -0.633 C  
HETATM    2  C   UNL     1     -12.054  14.231  64.288  1.00  0.00    -0.467 C  
ENDROOT
BRANCH   2   3
HETATM    3  C   UNL     1     -12.468  14.026  65.740  1.00  0.00    -0.523 C  
BRANCH   3   4
HETATM    4  C   UNL     1     -11.366  14.478  66.697  1.00  0.00    -0.359 C  
BRANCH   4   5
HETATM    5  C   UNL     1     -11.144  13.410  67.760  1.00  0.00    -0.292 C  
BRANCH   5   6
HETATM    6  C   UNL     1     -11.886  12.135  67.486  1.00  0.00    -0.307 C  
HETATM    7  C   UNL     1     -11.755  11.047  68.261  1.00  0.00    -0.301 C  
BRANCH   7   8
HETATM    8  C   UNL     1     -10.850  10.969  69.455  1.00  0.00    -0.278 C  
BRANCH   8   9
HETATM    9  C   UNL     1      -9.491  10.455  69.094  1.00  0.00    -0.220 C  
HETATM   10  C   UNL     1      -9.199   9.166  68.861  1.00  0.00    -0.139 C  
BRANCH  10  11
HETATM   11  C   UNL     1     -10.162   8.028  69.019  1.00  0.00    -0.217 C  
BRANCH  11  12
HETATM   12  C   UNL     1     -10.747   7.612  67.698  1.00  0.00    -0.246 C  
HETATM   13  C   UNL     1     -10.303   6.588  66.953  1.00  0.00    -0.311 C  
BRANCH  13  14
HETATM   14  C   UNL     1      -9.138   5.743  67.368  1.00  0.00    -0.110 C  
BRANCH  14  15
HETATM   15  C   UNL     1      -9.495   4.654  68.372  1.00  0.00    -0.201 C  
BRANCH  15  16
HETATM   16  C   UNL     1      -9.503   3.300  67.662  1.00  0.00    -0.214 C  
BRANCH  16  17
HETATM   17  C   UNL     1      -8.097   2.869  67.268  1.00  0.00    -0.078 C  
HETATM   18  C   UNL     1      -8.008   2.542  65.796  1.00  0.00    -0.082 C  
HETATM   19  O   UNL     1      -8.931   2.603  64.998  1.00  0.00    -0.122 OA 
HETATM   20  O   UNL     1      -6.762   2.158  65.433  1.00  0.00    -0.033 OA 
ENDBRANCH  16  17
ENDBRANCH  15  16
ENDBRANCH  14  15
ENDBRANCH  13  14
ENDBRANCH  11  12
ENDBRANCH  10  11
ENDBRANCH   8   9
ENDBRANCH   7   8
ENDBRANCH   5   6
ENDBRANCH   4   5
ENDBRANCH   3   4
ENDBRANCH   2   3
TORSDOF 12
ENDMDL
MODEL      400
REMARK 921   NORMALIZED FREE ENERGY PREDICTED BY IDOCK:   -2.53 KCAL/MOL
REMARK 922        TOTAL FREE ENERGY PREDICTED BY IDOCK:   -6.26 KCAL/MOL
REMARK 923 INTER-LIGAND FREE ENERGY PREDICTED BY IDOCK:   -4.45 KCAL/MOL
REMARK 924 INTRA-LIGAND FREE ENERGY PREDICTED BY IDOCK:   -1.81 KCAL/MOL
REMARK 927      BINDING AFFINITY PREDICTED BY RF-SCORE:    0.00 PKD
ROOT
HETATM    1  C   UNL     1     -11.271  15.905  68.357  1.00  0.00    -0.368 C  
HETATM    2  C   UNL     1     -11.819  14.490  68.411  1.00  0.00    -0.351 C  
ENDROOT
BRANCH   2   3
HETATM    3  C   UNL     1     -12.446  14.093  67.080  1.00  0.00    -0.092 C  
BRANCH   3   4
HETATM    4  C   UNL     1     -11.855  12.784  66.560  1.00  0.00    -0.471 C  
BRANCH   4   5
HETATM    5  C   UNL     1     -10.994  13.064  65.336  1.00  0.00    -0.297 C  
BRANCH   5   6
HETATM    6  C   UNL     1     -11.385  12.256  64.135  1.00  0.00    -0.442 C  
HETATM    7  C   UNL     1     -10.525  11.438  63.507  1.00  0.00    -0.477 C  
BRANCH   7   8
HETATM    8  C   UNL     1      -9.093  11.257  63.910  1.00  0.00    -0.002 C  
BRANCH   8   9
HETATM    9  C   UNL     1      -8.676   9.819  63.862  1.00  0.00    -0.236 C  
HETATM   10  C   UNL     1      -8.759   8.966  64.894  1.00  0.00    -0.184 C  
BRANCH  10  11
HETATM   11  C   UNL     1      -9.190   9.337  66.280  1.00  0.00    -0.236 C  
BRANCH  11  12
HETATM   12  C   UNL     1      -8.209   8.856  67.312  1.00  0.00    -0.104 C  
HETATM   13  C   UNL     1      -7.391   9.650  68.020  1.00  0.00    -0.082 C  
BRANCH  13  14
HETATM   14  C   UNL     1      -7.364  11.137  67.836  1.00  0.00    -0.092 C  
BRANCH  14  15
HETATM   15  C   UNL     1      -6.495  11.866  68.852  1.00  0.00    -0.082 C  
BRANCH  15  16
HETATM   16  C   UNL     1      -6.846  13.354  68.836  1.00  0.00    -0.111 C  
BRANCH  16  17
HETATM   17  C   UNL     1      -7.905  13.666  67.789  1.00  0.00    -0.172 C  
HETATM   18  C   UNL     1      -7.745  15.061  67.233  1.00  0.00    -0.202 C  
HETATM   19  O   UNL     1      -6.885  15.863  67.565  1.00  0.00    -0.150 OA 
HETATM   20  O   UNL     1      -8.681  15.350  66.299  1.00  0.00    -0.300 OA 
ENDBRANCH  16  17
ENDBRANCH  15  16
ENDBRANCH  14  15
ENDBRANCH  13  14
ENDBRANCH  11  12
ENDBRANCH  10  11
ENDBRANCH   8   9
ENDBRANCH   7   8
ENDBRANCH   5   6
ENDBRANCH   4   5
ENDBRANCH   3   4
ENDBRANCH   2   3
TORSDOF 12
ENDMDL
MODEL      401
REMARK 921   NORMALIZED FREE ENERGY PREDICTED BY IDOCK:   -2.51 KCAL/MOL
REMARK 922        TOTAL FREE ENERGY PREDICTED BY IDOCK:   -6.23 KCAL/MOL
REMARK 923 INTER-LIGAND FREE ENERGY PREDICTED BY IDOCK:   -4.43 KCAL/MOL
REMARK 924 INTRA-LIGAND FREE ENERGY PREDICTED BY IDOCK:   -1.80 KCAL/MOL
REMARK 927      BINDING AFFINITY PREDICTED BY RF-SCORE:    0.00 PKD
ROOT
HETATM    1  C   UNL     1     -12.834   8.753  71.484  1.00  0.00    -0.366 C  
HETATM    2  C   UNL     1     -13.035   7.256  71.330  1.00  0.00    -0.420 C  
ENDROOT
BRANCH   2   3
HETATM    3  C   UNL     1     -11.987   6.477  72.116  1.00  0.00    -0.334 C  
BRANCH   3   4
HETATM    4  C   UNL     1     -11.149   7.407  72.991  1.00  0.00    -0.390 C  
BRANCH   4   5
HETATM    5  C   UNL     1      -9.690   6.975  72.943  1.00  0.00    -0.188 C  
BRANCH   5   6
HETATM    6  C   UNL     1      -8.908   7.640  71.849  1.00  0.00    -0.143 C  
HETATM    7  C   UNL     1      -8.543   6.993  70.731  1.00  0.00    -0.143 C  
BRANCH   7   8
HETATM    8  C   UNL     1      -8.847   5.551  70.458  1.00  0.00    -0.145 C  
BRANCH   8   9
HETATM    9  C   UNL     1      -9.931   5.390  69.437  1.00  0.00    -0.280 C  
HETATM   10  C   UNL     1      -9.727   5.309  68.114  1.00  0.00    -0.184 C  
BRANCH  10  11
HETATM   11  C   UNL     1      -8.397   5.462  67.441  1.00  0.00    -0.103 C  
BRANCH  11  12
HETATM   12  C   UNL     1      -8.470   6.416  66.281  1.00  0.00    -0.131 C  
HETATM   13  C   UNL     1      -8.474   7.754  66.390  1.00  0.00    -0.136 C  
BRANCH  13  14
HETATM   14  C   UNL     1      -8.419   8.448  67.716  1.00  0.00    -0.131 C  
BRANCH  14  15
HETATM   15  C   UNL     1      -7.535   9.688  67.725  1.00  0.00    -0.087 C  
BRANCH  15  16
HETATM   16  C   UNL     1      -8.419  10.935  67.704  1.00  0.00    -0.123 C  
BRANCH  16  17
HETATM   17  C   UNL     1      -9.662  10.752  68.562  1.00  0.00    -0.184 C  
HETATM   18  C   UNL     1     -10.920  10.757  67.728  1.00  0.00    -0.297 C  
HETATM   19  O   UNL     1     -10.967  10.893  66.514  1.00  0.00    -0.223 OA 
HETATM   20  O   UNL     1     -12.033  10.593  68.480  1.00  0.00    -0.425 OA 
ENDBRANCH  16  17
ENDBRANCH  15  16
ENDBRANCH  14  15
ENDBRANCH  13  14
ENDBRANCH  11  12
ENDBRANCH  10  11
ENDBRANCH   8   9
ENDBRANCH   7   8
ENDBRANCH   5   6
ENDBRANCH   4   5
ENDBRANCH   3   4
ENDBRANCH   2   3
TORSDOF 12
ENDMDL
MODEL      402
REMARK 921   NORMALIZED FREE ENERGY PREDICTED BY IDOCK:   -2.50 KCAL/MOL
REMARK 922        TOTAL FREE ENERGY PREDICTED BY IDOCK:   -6.21 KCAL/MOL
REMARK 923 INTER-LIGAND FREE ENERGY PREDICTED BY IDOCK:   -4.35 KCAL/MOL
REMARK 924 INTRA-LIGAND FREE ENERGY PREDICTED BY IDOCK:   -1.86 KCAL/MOL
REMARK 927      BINDING AFFINITY PREDICTED BY RF-SCORE:    0.00 PKD
ROOT
HETATM    1  C   UNL     1      -9.741   9.567  70.502  1.00  0.00    -0.325 C  
HETATM    2  C   UNL     1     -11.166   9.968  70.837  1.00  0.00    -0.415 C  
ENDROOT
BRANCH   2   3
HETATM    3  C   UNL     1     -11.847  10.628  69.644  1.00  0.00    -0.358 C  
BRANCH   3   4
HETATM    4  C   UNL     1     -10.820  11.127  68.629  1.00  0.00    -0.251 C  
BRANCH   4   5
HETATM    5  C   UNL     1     -11.039  10.427  67.295  1.00  0.00    -0.251 C  
BRANCH   5   6
HETATM    6  C   UNL     1      -9.784   9.849  66.711  1.00  0.00    -0.244 C  
HETATM    7  C   UNL     1      -9.428   8.568  66.898  1.00  0.00    -0.237 C  
BRANCH   7   8
HETATM    8  C   UNL     1     -10.215   7.588  67.716  1.00  0.00    -0.257 C  
BRANCH   8   9
HETATM    9  C   UNL     1     -10.988   6.636  66.857  1.00  0.00    -0.396 C  
HETATM   10  C   UNL     1     -10.579   5.402  66.526  1.00  0.00    -0.353 C  
BRANCH  10  11
HETATM   11  C   UNL     1      -9.246   4.817  66.881  1.00  0.00    -0.130 C  
BRANCH  11  12
HETATM   12  C   UNL     1      -9.373   3.747  67.929  1.00  0.00    -0.236 C  
HETATM   13  C   UNL     1      -8.518   3.567  68.948  1.00  0.00    -0.105 C  
BRANCH  13  14
HETATM   14  C   UNL     1      -7.310   4.433  69.139  1.00  0.00    -0.055 C  
BRANCH  14  15
HETATM   15  C   UNL     1      -7.495   5.524  70.185  1.00  0.00    -0.070 C  
BRANCH  15  16
HETATM   16  C   UNL     1      -8.338   4.977  71.338  1.00  0.00    -0.118 C  
BRANCH  16  17
HETATM   17  C   UNL     1      -8.948   6.100  72.164  1.00  0.00    -0.142 C  
HETATM   18  C   UNL     1      -8.612   5.959  73.629  1.00  0.00    -0.122 C  
HETATM   19  O   UNL     1      -7.939   5.065  74.121  1.00  0.00    -0.100 OA 
HETATM   20  O   UNL     1      -9.149   6.953  74.375  1.00  0.00    -0.187 OA 
ENDBRANCH  16  17
ENDBRANCH  15  16
ENDBRANCH  14  15
ENDBRANCH  13  14
ENDBRANCH  11  12
ENDBRANCH  10  11
ENDBRANCH   8   9
ENDBRANCH   7   8
ENDBRANCH   5   6
ENDBRANCH   4   5
ENDBRANCH   3   4
ENDBRANCH   2   3
TORSDOF 12
ENDMDL
MODEL      403
REMARK 921   NORMALIZED FREE ENERGY PREDICTED BY IDOCK:   -2.49 KCAL/MOL
REMARK 922        TOTAL FREE ENERGY PREDICTED BY IDOCK:   -6.18 KCAL/MOL
REMARK 923 INTER-LIGAND FREE ENERGY PREDICTED BY IDOCK:   -4.58 KCAL/MOL
REMARK 924 INTRA-LIGAND FREE ENERGY PREDICTED BY IDOCK:   -1.60 KCAL/MOL
REMARK 927      BINDING AFFINITY PREDICTED BY RF-SCORE:    0.00 PKD
ROOT
HETATM    1  C   UNL     1      -7.222   7.241  65.498  1.00  0.00    -0.066 C  
HETATM    2  C   UNL     1      -8.264   8.331  65.320  1.00  0.00    -0.149 C  
ENDROOT
BRANCH   2   3
HETATM    3  C   UNL     1      -9.468   8.092  66.224  1.00  0.00    -0.241 C  
BRANCH   3   4
HETATM    4  C   UNL     1     -10.117   9.411  66.639  1.00  0.00    -0.332 C  
BRANCH   4   5
HETATM    5  C   UNL     1     -10.139   9.513  68.157  1.00  0.00    -0.214 C  
BRANCH   5   6
HETATM    6  C   UNL     1      -8.775   9.445  68.779  1.00  0.00    -0.131 C  
HETATM    7  C   UNL     1      -8.592   9.404  70.108  1.00  0.00    -0.233 C  
BRANCH   7   8
HETATM    8  C   UNL     1      -9.705   9.448  71.111  1.00  0.00    -0.257 C  
BRANCH   8   9
HETATM    9  C   UNL     1      -9.458   8.522  72.262  1.00  0.00    -0.365 C  
HETATM   10  C   UNL     1     -10.373   7.693  72.786  1.00  0.00    -0.351 C  
BRANCH  10  11
HETATM   11  C   UNL     1     -11.811   7.631  72.367  1.00  0.00    -0.336 C  
BRANCH  11  12
HETATM   12  C   UNL     1     -11.947   7.470  70.879  1.00  0.00    -0.278 C  
HETATM   13  C   UNL     1     -11.522   6.406  70.181  1.00  0.00    -0.484 C  
BRANCH  13  14
HETATM   14  C   UNL     1     -10.837   5.244  70.834  1.00  0.00    -0.119 C  
BRANCH  14  15
HETATM   15  C   UNL     1      -9.957   4.437  69.888  1.00  0.00    -0.233 C  
BRANCH  15  16
HETATM   16  C   UNL     1      -9.216   5.394  68.954  1.00  0.00    -0.147 C  
BRANCH  16  17
HETATM   17  C   UNL     1      -8.463   4.640  67.867  1.00  0.00    -0.103 C  
HETATM   18  C   UNL     1      -9.334   4.388  66.660  1.00  0.00    -0.160 C  
HETATM   19  O   UNL     1     -10.501   4.730  66.542  1.00  0.00    -0.268 OA 
HETATM   20  O   UNL     1      -8.675   3.719  65.685  1.00  0.00    -0.113 OA 
ENDBRANCH  16  17
ENDBRANCH  15  16
ENDBRANCH  14  15
ENDBRANCH  13  14
ENDBRANCH  11  12
ENDBRANCH  10  11
ENDBRANCH   8   9
ENDBRANCH   7   8
ENDBRANCH   5   6
ENDBRANCH   4   5
ENDBRANCH   3   4
ENDBRANCH   2   3
TORSDOF 12
ENDMDL
MODEL      404
REMARK 921   NORMALIZED FREE ENERGY PREDICTED BY IDOCK:   -2.48 KCAL/MOL
REMARK 922        TOTAL FREE ENERGY PREDICTED BY IDOCK:   -6.17 KCAL/MOL
REMARK 923 INTER-LIGAND FREE ENERGY PREDICTED BY IDOCK:   -4.78 KCAL/MOL
REMARK 924 INTRA-LIGAND FREE ENERGY PREDICTED BY IDOCK:   -1.38 KCAL/MOL
REMARK 927      BINDING AFFINITY PREDICTED BY RF-SCORE:    0.00 PKD
ROOT
HETATM    1  C   UNL     1      -8.783   5.634  72.696  1.00  0.00    -0.123 C  
HETATM    2  C   UNL     1      -8.694   6.161  71.275  1.00  0.00    -0.132 C  
ENDROOT
BRANCH   2   3
HETATM    3  C   UNL     1      -8.618   7.684  71.258  1.00  0.00    -0.124 C  
BRANCH   3   4
HETATM    4  C   UNL     1      -7.362   8.165  70.534  1.00  0.00    -0.056 C  
BRANCH   4   5
HETATM    5  C   UNL     1      -7.689   8.436  69.072  1.00  0.00    -0.097 C  
BRANCH   5   6
HETATM    6  C   UNL     1      -8.912   9.283  68.882  1.00  0.00    -0.136 C  
HETATM    7  C   UNL     1      -9.171   9.926  67.733  1.00  0.00    -0.141 C  
BRANCH   7   8
HETATM    8  C   UNL     1      -8.273   9.894  66.532  1.00  0.00    -0.121 C  
BRANCH   8   9
HETATM    9  C   UNL     1      -8.935   9.248  65.355  1.00  0.00    -0.253 C  
HETATM   10  C   UNL     1      -9.684   9.895  64.450  1.00  0.00    -0.177 C  
BRANCH  10  11
HETATM   11  C   UNL     1     -10.056  11.345  64.525  1.00  0.00    -0.337 C  
BRANCH  11  12
HETATM   12  C   UNL     1     -11.547  11.534  64.542  1.00  0.00    -0.149 C  
HETATM   13  C   UNL     1     -12.169  12.723  64.538  1.00  0.00    -0.500 C  
BRANCH  13  14
HETATM   14  C   UNL     1     -11.416  14.018  64.531  1.00  0.00    -0.380 C  
BRANCH  14  15
HETATM   15  C   UNL     1     -11.095  14.551  65.922  1.00  0.00    -0.327 C  
BRANCH  15  16
HETATM   16  C   UNL     1     -12.157  14.057  66.905  1.00  0.00    -0.465 C  
BRANCH  16  17
HETATM   17  C   UNL     1     -11.558  13.769  68.275  1.00  0.00    -0.373 C  
HETATM   18  C   UNL     1     -11.776  12.334  68.688  1.00  0.00    -0.328 C  
HETATM   19  O   UNL     1     -12.360  11.486  68.029  1.00  0.00    -0.445 OA 
HETATM   20  O   UNL     1     -11.247  12.066  69.904  1.00  0.00    -0.120 OA 
ENDBRANCH  16  17
ENDBRANCH  15  16
ENDBRANCH  14  15
ENDBRANCH  13  14
ENDBRANCH  11  12
ENDBRANCH  10  11
ENDBRANCH   8   9
ENDBRANCH   7   8
ENDBRANCH   5   6
ENDBRANCH   4   5
ENDBRANCH   3   4
ENDBRANCH   2   3
TORSDOF 12
ENDMDL
MODEL      405
REMARK 921   NORMALIZED FREE ENERGY PREDICTED BY IDOCK:   -2.47 KCAL/MOL
REMARK 922        TOTAL FREE ENERGY PREDICTED BY IDOCK:   -6.16 KCAL/MOL
REMARK 923 INTER-LIGAND FREE ENERGY PREDICTED BY IDOCK:   -4.46 KCAL/MOL
REMARK 924 INTRA-LIGAND FREE ENERGY PREDICTED BY IDOCK:   -1.70 KCAL/MOL
REMARK 927      BINDING AFFINITY PREDICTED BY RF-SCORE:    0.00 PKD
ROOT
HETATM    1  C   UNL     1      -5.716   9.980  67.450  1.00  0.00    -0.046 C  
HETATM    2  C   UNL     1      -6.405   8.708  66.988  1.00  0.00    -0.057 C  
ENDROOT
BRANCH   2   3
HETATM    3  C   UNL     1      -7.204   8.074  68.120  1.00  0.00    -0.094 C  
BRANCH   3   4
HETATM    4  C   UNL     1      -8.345   7.216  67.576  1.00  0.00    -0.116 C  
BRANCH   4   5
HETATM    5  C   UNL     1      -9.179   8.035  66.601  1.00  0.00    -0.225 C  
BRANCH   5   6
HETATM    6  C   UNL     1     -10.384   8.668  67.232  1.00  0.00    -0.366 C  
HETATM    7  C   UNL     1     -10.462   9.987  67.470  1.00  0.00    -0.307 C  
BRANCH   7   8
HETATM    8  C   UNL     1      -9.366  10.962  67.162  1.00  0.00    -0.174 C  
BRANCH   8   9
HETATM    9  C   UNL     1      -9.482  11.514  65.774  1.00  0.00    -0.255 C  
HETATM   10  C   UNL     1      -9.708  12.803  65.482  1.00  0.00    -0.089 C  
BRANCH  10  11
HETATM   11  C   UNL     1      -9.975  13.877  66.493  1.00  0.00    -0.288 C  
BRANCH  11  12
HETATM   12  C   UNL     1      -8.722  14.628  66.846  1.00  0.00    -0.251 C  
HETATM   13  C   UNL     1      -8.418  15.076  68.075  1.00  0.00    -0.149 C  
BRANCH  13  14
HETATM   14  C   UNL     1      -9.330  14.877  69.246  1.00  0.00    -0.106 C  
BRANCH  14  15
HETATM   15  C   UNL     1     -10.337  16.003  69.439  1.00  0.00    -0.272 C  
BRANCH  15  16
HETATM   16  C   UNL     1     -11.745  15.412  69.512  1.00  0.00    -0.364 C  
BRANCH  16  17
HETATM   17  C   UNL     1     -11.790  14.191  70.420  1.00  0.00    -0.367 C  
HETATM   18  C   UNL     1     -12.012  12.921  69.634  1.00  0.00    -0.292 C  
HETATM   19  O   UNL     1     -12.146  12.850  68.422  1.00  0.00    -0.291 OA 
HETATM   20  O   UNL     1     -12.053  11.828  70.431  1.00  0.00    -0.350 OA 
ENDBRANCH  16  17
ENDBRANCH  15  16
ENDBRANCH  14  15
ENDBRANCH  13  14
ENDBRANCH  11  12
ENDBRANCH  10  11
ENDBRANCH   8   9
ENDBRANCH   7   8
ENDBRANCH   5   6
ENDBRANCH   4   5
ENDBRANCH   3   4
ENDBRANCH   2   3
TORSDOF 12
ENDMDL
MODEL      406
REMARK 921   NORMALIZED FREE ENERGY PREDICTED BY IDOCK:   -2.47 KCAL/MOL
REMARK 922        TOTAL FREE ENERGY PREDICTED BY IDOCK:   -6.16 KCAL/MOL
REMARK 923 INTER-LIGAND FREE ENERGY PREDICTED BY IDOCK:   -5.16 KCAL/MOL
REMARK 924 INTRA-LIGAND FREE ENERGY PREDICTED BY IDOCK:   -1.00 KCAL/MOL
REMARK 927      BINDING AFFINITY PREDICTED BY RF-SCORE:    0.00 PKD
ROOT
HETATM    1  C   UNL     1      -7.556   1.762  63.888  1.00  0.00    -0.059 C  
HETATM    2  C   UNL     1      -7.528   1.900  65.400  1.00  0.00    -0.069 C  
ENDROOT
BRANCH   2   3
HETATM    3  C   UNL     1      -6.777   3.157  65.823  1.00  0.00    -0.044 C  
BRANCH   3   4
HETATM    4  C   UNL     1      -7.677   4.096  66.624  1.00  0.00    -0.089 C  
BRANCH   4   5
HETATM    5  C   UNL     1      -7.187   4.168  68.063  1.00  0.00    -0.060 C  
BRANCH   5   6
HETATM    6  C   UNL     1      -7.357   2.881  68.815  1.00  0.00    -0.048 C  
HETATM    7  C   UNL     1      -8.433   2.631  69.578  1.00  0.00    -0.101 C  
BRANCH   7   8
HETATM    8  C   UNL     1      -9.559   3.599  69.786  1.00  0.00    -0.228 C  
BRANCH   8   9
HETATM    9  C   UNL     1      -9.902   3.755  71.235  1.00  0.00    -0.219 C  
HETATM   10  C   UNL     1     -10.336   4.892  71.799  1.00  0.00    -0.249 C  
BRANCH  10  11
HETATM   11  C   UNL     1     -10.453   6.208  71.092  1.00  0.00    -0.281 C  
BRANCH  11  12
HETATM   12  C   UNL     1     -11.831   6.411  70.526  1.00  0.00    -0.316 C  
HETATM   13  C   UNL     1     -12.713   7.322  70.967  1.00  0.00    -0.284 C  
BRANCH  13  14
HETATM   14  C   UNL     1     -12.407   8.244  72.108  1.00  0.00    -0.410 C  
BRANCH  14  15
HETATM   15  C   UNL     1     -11.707   9.530  71.688  1.00  0.00    -0.460 C  
BRANCH  15  16
HETATM   16  C   UNL     1     -12.713  10.445  70.990  1.00  0.00    -0.490 C  
BRANCH  16  17
HETATM   17  C   UNL     1     -13.458  11.320  71.987  1.00  0.00    -0.289 C  
HETATM   18  C   UNL     1     -13.205  12.787  71.737  1.00  0.00    -0.374 C  
HETATM   19  O   UNL     1     -12.495  13.246  70.855  1.00  0.00    -0.362 OA 
HETATM   20  O   UNL     1     -13.863  13.577  72.618  1.00  0.00    -0.724 OA 
ENDBRANCH  16  17
ENDBRANCH  15  16
ENDBRANCH  14  15
ENDBRANCH  13  14
ENDBRANCH  11  12
ENDBRANCH  10  11
ENDBRANCH   8   9
ENDBRANCH   7   8
ENDBRANCH   5   6
ENDBRANCH   4   5
ENDBRANCH   3   4
ENDBRANCH   2   3
TORSDOF 12
ENDMDL
MODEL      407
REMARK 921   NORMALIZED FREE ENERGY PREDICTED BY IDOCK:   -2.46 KCAL/MOL
REMARK 922        TOTAL FREE ENERGY PREDICTED BY IDOCK:   -6.15 KCAL/MOL
REMARK 923 INTER-LIGAND FREE ENERGY PREDICTED BY IDOCK:   -5.16 KCAL/MOL
REMARK 924 INTRA-LIGAND FREE ENERGY PREDICTED BY IDOCK:   -0.99 KCAL/MOL
REMARK 927      BINDING AFFINITY PREDICTED BY RF-SCORE:    0.00 PKD
ROOT
HETATM    1  C   UNL     1      -5.413  21.224  67.929  1.00  0.00    -0.360 C  
HETATM    2  C   UNL     1      -5.720  19.774  68.259  1.00  0.00    -0.241 C  
ENDROOT
BRANCH   2   3
HETATM    3  C   UNL     1      -6.828  19.230  67.365  1.00  0.00    -0.220 C  
BRANCH   3   4
HETATM    4  C   UNL     1      -7.312  17.866  67.854  1.00  0.00    -0.222 C  
BRANCH   4   5
HETATM    5  C   UNL     1      -7.414  16.908  66.675  1.00  0.00    -0.303 C  
BRANCH   5   6
HETATM    6  C   UNL     1      -7.420  15.464  67.079  1.00  0.00    -0.166 C  
HETATM    7  C   UNL     1      -8.540  14.724  67.087  1.00  0.00    -0.248 C  
BRANCH   7   8
HETATM    8  C   UNL     1      -9.896  15.250  66.724  1.00  0.00    -0.246 C  
BRANCH   8   9
HETATM    9  C   UNL     1     -10.853  14.147  66.392  1.00  0.00    -0.304 C  
HETATM   10  C   UNL     1     -11.509  13.406  67.298  1.00  0.00    -0.374 C  
BRANCH  10  11
HETATM   11  C   UNL     1     -11.316  13.499  68.781  1.00  0.00    -0.329 C  
BRANCH  11  12
HETATM   12  C   UNL     1     -12.446  14.240  69.440  1.00  0.00    -0.112 C  
HETATM   13  C   UNL     1     -12.915  13.982  70.671  1.00  0.00    -0.261 C  
BRANCH  13  14
HETATM   14  C   UNL     1     -12.353  12.890  71.528  1.00  0.00     0.017 C  
BRANCH  14  15
HETATM   15  C   UNL     1     -13.342  11.772  71.828  1.00  0.00    -0.342 C  
BRANCH  15  16
HETATM   16  C   UNL     1     -12.574  10.469  72.055  1.00  0.00    -0.213 C  
BRANCH  16  17
HETATM   17  C   UNL     1     -11.777  10.070  70.821  1.00  0.00    -0.437 C  
HETATM   18  C   UNL     1     -10.556   9.260  71.185  1.00  0.00    -0.332 C  
HETATM   19  O   UNL     1     -10.222   8.950  72.319  1.00  0.00    -0.296 OA 
HETATM   20  O   UNL     1      -9.840   8.897  70.096  1.00  0.00    -0.167 OA 
ENDBRANCH  16  17
ENDBRANCH  15  16
ENDBRANCH  14  15
ENDBRANCH  13  14
ENDBRANCH  11  12
ENDBRANCH  10  11
ENDBRANCH   8   9
ENDBRANCH   7   8
ENDBRANCH   5   6
ENDBRANCH   4   5
ENDBRANCH   3   4
ENDBRANCH   2   3
TORSDOF 12
ENDMDL
MODEL      408
REMARK 921   NORMALIZED FREE ENERGY PREDICTED BY IDOCK:   -2.45 KCAL/MOL
REMARK 922        TOTAL FREE ENERGY PREDICTED BY IDOCK:   -6.12 KCAL/MOL
REMARK 923 INTER-LIGAND FREE ENERGY PREDICTED BY IDOCK:   -4.70 KCAL/MOL
REMARK 924 INTRA-LIGAND FREE ENERGY PREDICTED BY IDOCK:   -1.42 KCAL/MOL
REMARK 927      BINDING AFFINITY PREDICTED BY RF-SCORE:    0.00 PKD
ROOT
HETATM    1  C   UNL     1     -11.774   8.856  70.863  1.00  0.00    -0.312 C  
HETATM    2  C   UNL     1     -11.964  10.360  70.929  1.00  0.00    -0.478 C  
ENDROOT
BRANCH   2   3
HETATM    3  C   UNL     1     -11.549  11.025  69.622  1.00  0.00    -0.390 C  
BRANCH   3   4
HETATM    4  C   UNL     1     -11.441  12.540  69.783  1.00  0.00    -0.211 C  
BRANCH   4   5
HETATM    5  C   UNL     1     -10.768  13.137  68.554  1.00  0.00    -0.277 C  
BRANCH   5   6
HETATM    6  C   UNL     1     -11.243  12.534  67.264  1.00  0.00    -0.347 C  
HETATM    7  C   UNL     1     -10.440  12.396  66.197  1.00  0.00    -0.274 C  
BRANCH   7   8
HETATM    8  C   UNL     1      -9.009  12.842  66.160  1.00  0.00     0.137 C  
BRANCH   8   9
HETATM    9  C   UNL     1      -8.124  11.949  66.973  1.00  0.00    -0.167 C  
HETATM   10  C   UNL     1      -7.055  12.364  67.670  1.00  0.00    -0.133 C  
BRANCH  10  11
HETATM   11  C   UNL     1      -6.523  13.764  67.669  1.00  0.00    -0.163 C  
BRANCH  11  12
HETATM   12  C   UNL     1      -6.160  14.219  69.055  1.00  0.00    -0.092 C  
HETATM   13  C   UNL     1      -6.963  14.929  69.863  1.00  0.00    -0.143 C  
BRANCH  13  14
HETATM   14  C   UNL     1      -8.335  15.362  69.446  1.00  0.00    -0.250 C  
BRANCH  14  15
HETATM   15  C   UNL     1      -8.508  16.873  69.374  1.00  0.00     0.252 C  
BRANCH  15  16
HETATM   16  C   UNL     1      -9.831  17.195  68.678  1.00  0.00    -0.300 C  
BRANCH  16  17
HETATM   17  C   UNL     1      -9.815  18.589  68.067  1.00  0.00    -0.370 C  
HETATM   18  C   UNL     1      -9.423  18.553  66.609  1.00  0.00    -0.311 C  
HETATM   19  O   UNL     1      -9.145  17.547  65.973  1.00  0.00    -0.489 OA 
HETATM   20  O   UNL     1      -9.406  19.787  66.054  1.00  0.00    -0.378 OA 
ENDBRANCH  16  17
ENDBRANCH  15  16
ENDBRANCH  14  15
ENDBRANCH  13  14
ENDBRANCH  11  12
ENDBRANCH  10  11
ENDBRANCH   8   9
ENDBRANCH   7   8
ENDBRANCH   5   6
ENDBRANCH   4   5
ENDBRANCH   3   4
ENDBRANCH   2   3
TORSDOF 12
ENDMDL
MODEL      409
REMARK 921   NORMALIZED FREE ENERGY PREDICTED BY IDOCK:   -2.43 KCAL/MOL
REMARK 922        TOTAL FREE ENERGY PREDICTED BY IDOCK:   -6.09 KCAL/MOL
REMARK 923 INTER-LIGAND FREE ENERGY PREDICTED BY IDOCK:   -3.72 KCAL/MOL
REMARK 924 INTRA-LIGAND FREE ENERGY PREDICTED BY IDOCK:   -2.37 KCAL/MOL
REMARK 927      BINDING AFFINITY PREDICTED BY RF-SCORE:    0.00 PKD
ROOT
HETATM    1  C   UNL     1      -9.164   4.530  69.059  1.00  0.00    -0.192 C  
HETATM    2  C   UNL     1      -9.927   4.365  70.361  1.00  0.00    -0.253 C  
ENDROOT
BRANCH   2   3
HETATM    3  C   UNL     1     -10.599   5.669  70.774  1.00  0.00    -0.335 C  
BRANCH   3   4
HETATM    4  C   UNL     1     -10.005   6.207  72.075  1.00  0.00    -0.194 C  
BRANCH   4   5
HETATM    5  C   UNL     1      -9.408   5.059  72.877  1.00  0.00    -0.147 C  
BRANCH   5   6
HETATM    6  C   UNL     1      -8.193   5.451  73.665  1.00  0.00    -0.113 C  
HETATM    7  C   UNL     1      -6.949   5.145  73.267  1.00  0.00    -0.076 C  
BRANCH   7   8
HETATM    8  C   UNL     1      -6.631   4.369  72.024  1.00  0.00    -0.023 C  
BRANCH   8   9
HETATM    9  C   UNL     1      -5.491   4.972  71.263  1.00  0.00    -0.005 C  
HETATM   10  C   UNL     1      -5.547   6.137  70.600  1.00  0.00    -0.018 C  
BRANCH  10  11
HETATM   11  C   UNL     1      -6.782   6.970  70.435  1.00  0.00    -0.053 C  
BRANCH  11  12
HETATM   12  C   UNL     1      -6.500   8.231  69.667  1.00  0.00    -0.037 C  
HETATM   13  C   UNL     1      -7.437   9.011  69.105  1.00  0.00    -0.072 C  
BRANCH  13  14
HETATM   14  C   UNL     1      -8.897   8.685  69.178  1.00  0.00    -0.137 C  
BRANCH  14  15
HETATM   15  C   UNL     1      -9.628   9.387  70.315  1.00  0.00    -0.294 C  
BRANCH  15  16
HETATM   16  C   UNL     1     -11.133   9.175  70.151  1.00  0.00    -0.248 C  
BRANCH  16  17
HETATM   17  C   UNL     1     -11.924   9.970  71.180  1.00  0.00    -0.484 C  
HETATM   18  C   UNL     1     -12.396  11.290  70.619  1.00  0.00    -0.383 C  
HETATM   19  O   UNL     1     -12.184  11.698  69.487  1.00  0.00    -0.271 OA 
HETATM   20  O   UNL     1     -13.102  12.007  71.525  1.00  0.00    -0.390 OA 
ENDBRANCH  16  17
ENDBRANCH  15  16
ENDBRANCH  14  15
ENDBRANCH  13  14
ENDBRANCH  11  12
ENDBRANCH  10  11
ENDBRANCH   8   9
ENDBRANCH   7   8
ENDBRANCH   5   6
ENDBRANCH   4   5
ENDBRANCH   3   4
ENDBRANCH   2   3
TORSDOF 12
ENDMDL
MODEL      410
REMARK 921   NORMALIZED FREE ENERGY PREDICTED BY IDOCK:   -2.43 KCAL/MOL
REMARK 922        TOTAL FREE ENERGY PREDICTED BY IDOCK:   -6.09 KCAL/MOL
REMARK 923 INTER-LIGAND FREE ENERGY PREDICTED BY IDOCK:   -4.78 KCAL/MOL
REMARK 924 INTRA-LIGAND FREE ENERGY PREDICTED BY IDOCK:   -1.31 KCAL/MOL
REMARK 927      BINDING AFFINITY PREDICTED BY RF-SCORE:    0.00 PKD
ROOT
HETATM    1  C   UNL     1      -6.145   4.033  69.077  1.00  0.00    -0.027 C  
HETATM    2  C   UNL     1      -6.482   2.930  68.090  1.00  0.00    -0.036 C  
ENDROOT
BRANCH   2   3
HETATM    3  C   UNL     1      -7.824   3.186  67.415  1.00  0.00    -0.077 C  
BRANCH   3   4
HETATM    4  C   UNL     1      -7.669   3.289  65.898  1.00  0.00    -0.081 C  
BRANCH   4   5
HETATM    5  C   UNL     1      -8.101   4.673  65.434  1.00  0.00    -0.107 C  
BRANCH   5   6
HETATM    6  C   UNL     1      -7.069   5.733  65.681  1.00  0.00    -0.069 C  
HETATM    7  C   UNL     1      -7.298   6.787  66.480  1.00  0.00    -0.074 C  
BRANCH   7   8
HETATM    8  C   UNL     1      -8.596   7.039  67.187  1.00  0.00    -0.121 C  
BRANCH   8   9
HETATM    9  C   UNL     1      -9.479   7.974  66.419  1.00  0.00    -0.268 C  
HETATM   10  C   UNL     1     -10.249   8.924  66.971  1.00  0.00    -0.345 C  
BRANCH  10  11
HETATM   11  C   UNL     1     -10.421   9.137  68.445  1.00  0.00    -0.241 C  
BRANCH  11  12
HETATM   12  C   UNL     1      -9.319   9.987  69.013  1.00  0.00    -0.183 C  
HETATM   13  C   UNL     1      -9.164  11.299  68.775  1.00  0.00    -0.133 C  
BRANCH  13  14
HETATM   14  C   UNL     1     -10.093  12.065  67.883  1.00  0.00    -0.199 C  
BRANCH  14  15
HETATM   15  C   UNL     1      -9.384  12.857  66.793  1.00  0.00    -0.243 C  
BRANCH  15  16
HETATM   16  C   UNL     1     -10.427  13.572  65.933  1.00  0.00    -0.292 C  
BRANCH  16  17
HETATM   17  C   UNL     1     -11.086  12.618  64.947  1.00  0.00    -0.331 C  
HETATM   18  C   UNL     1     -12.548  12.942  64.751  1.00  0.00    -0.425 C  
HETATM   19  O   UNL     1     -13.155  13.848  65.303  1.00  0.00    -0.777 OA 
HETATM   20  O   UNL     1     -13.145  12.101  63.875  1.00  0.00    -0.749 OA 
ENDBRANCH  16  17
ENDBRANCH  15  16
ENDBRANCH  14  15
ENDBRANCH  13  14
ENDBRANCH  11  12
ENDBRANCH  10  11
ENDBRANCH   8   9
ENDBRANCH   7   8
ENDBRANCH   5   6
ENDBRANCH   4   5
ENDBRANCH   3   4
ENDBRANCH   2   3
TORSDOF 12
ENDMDL
MODEL      411
REMARK 921   NORMALIZED FREE ENERGY PREDICTED BY IDOCK:   -2.42 KCAL/MOL
REMARK 922        TOTAL FREE ENERGY PREDICTED BY IDOCK:   -6.08 KCAL/MOL
REMARK 923 INTER-LIGAND FREE ENERGY PREDICTED BY IDOCK:   -6.57 KCAL/MOL
REMARK 924 INTRA-LIGAND FREE ENERGY PREDICTED BY IDOCK:    0.49 KCAL/MOL
REMARK 927      BINDING AFFINITY PREDICTED BY RF-SCORE:    0.00 PKD
ROOT
HETATM    1  C   UNL     1     -11.001   9.122  70.594  1.00  0.00    -0.319 C  
HETATM    2  C   UNL     1     -11.207  10.536  70.080  1.00  0.00    -0.386 C  
ENDROOT
BRANCH   2   3
HETATM    3  C   UNL     1     -11.648  10.531  68.621  1.00  0.00    -0.241 C  
BRANCH   3   4
HETATM    4  C   UNL     1     -11.767  11.953  68.075  1.00  0.00    -0.382 C  
BRANCH   4   5
HETATM    5  C   UNL     1     -11.259  11.993  66.641  1.00  0.00    -0.380 C  
BRANCH   5   6
HETATM    6  C   UNL     1     -12.221  12.635  65.686  1.00  0.00    -0.474 C  
HETATM    7  C   UNL     1     -12.210  13.953  65.431  1.00  0.00    -0.463 C  
BRANCH   7   8
HETATM    8  C   UNL     1     -11.269  14.926  66.077  1.00  0.00    -0.327 C  
BRANCH   8   9
HETATM    9  C   UNL     1      -9.859  14.735  65.610  1.00  0.00    -0.361 C  
HETATM   10  C   UNL     1      -8.769  14.985  66.351  1.00  0.00    -0.169 C  
BRANCH  10  11
HETATM   11  C   UNL     1      -8.785  15.583  67.725  1.00  0.00    -0.170 C  
BRANCH  11  12
HETATM   12  C   UNL     1      -9.756  14.872  68.626  1.00  0.00    -0.226 C  
HETATM   13  C   UNL     1     -10.825  15.444  69.203  1.00  0.00    -0.249 C  
BRANCH  13  14
HETATM   14  C   UNL     1     -11.157  16.892  69.011  1.00  0.00    -0.086 C  
BRANCH  14  15
HETATM   15  C   UNL     1      -9.980  17.736  68.542  1.00  0.00    -0.370 C  
BRANCH  15  16
HETATM   16  C   UNL     1     -10.478  18.777  67.538  1.00  0.00    -0.495 C  
BRANCH  16  17
HETATM   17  C   UNL     1      -9.767  20.111  67.720  1.00  0.00    -0.529 C  
HETATM   18  C   UNL     1      -8.357  20.068  67.179  1.00  0.00    -0.332 C  
HETATM   19  O   UNL     1      -7.825  19.098  66.659  1.00  0.00    -0.246 OA 
HETATM   20  O   UNL     1      -7.715  21.249  67.334  1.00  0.00    -0.361 OA 
ENDBRANCH  16  17
ENDBRANCH  15  16
ENDBRANCH  14  15
ENDBRANCH  13  14
ENDBRANCH  11  12
ENDBRANCH  10  11
ENDBRANCH   8   9
ENDBRANCH   7   8
ENDBRANCH   5   6
ENDBRANCH   4   5
ENDBRANCH   3   4
ENDBRANCH   2   3
TORSDOF 12
ENDMDL
MODEL      412
REMARK 921   NORMALIZED FREE ENERGY PREDICTED BY IDOCK:   -2.40 KCAL/MOL
REMARK 922        TOTAL FREE ENERGY PREDICTED BY IDOCK:   -6.04 KCAL/MOL
REMARK 923 INTER-LIGAND FREE ENERGY PREDICTED BY IDOCK:   -4.73 KCAL/MOL
REMARK 924 INTRA-LIGAND FREE ENERGY PREDICTED BY IDOCK:   -1.32 KCAL/MOL
REMARK 927      BINDING AFFINITY PREDICTED BY RF-SCORE:    0.00 PKD
ROOT
HETATM    1  C   UNL     1     -12.392  14.198  70.720  1.00  0.00    -0.439 C  
HETATM    2  C   UNL     1     -11.333  14.008  69.648  1.00  0.00    -0.270 C  
ENDROOT
BRANCH   2   3
HETATM    3  C   UNL     1     -11.965  13.651  68.308  1.00  0.00    -0.385 C  
BRANCH   3   4
HETATM    4  C   UNL     1     -11.423  12.325  67.777  1.00  0.00    -0.392 C  
BRANCH   4   5
HETATM    5  C   UNL     1     -10.926  11.476  68.939  1.00  0.00    -0.279 C  
BRANCH   5   6
HETATM    6  C   UNL     1     -11.971  10.550  69.488  1.00  0.00    -0.258 C  
HETATM    7  C   UNL     1     -11.707   9.669  70.466  1.00  0.00    -0.312 C  
BRANCH   7   8
HETATM    8  C   UNL     1     -10.358   9.491  71.096  1.00  0.00    -0.330 C  
BRANCH   8   9
HETATM    9  C   UNL     1      -9.681   8.242  70.625  1.00  0.00    -0.191 C  
HETATM   10  C   UNL     1      -9.580   7.112  71.340  1.00  0.00    -0.163 C  
BRANCH  10  11
HETATM   11  C   UNL     1     -10.043   6.950  72.756  1.00  0.00    -0.199 C  
BRANCH  11  12
HETATM   12  C   UNL     1     -11.343   6.198  72.830  1.00  0.00    -0.259 C  
HETATM   13  C   UNL     1     -11.462   4.905  73.169  1.00  0.00    -0.362 C  
BRANCH  13  14
HETATM   14  C   UNL     1     -10.275   4.054  73.503  1.00  0.00    -0.210 C  
BRANCH  14  15
HETATM   15  C   UNL     1     -10.107   2.846  72.590  1.00  0.00    -0.232 C  
BRANCH  15  16
HETATM   16  C   UNL     1      -9.728   3.325  71.189  1.00  0.00    -0.212 C  
BRANCH  16  17
HETATM   17  C   UNL     1      -8.457   2.650  70.694  1.00  0.00    -0.092 C  
HETATM   18  C   UNL     1      -7.600   3.598  69.890  1.00  0.00    -0.048 C  
HETATM   19  O   UNL     1      -7.868   4.766  69.647  1.00  0.00    -0.065 OA 
HETATM   20  O   UNL     1      -6.465   3.010  69.445  1.00  0.00    -0.029 OA 
ENDBRANCH  16  17
ENDBRANCH  15  16
ENDBRANCH  14  15
ENDBRANCH  13  14
ENDBRANCH  11  12
ENDBRANCH  10  11
ENDBRANCH   8   9
ENDBRANCH   7   8
ENDBRANCH   5   6
ENDBRANCH   4   5
ENDBRANCH   3   4
ENDBRANCH   2   3
TORSDOF 12
ENDMDL
MODEL      413
REMARK 921   NORMALIZED FREE ENERGY PREDICTED BY IDOCK:   -2.40 KCAL/MOL
REMARK 922        TOTAL FREE ENERGY PREDICTED BY IDOCK:   -6.03 KCAL/MOL
REMARK 923 INTER-LIGAND FREE ENERGY PREDICTED BY IDOCK:   -5.05 KCAL/MOL
REMARK 924 INTRA-LIGAND FREE ENERGY PREDICTED BY IDOCK:   -0.98 KCAL/MOL
REMARK 927      BINDING AFFINITY PREDICTED BY RF-SCORE:    0.00 PKD
ROOT
HETATM    1  C   UNL     1      -5.815  10.212  64.606  1.00  0.00    -0.124 C  
HETATM    2  C   UNL     1      -6.405   9.227  63.613  1.00  0.00    -0.091 C  
ENDROOT
BRANCH   2   3
HETATM    3  C   UNL     1      -7.900   9.040  63.846  1.00  0.00    -0.133 C  
BRANCH   3   4
HETATM    4  C   UNL     1      -8.164   7.966  64.900  1.00  0.00    -0.128 C  
BRANCH   4   5
HETATM    5  C   UNL     1      -9.257   8.439  65.847  1.00  0.00    -0.217 C  
BRANCH   5   6
HETATM    6  C   UNL     1      -9.518   9.914  65.766  1.00  0.00    -0.280 C  
HETATM    7  C   UNL     1     -10.243  10.568  66.688  1.00  0.00    -0.289 C  
BRANCH   7   8
HETATM    8  C   UNL     1     -10.887   9.910  67.871  1.00  0.00    -0.312 C  
BRANCH   8   9
HETATM    9  C   UNL     1     -10.280  10.364  69.163  1.00  0.00    -0.239 C  
HETATM   10  C   UNL     1     -10.874  11.191  70.037  1.00  0.00     0.030 C  
BRANCH  10  11
HETATM   11  C   UNL     1     -12.194  11.865  69.817  1.00  0.00    -0.241 C  
BRANCH  11  12
HETATM   12  C   UNL     1     -12.388  13.021  70.758  1.00  0.00    -0.394 C  
HETATM   13  C   UNL     1     -12.110  14.301  70.467  1.00  0.00    -0.413 C  
BRANCH  13  14
HETATM   14  C   UNL     1     -11.550  14.715  69.141  1.00  0.00    -0.331 C  
BRANCH  14  15
HETATM   15  C   UNL     1     -12.279  14.110  67.949  1.00  0.00    -0.190 C  
BRANCH  15  16
HETATM   16  C   UNL     1     -11.373  14.178  66.719  1.00  0.00    -0.353 C  
BRANCH  16  17
HETATM   17  C   UNL     1     -11.606  15.456  65.925  1.00  0.00     0.098 C  
HETATM   18  C   UNL     1     -12.341  15.184  64.635  1.00  0.00    -0.149 C  
HETATM   19  O   UNL     1     -12.713  14.086  64.247  1.00  0.00    -0.661 OA 
HETATM   20  O   UNL     1     -12.555  16.314  63.921  1.00  0.00    -0.637 OA 
ENDBRANCH  16  17
ENDBRANCH  15  16
ENDBRANCH  14  15
ENDBRANCH  13  14
ENDBRANCH  11  12
ENDBRANCH  10  11
ENDBRANCH   8   9
ENDBRANCH   7   8
ENDBRANCH   5   6
ENDBRANCH   4   5
ENDBRANCH   3   4
ENDBRANCH   2   3
TORSDOF 12
ENDMDL
MODEL      414
REMARK 921   NORMALIZED FREE ENERGY PREDICTED BY IDOCK:   -2.39 KCAL/MOL
REMARK 922        TOTAL FREE ENERGY PREDICTED BY IDOCK:   -6.02 KCAL/MOL
REMARK 923 INTER-LIGAND FREE ENERGY PREDICTED BY IDOCK:   -4.77 KCAL/MOL
REMARK 924 INTRA-LIGAND FREE ENERGY PREDICTED BY IDOCK:   -1.25 KCAL/MOL
REMARK 927      BINDING AFFINITY PREDICTED BY RF-SCORE:    0.00 PKD
ROOT
HETATM    1  C   UNL     1     -11.360  15.634  66.969  1.00  0.00    -0.051 C  
HETATM    2  C   UNL     1     -11.819  14.192  66.846  1.00  0.00    -0.458 C  
ENDROOT
BRANCH   2   3
HETATM    3  C   UNL     1     -12.623  13.978  65.569  1.00  0.00    -0.543 C  
BRANCH   3   4
HETATM    4  C   UNL     1     -12.454  12.554  65.042  1.00  0.00    -0.494 C  
BRANCH   4   5
HETATM    5  C   UNL     1     -11.450  11.806  65.909  1.00  0.00    -0.273 C  
BRANCH   5   6
HETATM    6  C   UNL     1     -10.178  11.468  65.190  1.00  0.00    -0.322 C  
HETATM    7  C   UNL     1      -9.330  10.526  65.633  1.00  0.00    -0.242 C  
BRANCH   7   8
HETATM    8  C   UNL     1      -9.537   9.733  66.888  1.00  0.00    -0.228 C  
BRANCH   8   9
HETATM    9  C   UNL     1      -9.986   8.334  66.598  1.00  0.00    -0.348 C  
HETATM   10  C   UNL     1     -10.433   7.469  67.521  1.00  0.00    -0.341 C  
BRANCH  10  11
HETATM   11  C   UNL     1     -10.464   7.731  68.996  1.00  0.00    -0.215 C  
BRANCH  11  12
HETATM   12  C   UNL     1     -11.377   6.772  69.709  1.00  0.00    -0.350 C  
HETATM   13  C   UNL     1     -10.966   5.737  70.458  1.00  0.00    -0.320 C  
BRANCH  13  14
HETATM   14  C   UNL     1      -9.515   5.418  70.653  1.00  0.00    -0.215 C  
BRANCH  14  15
HETATM   15  C   UNL     1      -8.877   6.147  71.827  1.00  0.00    -0.138 C  
BRANCH  15  16
HETATM   16  C   UNL     1      -7.521   6.704  71.395  1.00  0.00    -0.088 C  
BRANCH  16  17
HETATM   17  C   UNL     1      -7.271   6.477  69.911  1.00  0.00    -0.077 C  
HETATM   18  C   UNL     1      -6.022   7.183  69.442  1.00  0.00    -0.026 C  
HETATM   19  O   UNL     1      -5.285   7.863  70.141  1.00  0.00    -0.023 OA 
HETATM   20  O   UNL     1      -5.789   6.988  68.123  1.00  0.00    -0.020 OA 
ENDBRANCH  16  17
ENDBRANCH  15  16
ENDBRANCH  14  15
ENDBRANCH  13  14
ENDBRANCH  11  12
ENDBRANCH  10  11
ENDBRANCH   8   9
ENDBRANCH   7   8
ENDBRANCH   5   6
ENDBRANCH   4   5
ENDBRANCH   3   4
ENDBRANCH   2   3
TORSDOF 12
ENDMDL
MODEL      415
REMARK 921   NORMALIZED FREE ENERGY PREDICTED BY IDOCK:   -2.38 KCAL/MOL
REMARK 922        TOTAL FREE ENERGY PREDICTED BY IDOCK:   -6.00 KCAL/MOL
REMARK 923 INTER-LIGAND FREE ENERGY PREDICTED BY IDOCK:   -4.67 KCAL/MOL
REMARK 924 INTRA-LIGAND FREE ENERGY PREDICTED BY IDOCK:   -1.33 KCAL/MOL
REMARK 927      BINDING AFFINITY PREDICTED BY RF-SCORE:    0.00 PKD
ROOT
HETATM    1  C   UNL     1     -12.026  13.010  63.510  1.00  0.00    -0.615 C  
HETATM    2  C   UNL     1     -12.410  14.159  64.425  1.00  0.00    -0.410 C  
ENDROOT
BRANCH   2   3
HETATM    3  C   UNL     1     -12.850  13.649  65.792  1.00  0.00    -0.390 C  
BRANCH   3   4
HETATM    4  C   UNL     1     -11.982  14.233  66.905  1.00  0.00    -0.467 C  
BRANCH   4   5
HETATM    5  C   UNL     1     -11.352  13.103  67.708  1.00  0.00    -0.326 C  
BRANCH   5   6
HETATM    6  C   UNL     1     -11.369  11.784  66.993  1.00  0.00    -0.387 C  
HETATM    7  C   UNL     1     -10.848  10.670  67.529  1.00  0.00    -0.351 C  
BRANCH   7   8
HETATM    8  C   UNL     1     -10.178  10.616  68.869  1.00  0.00    -0.216 C  
BRANCH   8   9
HETATM    9  C   UNL     1      -8.714  10.912  68.775  1.00  0.00    -0.158 C  
HETATM   10  C   UNL     1      -7.782  10.036  68.368  1.00  0.00    -0.084 C  
BRANCH  10  11
HETATM   11  C   UNL     1      -8.045   8.598  68.036  1.00  0.00    -0.111 C  
BRANCH  11  12
HETATM   12  C   UNL     1      -7.911   7.718  69.247  1.00  0.00    -0.116 C  
HETATM   13  C   UNL     1      -8.834   6.834  69.658  1.00  0.00    -0.144 C  
BRANCH  13  14
HETATM   14  C   UNL     1     -10.134   6.644  68.938  1.00  0.00    -0.178 C  
BRANCH  14  15
HETATM   15  C   UNL     1     -10.062   5.641  67.794  1.00  0.00    -0.209 C  
BRANCH  15  16
HETATM   16  C   UNL     1      -8.898   4.681  68.040  1.00  0.00    -0.118 C  
BRANCH  16  17
HETATM   17  C   UNL     1      -9.364   3.402  68.719  1.00  0.00    -0.234 C  
HETATM   18  C   UNL     1      -8.431   2.990  69.832  1.00  0.00    -0.053 C  
HETATM   19  O   UNL     1      -7.419   3.587  70.168  1.00  0.00    -0.041 OA 
HETATM   20  O   UNL     1      -8.837   1.853  70.444  1.00  0.00    -0.058 OA 
ENDBRANCH  16  17
ENDBRANCH  15  16
ENDBRANCH  14  15
ENDBRANCH  13  14
ENDBRANCH  11  12
ENDBRANCH  10  11
ENDBRANCH   8   9
ENDBRANCH   7   8
ENDBRANCH   5   6
ENDBRANCH   4   5
ENDBRANCH   3   4
ENDBRANCH   2   3
TORSDOF 12
ENDMDL
MODEL      416
REMARK 921   NORMALIZED FREE ENERGY PREDICTED BY IDOCK:   -2.37 KCAL/MOL
REMARK 922        TOTAL FREE ENERGY PREDICTED BY IDOCK:   -5.99 KCAL/MOL
REMARK 923 INTER-LIGAND FREE ENERGY PREDICTED BY IDOCK:   -4.37 KCAL/MOL
REMARK 924 INTRA-LIGAND FREE ENERGY PREDICTED BY IDOCK:   -1.61 KCAL/MOL
REMARK 927      BINDING AFFINITY PREDICTED BY RF-SCORE:    0.00 PKD
ROOT
HETATM    1  C   UNL     1      -9.314   9.742  64.770  1.00  0.00    -0.327 C  
HETATM    2  C   UNL     1      -9.240   8.695  65.867  1.00  0.00    -0.264 C  
ENDROOT
BRANCH   2   3
HETATM    3  C   UNL     1      -7.987   7.839  65.727  1.00  0.00    -0.114 C  
BRANCH   3   4
HETATM    4  C   UNL     1      -8.327   6.439  65.219  1.00  0.00    -0.131 C  
BRANCH   4   5
HETATM    5  C   UNL     1      -8.018   5.415  66.302  1.00  0.00    -0.105 C  
BRANCH   5   6
HETATM    6  C   UNL     1      -9.228   4.666  66.776  1.00  0.00    -0.130 C  
HETATM    7  C   UNL     1      -9.766   4.862  67.990  1.00  0.00    -0.202 C  
BRANCH   7   8
HETATM    8  C   UNL     1      -9.216   5.817  69.007  1.00  0.00    -0.133 C  
BRANCH   8   9
HETATM    9  C   UNL     1      -9.845   7.172  68.900  1.00  0.00    -0.156 C  
HETATM   10  C   UNL     1     -10.946   7.557  69.563  1.00  0.00    -0.127 C  
BRANCH  10  11
HETATM   11  C   UNL     1     -11.773   6.667  70.439  1.00  0.00    -0.446 C  
BRANCH  11  12
HETATM   12  C   UNL     1     -12.753   7.456  71.262  1.00  0.00    -0.371 C  
HETATM   13  C   UNL     1     -12.430   8.204  72.329  1.00  0.00    -0.345 C  
BRANCH  13  14
HETATM   14  C   UNL     1     -11.023   8.318  72.828  1.00  0.00    -0.309 C  
BRANCH  14  15
HETATM   15  C   UNL     1     -10.624   7.215  73.800  1.00  0.00    -0.303 C  
BRANCH  15  16
HETATM   16  C   UNL     1      -9.099   7.105  73.837  1.00  0.00    -0.252 C  
BRANCH  16  17
HETATM   17  C   UNL     1      -8.449   8.022  72.810  1.00  0.00    -0.237 C  
HETATM   18  C   UNL     1      -7.097   8.508  73.275  1.00  0.00    -0.007 C  
HETATM   19  O   UNL     1      -6.566   8.221  74.337  1.00  0.00    -0.115 OA 
HETATM   20  O   UNL     1      -6.508   9.323  72.370  1.00  0.00    -0.299 OA 
ENDBRANCH  16  17
ENDBRANCH  15  16
ENDBRANCH  14  15
ENDBRANCH  13  14
ENDBRANCH  11  12
ENDBRANCH  10  11
ENDBRANCH   8   9
ENDBRANCH   7   8
ENDBRANCH   5   6
ENDBRANCH   4   5
ENDBRANCH   3   4
ENDBRANCH   2   3
TORSDOF 12
ENDMDL
MODEL      417
REMARK 921   NORMALIZED FREE ENERGY PREDICTED BY IDOCK:   -2.36 KCAL/MOL
REMARK 922        TOTAL FREE ENERGY PREDICTED BY IDOCK:   -5.97 KCAL/MOL
REMARK 923 INTER-LIGAND FREE ENERGY PREDICTED BY IDOCK:   -4.43 KCAL/MOL
REMARK 924 INTRA-LIGAND FREE ENERGY PREDICTED BY IDOCK:   -1.55 KCAL/MOL
REMARK 927      BINDING AFFINITY PREDICTED BY RF-SCORE:    0.00 PKD
ROOT
HETATM    1  C   UNL     1     -12.444  14.312  70.725  1.00  0.00    -0.428 C  
HETATM    2  C   UNL     1     -11.435  14.276  69.591  1.00  0.00    -0.334 C  
ENDROOT
BRANCH   2   3
HETATM    3  C   UNL     1     -12.094  13.857  68.282  1.00  0.00    -0.322 C  
BRANCH   3   4
HETATM    4  C   UNL     1     -11.424  12.614  67.699  1.00  0.00    -0.390 C  
BRANCH   4   5
HETATM    5  C   UNL     1     -10.719  11.847  68.809  1.00  0.00    -0.257 C  
BRANCH   5   6
HETATM    6  C   UNL     1     -11.573  10.785  69.435  1.00  0.00    -0.380 C  
HETATM    7  C   UNL     1     -11.079   9.876  70.290  1.00  0.00    -0.368 C  
BRANCH   7   8
HETATM    8  C   UNL     1      -9.637   9.801  70.695  1.00  0.00    -0.097 C  
BRANCH   8   9
HETATM    9  C   UNL     1      -8.876   8.809  69.872  1.00  0.00    -0.143 C  
HETATM   10  C   UNL     1      -8.675   7.527  70.213  1.00  0.00    -0.145 C  
BRANCH  10  11
HETATM   11  C   UNL     1      -9.097   6.910  71.512  1.00  0.00    -0.144 C  
BRANCH  11  12
HETATM   12  C   UNL     1     -10.400   6.172  71.377  1.00  0.00    -0.260 C  
HETATM   13  C   UNL     1     -10.514   4.846  71.201  1.00  0.00    -0.161 C  
BRANCH  13  14
HETATM   14  C   UNL     1      -9.319   3.947  71.105  1.00  0.00    -0.216 C  
BRANCH  14  15
HETATM   15  C   UNL     1      -9.195   3.230  69.768  1.00  0.00    -0.221 C  
BRANCH  15  16
HETATM   16  C   UNL     1      -8.467   4.138  68.777  1.00  0.00    -0.098 C  
BRANCH  16  17
HETATM   17  C   UNL     1      -9.418   4.694  67.726  1.00  0.00    -0.190 C  
HETATM   18  C   UNL     1      -8.750   4.813  66.378  1.00  0.00    -0.112 C  
HETATM   19  O   UNL     1      -7.591   4.511  66.130  1.00  0.00    -0.087 OA 
HETATM   20  O   UNL     1      -9.586   5.305  65.435  1.00  0.00    -0.076 OA 
ENDBRANCH  16  17
ENDBRANCH  15  16
ENDBRANCH  14  15
ENDBRANCH  13  14
ENDBRANCH  11  12
ENDBRANCH  10  11
ENDBRANCH   8   9
ENDBRANCH   7   8
ENDBRANCH   5   6
ENDBRANCH   4   5
ENDBRANCH   3   4
ENDBRANCH   2   3
TORSDOF 12
ENDMDL
MODEL      418
REMARK 921   NORMALIZED FREE ENERGY PREDICTED BY IDOCK:   -2.36 KCAL/MOL
REMARK 922        TOTAL FREE ENERGY PREDICTED BY IDOCK:   -5.97 KCAL/MOL
REMARK 923 INTER-LIGAND FREE ENERGY PREDICTED BY IDOCK:   -4.47 KCAL/MOL
REMARK 924 INTRA-LIGAND FREE ENERGY PREDICTED BY IDOCK:   -1.50 KCAL/MOL
REMARK 927      BINDING AFFINITY PREDICTED BY RF-SCORE:    0.00 PKD
ROOT
HETATM    1  C   UNL     1      -6.385   4.336  69.365  1.00  0.00    -0.028 C  
HETATM    2  C   UNL     1      -7.066   3.053  68.924  1.00  0.00    -0.048 C  
ENDROOT
BRANCH   2   3
HETATM    3  C   UNL     1      -8.518   3.307  68.535  1.00  0.00    -0.105 C  
BRANCH   3   4
HETATM    4  C   UNL     1      -8.716   3.179  67.026  1.00  0.00    -0.136 C  
BRANCH   4   5
HETATM    5  C   UNL     1      -9.020   4.548  66.434  1.00  0.00    -0.115 C  
BRANCH   5   6
HETATM    6  C   UNL     1      -7.843   5.478  66.447  1.00  0.00    -0.100 C  
HETATM    7  C   UNL     1      -7.929   6.741  66.892  1.00  0.00    -0.109 C  
BRANCH   7   8
HETATM    8  C   UNL     1      -9.193   7.369  67.398  1.00  0.00    -0.146 C  
BRANCH   8   9
HETATM    9  C   UNL     1      -9.675   8.461  66.493  1.00  0.00    -0.330 C  
HETATM   10  C   UNL     1     -10.308   9.570  66.905  1.00  0.00    -0.307 C  
BRANCH  10  11
HETATM   11  C   UNL     1     -10.716   9.848  68.320  1.00  0.00    -0.276 C  
BRANCH  11  12
HETATM   12  C   UNL     1      -9.571  10.387  69.131  1.00  0.00    -0.226 C  
HETATM   13  C   UNL     1      -9.096   9.825  70.253  1.00  0.00    -0.208 C  
BRANCH  13  14
HETATM   14  C   UNL     1      -9.687   8.576  70.833  1.00  0.00    -0.231 C  
BRANCH  14  15
HETATM   15  C   UNL     1      -9.748   8.574  72.355  1.00  0.00    -0.357 C  
BRANCH  15  16
HETATM   16  C   UNL     1     -10.898   7.675  72.810  1.00  0.00    -0.416 C  
BRANCH  16  17
HETATM   17  C   UNL     1     -12.249   8.327  72.558  1.00  0.00    -0.367 C  
HETATM   18  C   UNL     1     -13.025   7.602  71.484  1.00  0.00    -0.341 C  
HETATM   19  O   UNL     1     -12.642   6.615  70.874  1.00  0.00    -0.285 OA 
HETATM   20  O   UNL     1     -14.230   8.173  71.251  1.00  0.00    -0.337 OA 
ENDBRANCH  16  17
ENDBRANCH  15  16
ENDBRANCH  14  15
ENDBRANCH  13  14
ENDBRANCH  11  12
ENDBRANCH  10  11
ENDBRANCH   8   9
ENDBRANCH   7   8
ENDBRANCH   5   6
ENDBRANCH   4   5
ENDBRANCH   3   4
ENDBRANCH   2   3
TORSDOF 12
ENDMDL
MODEL      419
REMARK 921   NORMALIZED FREE ENERGY PREDICTED BY IDOCK:   -2.35 KCAL/MOL
REMARK 922        TOTAL FREE ENERGY PREDICTED BY IDOCK:   -5.95 KCAL/MOL
REMARK 923 INTER-LIGAND FREE ENERGY PREDICTED BY IDOCK:   -4.58 KCAL/MOL
REMARK 924 INTRA-LIGAND FREE ENERGY PREDICTED BY IDOCK:   -1.37 KCAL/MOL
REMARK 927      BINDING AFFINITY PREDICTED BY RF-SCORE:    0.00 PKD
ROOT
HETATM    1  C   UNL     1      -9.196   9.821  70.063  1.00  0.00    -0.266 C  
HETATM    2  C   UNL     1     -10.669   9.849  70.428  1.00  0.00    -0.379 C  
ENDROOT
BRANCH   2   3
HETATM    3  C   UNL     1     -11.531  10.164  69.212  1.00  0.00    -0.168 C  
BRANCH   3   4
HETATM    4  C   UNL     1     -10.940   9.552  67.943  1.00  0.00    -0.172 C  
BRANCH   4   5
HETATM    5  C   UNL     1     -10.644  10.655  66.936  1.00  0.00    -0.311 C  
BRANCH   5   6
HETATM    6  C   UNL     1     -11.342  11.947  67.244  1.00  0.00    -0.393 C  
HETATM    7  C   UNL     1     -12.100  12.588  66.341  1.00  0.00    -0.279 C  
BRANCH   7   8
HETATM    8  C   UNL     1     -12.315  12.112  64.935  1.00  0.00    -0.259 C  
BRANCH   8   9
HETATM    9  C   UNL     1     -11.524  12.912  63.947  1.00  0.00    -0.504 C  
HETATM   10  C   UNL     1     -10.300  12.587  63.506  1.00  0.00    -0.311 C  
BRANCH  10  11
HETATM   11  C   UNL     1      -9.491  11.427  64.002  1.00  0.00    -0.159 C  
BRANCH  11  12
HETATM   12  C   UNL     1      -9.460  10.306  63.001  1.00  0.00    -0.331 C  
HETATM   13  C   UNL     1      -8.615   9.264  63.044  1.00  0.00    -0.217 C  
BRANCH  13  14
HETATM   14  C   UNL     1      -7.579   9.119  64.117  1.00  0.00    -0.113 C  
BRANCH  14  15
HETATM   15  C   UNL     1      -8.160   9.004  65.520  1.00  0.00    -0.110 C  
BRANCH  15  16
HETATM   16  C   UNL     1      -7.157   9.568  66.527  1.00  0.00    -0.085 C  
BRANCH  16  17
HETATM   17  C   UNL     1      -7.225  11.087  66.590  1.00  0.00    -0.143 C  
HETATM   18  C   UNL     1      -6.045  11.667  67.332  1.00  0.00    -0.097 C  
HETATM   19  O   UNL     1      -5.134  11.023  67.832  1.00  0.00    -0.040 OA 
HETATM   20  O   UNL     1      -6.093  13.018  67.394  1.00  0.00    -0.242 OA 
ENDBRANCH  16  17
ENDBRANCH  15  16
ENDBRANCH  14  15
ENDBRANCH  13  14
ENDBRANCH  11  12
ENDBRANCH  10  11
ENDBRANCH   8   9
ENDBRANCH   7   8
ENDBRANCH   5   6
ENDBRANCH   4   5
ENDBRANCH   3   4
ENDBRANCH   2   3
TORSDOF 12
ENDMDL
MODEL      420
REMARK 921   NORMALIZED FREE ENERGY PREDICTED BY IDOCK:   -2.34 KCAL/MOL
REMARK 922        TOTAL FREE ENERGY PREDICTED BY IDOCK:   -5.94 KCAL/MOL
REMARK 923 INTER-LIGAND FREE ENERGY PREDICTED BY IDOCK:   -5.29 KCAL/MOL
REMARK 924 INTRA-LIGAND FREE ENERGY PREDICTED BY IDOCK:   -0.65 KCAL/MOL
REMARK 927      BINDING AFFINITY PREDICTED BY RF-SCORE:    0.00 PKD
ROOT
HETATM    1  C   UNL     1      -8.049   6.579  69.767  1.00  0.00    -0.125 C  
HETATM    2  C   UNL     1      -8.125   8.075  70.014  1.00  0.00    -0.116 C  
ENDROOT
BRANCH   2   3
HETATM    3  C   UNL     1      -7.512   8.855  68.857  1.00  0.00    -0.082 C  
BRANCH   3   4
HETATM    4  C   UNL     1      -8.244  10.177  68.633  1.00  0.00    -0.111 C  
BRANCH   4   5
HETATM    5  C   UNL     1      -9.667   9.899  68.169  1.00  0.00    -0.161 C  
BRANCH   5   6
HETATM    6  C   UNL     1      -9.744   9.364  66.769  1.00  0.00    -0.257 C  
HETATM    7  C   UNL     1      -9.989  10.152  65.711  1.00  0.00    -0.339 C  
BRANCH   7   8
HETATM    8  C   UNL     1     -10.237  11.628  65.802  1.00  0.00    -0.281 C  
BRANCH   8   9
HETATM    9  C   UNL     1     -11.540  12.017  65.175  1.00  0.00    -0.330 C  
HETATM   10  C   UNL     1     -12.221  13.137  65.461  1.00  0.00    -0.513 C  
BRANCH  10  11
HETATM   11  C   UNL     1     -11.836  14.126  66.519  1.00  0.00    -0.439 C  
BRANCH  11  12
HETATM   12  C   UNL     1     -12.263  13.670  67.885  1.00  0.00    -0.185 C  
HETATM   13  C   UNL     1     -11.533  13.811  69.003  1.00  0.00    -0.349 C  
BRANCH  13  14
HETATM   14  C   UNL     1     -10.175  14.444  68.995  1.00  0.00    -0.185 C  
BRANCH  14  15
HETATM   15  C   UNL     1     -10.079  15.684  68.117  1.00  0.00    -0.222 C  
BRANCH  15  16
HETATM   16  C   UNL     1      -9.528  16.845  68.945  1.00  0.00    -0.241 C  
BRANCH  16  17
HETATM   17  C   UNL     1      -8.623  17.742  68.115  1.00  0.00    -0.262 C  
HETATM   18  C   UNL     1      -9.031  19.192  68.216  1.00  0.00    -0.336 C  
HETATM   19  O   UNL     1      -9.969  19.622  68.872  1.00  0.00    -0.447 OA 
HETATM   20  O   UNL     1      -8.232  20.001  67.483  1.00  0.00    -0.310 OA 
ENDBRANCH  16  17
ENDBRANCH  15  16
ENDBRANCH  14  15
ENDBRANCH  13  14
ENDBRANCH  11  12
ENDBRANCH  10  11
ENDBRANCH   8   9
ENDBRANCH   7   8
ENDBRANCH   5   6
ENDBRANCH   4   5
ENDBRANCH   3   4
ENDBRANCH   2   3
TORSDOF 12
ENDMDL
MODEL      421
REMARK 921   NORMALIZED FREE ENERGY PREDICTED BY IDOCK:   -2.34 KCAL/MOL
REMARK 922        TOTAL FREE ENERGY PREDICTED BY IDOCK:   -5.93 KCAL/MOL
REMARK 923 INTER-LIGAND FREE ENERGY PREDICTED BY IDOCK:   -3.60 KCAL/MOL
REMARK 924 INTRA-LIGAND FREE ENERGY PREDICTED BY IDOCK:   -2.33 KCAL/MOL
REMARK 927      BINDING AFFINITY PREDICTED BY RF-SCORE:    0.00 PKD
ROOT
HETATM    1  C   UNL     1     -11.110   2.983  73.405  1.00  0.00    -0.285 C  
HETATM    2  C   UNL     1     -11.382   4.472  73.517  1.00  0.00    -0.355 C  
ENDROOT
BRANCH   2   3
HETATM    3  C   UNL     1     -11.003   5.198  72.232  1.00  0.00    -0.209 C  
BRANCH   3   4
HETATM    4  C   UNL     1     -11.206   6.706  72.369  1.00  0.00    -0.302 C  
BRANCH   4   5
HETATM    5  C   UNL     1      -9.856   7.409  72.321  1.00  0.00    -0.203 C  
BRANCH   5   6
HETATM    6  C   UNL     1      -9.353   7.826  73.671  1.00  0.00    -0.336 C  
HETATM    7  C   UNL     1      -8.176   7.408  74.161  1.00  0.00    -0.209 C  
BRANCH   7   8
HETATM    8  C   UNL     1      -7.251   6.473  73.441  1.00  0.00    -0.081 C  
BRANCH   8   9
HETATM    9  C   UNL     1      -7.460   5.050  73.858  1.00  0.00    -0.087 C  
HETATM   10  C   UNL     1      -7.531   4.009  73.014  1.00  0.00    -0.074 C  
BRANCH  10  11
HETATM   11  C   UNL     1      -7.510   4.116  71.519  1.00  0.00    -0.059 C  
BRANCH  11  12
HETATM   12  C   UNL     1      -8.224   2.963  70.872  1.00  0.00    -0.072 C  
HETATM   13  C   UNL     1      -8.966   3.050  69.757  1.00  0.00    -0.172 C  
BRANCH  13  14
HETATM   14  C   UNL     1      -9.173   4.346  69.034  1.00  0.00    -0.201 C  
BRANCH  14  15
HETATM   15  C   UNL     1      -7.983   4.774  68.186  1.00  0.00    -0.085 C  
BRANCH  15  16
HETATM   16  C   UNL     1      -8.488   5.303  66.843  1.00  0.00    -0.106 C  
BRANCH  16  17
HETATM   17  C   UNL     1      -9.855   4.732  66.497  1.00  0.00    -0.235 C  
HETATM   18  C   UNL     1     -10.012   4.527  65.009  1.00  0.00    -0.095 C  
HETATM   19  O   UNL     1      -9.166   4.781  64.164  1.00  0.00    -0.117 OA 
HETATM   20  O   UNL     1     -11.224   4.017  64.688  1.00  0.00    -0.318 OA 
ENDBRANCH  16  17
ENDBRANCH  15  16
ENDBRANCH  14  15
ENDBRANCH  13  14
ENDBRANCH  11  12
ENDBRANCH  10  11
ENDBRANCH   8   9
ENDBRANCH   7   8
ENDBRANCH   5   6
ENDBRANCH   4   5
ENDBRANCH   3   4
ENDBRANCH   2   3
TORSDOF 12
ENDMDL
MODEL      422
REMARK 921   NORMALIZED FREE ENERGY PREDICTED BY IDOCK:   -2.33 KCAL/MOL
REMARK 922        TOTAL FREE ENERGY PREDICTED BY IDOCK:   -5.92 KCAL/MOL
REMARK 923 INTER-LIGAND FREE ENERGY PREDICTED BY IDOCK:   -4.56 KCAL/MOL
REMARK 924 INTRA-LIGAND FREE ENERGY PREDICTED BY IDOCK:   -1.36 KCAL/MOL
REMARK 927      BINDING AFFINITY PREDICTED BY RF-SCORE:    0.00 PKD
ROOT
HETATM    1  C   UNL     1      -9.934  16.678  68.986  1.00  0.00    -0.280 C  
HETATM    2  C   UNL     1     -10.628  17.316  67.795  1.00  0.00    -0.367 C  
ENDROOT
BRANCH   2   3
HETATM    3  C   UNL     1     -10.053  16.799  66.482  1.00  0.00    -0.322 C  
BRANCH   3   4
HETATM    4  C   UNL     1     -11.144  16.648  65.423  1.00  0.00     0.014 C  
BRANCH   4   5
HETATM    5  C   UNL     1     -11.019  15.287  64.753  1.00  0.00    -0.403 C  
BRANCH   5   6
HETATM    6  C   UNL     1     -12.256  14.447  64.874  1.00  0.00    -0.440 C  
HETATM    7  C   UNL     1     -12.374  13.470  65.786  1.00  0.00    -0.516 C  
BRANCH   7   8
HETATM    8  C   UNL     1     -11.296  13.091  66.757  1.00  0.00    -0.365 C  
BRANCH   8   9
HETATM    9  C   UNL     1     -11.809  13.017  68.161  1.00  0.00    -0.381 C  
HETATM   10  C   UNL     1     -11.415  12.113  69.072  1.00  0.00    -0.351 C  
BRANCH  10  11
HETATM   11  C   UNL     1     -10.474  10.979  68.800  1.00  0.00    -0.222 C  
BRANCH  11  12
HETATM   12  C   UNL     1      -9.040  11.397  68.972  1.00  0.00     0.069 C  
HETATM   13  C   UNL     1      -8.100  10.670  69.596  1.00  0.00     0.015 C  
BRANCH  13  14
HETATM   14  C   UNL     1      -8.399   9.338  70.213  1.00  0.00    -0.204 C  
BRANCH  14  15
HETATM   15  C   UNL     1      -7.751   8.165  69.489  1.00  0.00    -0.102 C  
BRANCH  15  16
HETATM   16  C   UNL     1      -8.735   6.996  69.447  1.00  0.00    -0.133 C  
BRANCH  16  17
HETATM   17  C   UNL     1      -9.548   6.904  70.730  1.00  0.00    -0.167 C  
HETATM   18  C   UNL     1      -8.967   5.890  71.686  1.00  0.00    -0.139 C  
HETATM   19  O   UNL     1      -7.972   5.210  71.482  1.00  0.00    -0.107 OA 
HETATM   20  O   UNL     1      -9.682   5.800  72.832  1.00  0.00    -0.155 OA 
ENDBRANCH  16  17
ENDBRANCH  15  16
ENDBRANCH  14  15
ENDBRANCH  13  14
ENDBRANCH  11  12
ENDBRANCH  10  11
ENDBRANCH   8   9
ENDBRANCH   7   8
ENDBRANCH   5   6
ENDBRANCH   4   5
ENDBRANCH   3   4
ENDBRANCH   2   3
TORSDOF 12
ENDMDL
MODEL      423
REMARK 921   NORMALIZED FREE ENERGY PREDICTED BY IDOCK:   -2.33 KCAL/MOL
REMARK 922        TOTAL FREE ENERGY PREDICTED BY IDOCK:   -5.91 KCAL/MOL
REMARK 923 INTER-LIGAND FREE ENERGY PREDICTED BY IDOCK:   -4.01 KCAL/MOL
REMARK 924 INTRA-LIGAND FREE ENERGY PREDICTED BY IDOCK:   -1.91 KCAL/MOL
REMARK 927      BINDING AFFINITY PREDICTED BY RF-SCORE:    0.00 PKD
ROOT
HETATM    1  C   UNL     1      -8.215   9.521  64.322  1.00  0.00    -0.157 C  
HETATM    2  C   UNL     1      -8.808   8.717  65.465  1.00  0.00    -0.229 C  
ENDROOT
BRANCH   2   3
HETATM    3  C   UNL     1      -7.877   7.585  65.882  1.00  0.00    -0.107 C  
BRANCH   3   4
HETATM    4  C   UNL     1      -8.078   6.353  65.002  1.00  0.00    -0.135 C  
BRANCH   4   5
HETATM    5  C   UNL     1      -8.495   5.171  65.867  1.00  0.00    -0.121 C  
BRANCH   5   6
HETATM    6  C   UNL     1      -9.982   5.033  66.010  1.00  0.00    -0.220 C  
HETATM    7  C   UNL     1     -10.619   5.283  67.164  1.00  0.00    -0.227 C  
BRANCH   7   8
HETATM    8  C   UNL     1      -9.932   5.698  68.431  1.00  0.00    -0.201 C  
BRANCH   8   9
HETATM    9  C   UNL     1     -10.090   7.162  68.700  1.00  0.00    -0.177 C  
HETATM   10  C   UNL     1     -10.908   7.684  69.627  1.00  0.00    -0.195 C  
BRANCH  10  11
HETATM   11  C   UNL     1     -11.860   6.894  70.471  1.00  0.00    -0.385 C  
BRANCH  11  12
HETATM   12  C   UNL     1     -12.253   7.644  71.713  1.00  0.00    -0.341 C  
HETATM   13  C   UNL     1     -11.473   7.798  72.794  1.00  0.00    -0.415 C  
BRANCH  13  14
HETATM   14  C   UNL     1     -10.099   7.207  72.878  1.00  0.00    -0.247 C  
BRANCH  14  15
HETATM   15  C   UNL     1     -10.084   5.739  73.285  1.00  0.00    -0.202 C  
BRANCH  15  16
HETATM   16  C   UNL     1      -9.226   4.952  72.295  1.00  0.00    -0.151 C  
BRANCH  16  17
HETATM   17  C   UNL     1      -9.987   3.768  71.715  1.00  0.00    -0.227 C  
HETATM   18  C   UNL     1      -9.050   2.692  71.223  1.00  0.00    -0.108 C  
HETATM   19  O   UNL     1      -7.830   2.737  71.266  1.00  0.00    -0.043 OA 
HETATM   20  O   UNL     1      -9.715   1.632  70.706  1.00  0.00    -0.116 OA 
ENDBRANCH  16  17
ENDBRANCH  15  16
ENDBRANCH  14  15
ENDBRANCH  13  14
ENDBRANCH  11  12
ENDBRANCH  10  11
ENDBRANCH   8   9
ENDBRANCH   7   8
ENDBRANCH   5   6
ENDBRANCH   4   5
ENDBRANCH   3   4
ENDBRANCH   2   3
TORSDOF 12
ENDMDL
MODEL      424
REMARK 921   NORMALIZED FREE ENERGY PREDICTED BY IDOCK:   -2.32 KCAL/MOL
REMARK 922        TOTAL FREE ENERGY PREDICTED BY IDOCK:   -5.91 KCAL/MOL
REMARK 923 INTER-LIGAND FREE ENERGY PREDICTED BY IDOCK:   -4.81 KCAL/MOL
REMARK 924 INTRA-LIGAND FREE ENERGY PREDICTED BY IDOCK:   -1.10 KCAL/MOL
REMARK 927      BINDING AFFINITY PREDICTED BY RF-SCORE:    0.00 PKD
ROOT
HETATM    1  C   UNL     1     -10.916  15.626  70.185  1.00  0.00    -0.350 C  
HETATM    2  C   UNL     1     -11.080  15.317  71.663  1.00  0.00    -0.251 C  
ENDROOT
BRANCH   2   3
HETATM    3  C   UNL     1     -12.498  15.620  72.133  1.00  0.00    -0.509 C  
BRANCH   3   4
HETATM    4  C   UNL     1     -13.113  14.415  72.842  1.00  0.00    -0.612 C  
BRANCH   4   5
HETATM    5  C   UNL     1     -13.758  13.494  71.816  1.00  0.00    -0.379 C  
BRANCH   5   6
HETATM    6  C   UNL     1     -13.310  12.067  71.931  1.00  0.00    -0.408 C  
HETATM    7  C   UNL     1     -12.478  11.501  71.042  1.00  0.00    -0.458 C  
BRANCH   7   8
HETATM    8  C   UNL     1     -11.928  12.207  69.839  1.00  0.00    -0.380 C  
BRANCH   8   9
HETATM    9  C   UNL     1     -11.781  11.284  68.668  1.00  0.00    -0.391 C  
HETATM   10  C   UNL     1     -10.961  10.224  68.629  1.00  0.00    -0.289 C  
BRANCH  10  11
HETATM   11  C   UNL     1      -9.992   9.850  69.711  1.00  0.00    -0.275 C  
BRANCH  11  12
HETATM   12  C   UNL     1      -8.666  10.533  69.526  1.00  0.00    -0.040 C  
HETATM   13  C   UNL     1      -7.652  10.050  68.791  1.00  0.00    -0.083 C  
BRANCH  13  14
HETATM   14  C   UNL     1      -7.740   8.738  68.073  1.00  0.00    -0.101 C  
BRANCH  14  15
HETATM   15  C   UNL     1      -7.610   8.855  66.560  1.00  0.00    -0.092 C  
BRANCH  15  16
HETATM   16  C   UNL     1      -6.309   8.185  66.115  1.00  0.00    -0.046 C  
BRANCH  16  17
HETATM   17  C   UNL     1      -6.572   6.839  65.456  1.00  0.00    -0.051 C  
HETATM   18  C   UNL     1      -5.941   6.757  64.087  1.00  0.00    -0.035 C  
HETATM   19  O   UNL     1      -5.297   7.644  63.547  1.00  0.00    -0.037 OA 
HETATM   20  O   UNL     1      -6.167   5.563  63.490  1.00  0.00    -0.021 OA 
ENDBRANCH  16  17
ENDBRANCH  15  16
ENDBRANCH  14  15
ENDBRANCH  13  14
ENDBRANCH  11  12
ENDBRANCH  10  11
ENDBRANCH   8   9
ENDBRANCH   7   8
ENDBRANCH   5   6
ENDBRANCH   4   5
ENDBRANCH   3   4
ENDBRANCH   2   3
TORSDOF 12
ENDMDL
MODEL      425
REMARK 921   NORMALIZED FREE ENERGY PREDICTED BY IDOCK:   -2.32 KCAL/MOL
REMARK 922        TOTAL FREE ENERGY PREDICTED BY IDOCK:   -5.90 KCAL/MOL
REMARK 923 INTER-LIGAND FREE ENERGY PREDICTED BY IDOCK:   -4.45 KCAL/MOL
REMARK 924 INTRA-LIGAND FREE ENERGY PREDICTED BY IDOCK:   -1.46 KCAL/MOL
REMARK 927      BINDING AFFINITY PREDICTED BY RF-SCORE:    0.00 PKD
ROOT
HETATM    1  C   UNL     1      -5.899  10.446  64.225  1.00  0.00    -0.121 C  
HETATM    2  C   UNL     1      -6.207   9.894  62.845  1.00  0.00    -0.119 C  
ENDROOT
BRANCH   2   3
HETATM    3  C   UNL     1      -7.550  10.406  62.336  1.00  0.00    -0.166 C  
BRANCH   3   4
HETATM    4  C   UNL     1      -8.687   9.471  62.745  1.00  0.00    -0.232 C  
BRANCH   4   5
HETATM    5  C   UNL     1      -9.888  10.294  63.190  1.00  0.00    -0.099 C  
BRANCH   5   6
HETATM    6  C   UNL     1      -9.677  10.996  64.499  1.00  0.00    -0.323 C  
HETATM    7  C   UNL     1     -10.437  12.031  64.890  1.00  0.00    -0.325 C  
BRANCH   7   8
HETATM    8  C   UNL     1     -11.548  12.615  64.071  1.00  0.00    -0.486 C  
BRANCH   8   9
HETATM    9  C   UNL     1     -12.774  12.872  64.892  1.00  0.00    -0.474 C  
HETATM   10  C   UNL     1     -12.809  13.641  65.991  1.00  0.00    -0.242 C  
BRANCH  10  11
HETATM   11  C   UNL     1     -11.613  14.285  66.624  1.00  0.00    -0.397 C  
BRANCH  11  12
HETATM   12  C   UNL     1     -11.789  14.439  68.109  1.00  0.00    -0.362 C  
HETATM   13  C   UNL     1     -11.220  13.649  69.034  1.00  0.00    -0.316 C  
BRANCH  13  14
HETATM   14  C   UNL     1     -10.340  12.495  68.666  1.00  0.00    -0.193 C  
BRANCH  14  15
HETATM   15  C   UNL     1      -8.878  12.875  68.468  1.00  0.00    -0.044 C  
BRANCH  15  16
HETATM   16  C   UNL     1      -8.186  11.793  67.638  1.00  0.00    -0.145 C  
BRANCH  16  17
HETATM   17  C   UNL     1      -8.830  10.431  67.849  1.00  0.00    -0.125 C  
HETATM   18  C   UNL     1      -7.797   9.334  67.937  1.00  0.00    -0.092 C  
HETATM   19  O   UNL     1      -6.587   9.489  67.851  1.00  0.00    -0.061 OA 
HETATM   20  O   UNL     1      -8.357   8.117  68.126  1.00  0.00    -0.127 OA 
ENDBRANCH  16  17
ENDBRANCH  15  16
ENDBRANCH  14  15
ENDBRANCH  13  14
ENDBRANCH  11  12
ENDBRANCH  10  11
ENDBRANCH   8   9
ENDBRANCH   7   8
ENDBRANCH   5   6
ENDBRANCH   4   5
ENDBRANCH   3   4
ENDBRANCH   2   3
TORSDOF 12
ENDMDL
MODEL      426
REMARK 921   NORMALIZED FREE ENERGY PREDICTED BY IDOCK:   -2.32 KCAL/MOL
REMARK 922        TOTAL FREE ENERGY PREDICTED BY IDOCK:   -5.90 KCAL/MOL
REMARK 923 INTER-LIGAND FREE ENERGY PREDICTED BY IDOCK:   -3.93 KCAL/MOL
REMARK 924 INTRA-LIGAND FREE ENERGY PREDICTED BY IDOCK:   -1.97 KCAL/MOL
REMARK 927      BINDING AFFINITY PREDICTED BY RF-SCORE:    0.00 PKD
ROOT
HETATM    1  C   UNL     1      -9.651   9.590  70.395  1.00  0.00    -0.326 C  
HETATM    2  C   UNL     1     -11.099   9.950  70.679  1.00  0.00    -0.409 C  
ENDROOT
BRANCH   2   3
HETATM    3  C   UNL     1     -11.764  10.561  69.451  1.00  0.00    -0.295 C  
BRANCH   3   4
HETATM    4  C   UNL     1     -10.725  10.990  68.416  1.00  0.00    -0.240 C  
BRANCH   4   5
HETATM    5  C   UNL     1     -11.003  10.289  67.093  1.00  0.00    -0.233 C  
BRANCH   5   6
HETATM    6  C   UNL     1      -9.801   9.599  66.520  1.00  0.00    -0.298 C  
HETATM    7  C   UNL     1      -9.557   8.295  66.722  1.00  0.00    -0.288 C  
BRANCH   7   8
HETATM    8  C   UNL     1     -10.427   7.395  67.549  1.00  0.00    -0.338 C  
BRANCH   8   9
HETATM    9  C   UNL     1     -11.159   6.397  66.708  1.00  0.00    -0.241 C  
HETATM   10  C   UNL     1     -10.733   5.149  66.459  1.00  0.00    -0.262 C  
BRANCH  10  11
HETATM   11  C   UNL     1      -9.416   4.589  66.904  1.00  0.00    -0.190 C  
BRANCH  11  12
HETATM   12  C   UNL     1      -9.568   3.210  67.482  1.00  0.00    -0.091 C  
HETATM   13  C   UNL     1      -8.987   2.787  68.616  1.00  0.00    -0.188 C  
BRANCH  13  14
HETATM   14  C   UNL     1      -8.094   3.669  69.434  1.00  0.00    -0.063 C  
BRANCH  14  15
HETATM   15  C   UNL     1      -8.816   4.410  70.551  1.00  0.00    -0.136 C  
BRANCH  15  16
HETATM   16  C   UNL     1      -7.912   5.522  71.082  1.00  0.00    -0.111 C  
BRANCH  16  17
HETATM   17  C   UNL     1      -7.949   6.749  70.182  1.00  0.00    -0.112 C  
HETATM   18  C   UNL     1      -6.580   7.080  69.637  1.00  0.00    -0.045 C  
HETATM   19  O   UNL     1      -5.552   6.463  69.874  1.00  0.00    -0.013 OA 
HETATM   20  O   UNL     1      -6.600   8.169  68.834  1.00  0.00    -0.047 OA 
ENDBRANCH  16  17
ENDBRANCH  15  16
ENDBRANCH  14  15
ENDBRANCH  13  14
ENDBRANCH  11  12
ENDBRANCH  10  11
ENDBRANCH   8   9
ENDBRANCH   7   8
ENDBRANCH   5   6
ENDBRANCH   4   5
ENDBRANCH   3   4
ENDBRANCH   2   3
TORSDOF 12
ENDMDL
MODEL      427
REMARK 921   NORMALIZED FREE ENERGY PREDICTED BY IDOCK:   -2.31 KCAL/MOL
REMARK 922        TOTAL FREE ENERGY PREDICTED BY IDOCK:   -5.89 KCAL/MOL
REMARK 923 INTER-LIGAND FREE ENERGY PREDICTED BY IDOCK:   -4.56 KCAL/MOL
REMARK 924 INTRA-LIGAND FREE ENERGY PREDICTED BY IDOCK:   -1.33 KCAL/MOL
REMARK 927      BINDING AFFINITY PREDICTED BY RF-SCORE:    0.00 PKD
ROOT
HETATM    1  C   UNL     1      -9.944   9.073  66.264  1.00  0.00    -0.352 C  
HETATM    2  C   UNL     1      -8.606   9.560  66.791  1.00  0.00    -0.133 C  
ENDROOT
BRANCH   2   3
HETATM    3  C   UNL     1      -7.455   9.015  65.955  1.00  0.00    -0.094 C  
BRANCH   3   4
HETATM    4  C   UNL     1      -7.832   7.690  65.293  1.00  0.00    -0.122 C  
BRANCH   4   5
HETATM    5  C   UNL     1      -7.477   6.537  66.221  1.00  0.00    -0.081 C  
BRANCH   5   6
HETATM    6  C   UNL     1      -8.295   5.303  65.978  1.00  0.00    -0.118 C  
HETATM    7  C   UNL     1      -9.123   4.796  66.904  1.00  0.00    -0.118 C  
BRANCH   7   8
HETATM    8  C   UNL     1      -9.307   5.376  68.274  1.00  0.00    -0.135 C  
BRANCH   8   9
HETATM    9  C   UNL     1      -9.722   4.337  69.270  1.00  0.00    -0.240 C  
HETATM   10  C   UNL     1     -10.157   4.600  70.512  1.00  0.00    -0.263 C  
BRANCH  10  11
HETATM   11  C   UNL     1     -10.205   5.964  71.131  1.00  0.00    -0.266 C  
BRANCH  11  12
HETATM   12  C   UNL     1     -11.517   6.213  71.821  1.00  0.00    -0.342 C  
HETATM   13  C   UNL     1     -11.881   7.378  72.378  1.00  0.00    -0.273 C  
BRANCH  13  14
HETATM   14  C   UNL     1     -10.983   8.578  72.380  1.00  0.00    -0.390 C  
BRANCH  14  15
HETATM   15  C   UNL     1     -11.441   9.690  71.446  1.00  0.00    -0.455 C  
BRANCH  15  16
HETATM   16  C   UNL     1     -10.638   9.617  70.147  1.00  0.00    -0.320 C  
BRANCH  16  17
HETATM   17  C   UNL     1     -10.512  10.985  69.492  1.00  0.00    -0.133 C  
HETATM   18  C   UNL     1     -11.834  11.464  68.944  1.00  0.00    -0.347 C  
HETATM   19  O   UNL     1     -12.890  10.851  69.000  1.00  0.00    -0.082 OA 
HETATM   20  O   UNL     1     -11.735  12.681  68.359  1.00  0.00    -0.298 OA 
ENDBRANCH  16  17
ENDBRANCH  15  16
ENDBRANCH  14  15
ENDBRANCH  13  14
ENDBRANCH  11  12
ENDBRANCH  10  11
ENDBRANCH   8   9
ENDBRANCH   7   8
ENDBRANCH   5   6
ENDBRANCH   4   5
ENDBRANCH   3   4
ENDBRANCH   2   3
TORSDOF 12
ENDMDL
MODEL      428
REMARK 921   NORMALIZED FREE ENERGY PREDICTED BY IDOCK:   -2.28 KCAL/MOL
REMARK 922        TOTAL FREE ENERGY PREDICTED BY IDOCK:   -5.84 KCAL/MOL
REMARK 923 INTER-LIGAND FREE ENERGY PREDICTED BY IDOCK:   -3.35 KCAL/MOL
REMARK 924 INTRA-LIGAND FREE ENERGY PREDICTED BY IDOCK:   -2.49 KCAL/MOL
REMARK 927      BINDING AFFINITY PREDICTED BY RF-SCORE:    0.00 PKD
ROOT
HETATM    1  C   UNL     1     -10.889   1.725  72.905  1.00  0.00    -0.235 C  
HETATM    2  C   UNL     1     -10.477   3.004  73.612  1.00  0.00    -0.246 C  
ENDROOT
BRANCH   2   3
HETATM    3  C   UNL     1     -11.127   4.222  72.966  1.00  0.00    -0.232 C  
BRANCH   3   4
HETATM    4  C   UNL     1     -10.873   5.484  73.789  1.00  0.00    -0.247 C  
BRANCH   4   5
HETATM    5  C   UNL     1     -10.448   6.618  72.866  1.00  0.00    -0.254 C  
BRANCH   5   6
HETATM    6  C   UNL     1      -9.905   7.809  73.597  1.00  0.00    -0.207 C  
HETATM    7  C   UNL     1      -8.588   8.013  73.761  1.00  0.00    -0.328 C  
BRANCH   7   8
HETATM    8  C   UNL     1      -7.525   7.080  73.264  1.00  0.00    -0.077 C  
BRANCH   8   9
HETATM    9  C   UNL     1      -7.176   6.038  74.281  1.00  0.00    -0.087 C  
HETATM   10  C   UNL     1      -6.945   4.746  74.004  1.00  0.00    -0.076 C  
BRANCH  10  11
HETATM   11  C   UNL     1      -7.095   4.122  72.650  1.00  0.00    -0.061 C  
BRANCH  11  12
HETATM   12  C   UNL     1      -7.199   2.625  72.739  1.00  0.00    -0.039 C  
HETATM   13  C   UNL     1      -7.436   1.810  71.699  1.00  0.00    -0.036 C  
BRANCH  13  14
HETATM   14  C   UNL     1      -7.640   2.328  70.308  1.00  0.00    -0.043 C  
BRANCH  14  15
HETATM   15  C   UNL     1      -9.098   2.345  69.866  1.00  0.00    -0.176 C  
BRANCH  15  16
HETATM   16  C   UNL     1      -9.330   3.547  68.949  1.00  0.00    -0.236 C  
BRANCH  16  17
HETATM   17  C   UNL     1     -10.186   4.607  69.626  1.00  0.00    -0.118 C  
HETATM   18  C   UNL     1     -10.580   5.702  68.664  1.00  0.00    -0.198 C  
HETATM   19  O   UNL     1     -10.263   5.759  67.485  1.00  0.00    -0.158 OA 
HETATM   20  O   UNL     1     -11.343   6.652  69.254  1.00  0.00    -0.291 OA 
ENDBRANCH  16  17
ENDBRANCH  15  16
ENDBRANCH  14  15
ENDBRANCH  13  14
ENDBRANCH  11  12
ENDBRANCH  10  11
ENDBRANCH   8   9
ENDBRANCH   7   8
ENDBRANCH   5   6
ENDBRANCH   4   5
ENDBRANCH   3   4
ENDBRANCH   2   3
TORSDOF 12
ENDMDL
MODEL      429
REMARK 921   NORMALIZED FREE ENERGY PREDICTED BY IDOCK:   -2.25 KCAL/MOL
REMARK 922        TOTAL FREE ENERGY PREDICTED BY IDOCK:   -5.79 KCAL/MOL
REMARK 923 INTER-LIGAND FREE ENERGY PREDICTED BY IDOCK:   -4.23 KCAL/MOL
REMARK 924 INTRA-LIGAND FREE ENERGY PREDICTED BY IDOCK:   -1.56 KCAL/MOL
REMARK 927      BINDING AFFINITY PREDICTED BY RF-SCORE:    0.00 PKD
ROOT
HETATM    1  C   UNL     1      -6.484   9.132  71.641  1.00  0.00    -0.018 C  
HETATM    2  C   UNL     1      -7.813   8.620  71.113  1.00  0.00    -0.139 C  
ENDROOT
BRANCH   2   3
HETATM    3  C   UNL     1      -8.861   8.570  72.219  1.00  0.00    -0.279 C  
BRANCH   3   4
HETATM    4  C   UNL     1     -10.248   8.274  71.651  1.00  0.00    -0.286 C  
BRANCH   4   5
HETATM    5  C   UNL     1     -10.428   6.769  71.504  1.00  0.00    -0.236 C  
BRANCH   5   6
HETATM    6  C   UNL     1     -11.467   6.391  70.489  1.00  0.00    -0.444 C  
HETATM    7  C   UNL     1     -11.161   6.146  69.205  1.00  0.00    -0.438 C  
BRANCH   7   8
HETATM    8  C   UNL     1      -9.777   6.244  68.637  1.00  0.00    -0.137 C  
BRANCH   8   9
HETATM    9  C   UNL     1      -9.793   6.634  67.192  1.00  0.00    -0.194 C  
HETATM   10  C   UNL     1      -9.408   7.829  66.719  1.00  0.00    -0.227 C  
BRANCH  10  11
HETATM   11  C   UNL     1      -8.994   8.993  67.567  1.00  0.00    -0.131 C  
BRANCH  11  12
HETATM   12  C   UNL     1      -7.530   8.938  67.905  1.00  0.00    -0.092 C  
HETATM   13  C   UNL     1      -6.691   9.985  67.847  1.00  0.00    -0.067 C  
BRANCH  13  14
HETATM   14  C   UNL     1      -7.141  11.347  67.414  1.00  0.00    -0.114 C  
BRANCH  14  15
HETATM   15  C   UNL     1      -7.897  12.116  68.490  1.00  0.00    -0.122 C  
BRANCH  15  16
HETATM   16  C   UNL     1      -8.541  13.352  67.864  1.00  0.00    -0.184 C  
BRANCH  16  17
HETATM   17  C   UNL     1      -9.394  12.987  66.658  1.00  0.00    -0.242 C  
HETATM   18  C   UNL     1      -9.640  14.181  65.768  1.00  0.00    -0.133 C  
HETATM   19  O   UNL     1      -9.223  15.313  65.965  1.00  0.00    -0.313 OA 
HETATM   20  O   UNL     1     -10.398  13.868  64.690  1.00  0.00    -0.432 OA 
ENDBRANCH  16  17
ENDBRANCH  15  16
ENDBRANCH  14  15
ENDBRANCH  13  14
ENDBRANCH  11  12
ENDBRANCH  10  11
ENDBRANCH   8   9
ENDBRANCH   7   8
ENDBRANCH   5   6
ENDBRANCH   4   5
ENDBRANCH   3   4
ENDBRANCH   2   3
TORSDOF 12
ENDMDL
MODEL      430
REMARK 921   NORMALIZED FREE ENERGY PREDICTED BY IDOCK:   -2.22 KCAL/MOL
REMARK 922        TOTAL FREE ENERGY PREDICTED BY IDOCK:   -5.74 KCAL/MOL
REMARK 923 INTER-LIGAND FREE ENERGY PREDICTED BY IDOCK:   -3.52 KCAL/MOL
REMARK 924 INTRA-LIGAND FREE ENERGY PREDICTED BY IDOCK:   -2.22 KCAL/MOL
REMARK 927      BINDING AFFINITY PREDICTED BY RF-SCORE:    0.00 PKD
ROOT
HETATM    1  C   UNL     1      -9.329   9.276  65.984  1.00  0.00    -0.283 C  
HETATM    2  C   UNL     1      -8.595   8.953  67.273  1.00  0.00    -0.119 C  
ENDROOT
BRANCH   2   3
HETATM    3  C   UNL     1      -7.213   8.375  66.989  1.00  0.00    -0.080 C  
BRANCH   3   4
HETATM    4  C   UNL     1      -7.314   7.037  66.259  1.00  0.00    -0.076 C  
BRANCH   4   5
HETATM    5  C   UNL     1      -6.966   5.906  67.218  1.00  0.00    -0.069 C  
BRANCH   5   6
HETATM    6  C   UNL     1      -7.830   4.692  67.045  1.00  0.00    -0.098 C  
HETATM    7  C   UNL     1      -8.958   4.506  67.749  1.00  0.00    -0.131 C  
BRANCH   7   8
HETATM    8  C   UNL     1      -9.466   5.460  68.788  1.00  0.00    -0.168 C  
BRANCH   8   9
HETATM    9  C   UNL     1     -10.794   6.040  68.414  1.00  0.00    -0.361 C  
HETATM   10  C   UNL     1     -11.460   6.953  69.137  1.00  0.00    -0.025 C  
BRANCH  10  11
HETATM   11  C   UNL     1     -11.029   7.463  70.478  1.00  0.00    -0.270 C  
BRANCH  11  12
HETATM   12  C   UNL     1     -10.406   8.827  70.377  1.00  0.00    -0.230 C  
HETATM   13  C   UNL     1      -9.381   9.259  71.129  1.00  0.00    -0.259 C  
BRANCH  13  14
HETATM   14  C   UNL     1      -8.748   8.404  72.183  1.00  0.00    -0.272 C  
BRANCH  14  15
HETATM   15  C   UNL     1      -8.017   7.187  71.631  1.00  0.00    -0.097 C  
BRANCH  15  16
HETATM   16  C   UNL     1      -8.092   6.051  72.651  1.00  0.00    -0.104 C  
BRANCH  16  17
HETATM   17  C   UNL     1      -9.248   5.108  72.352  1.00  0.00    -0.148 C  
HETATM   18  C   UNL     1     -10.353   5.242  73.372  1.00  0.00    -0.209 C  
HETATM   19  O   UNL     1     -10.348   6.000  74.330  1.00  0.00    -0.281 OA 
HETATM   20  O   UNL     1     -11.389   4.408  73.116  1.00  0.00    -0.240 OA 
ENDBRANCH  16  17
ENDBRANCH  15  16
ENDBRANCH  14  15
ENDBRANCH  13  14
ENDBRANCH  11  12
ENDBRANCH  10  11
ENDBRANCH   8   9
ENDBRANCH   7   8
ENDBRANCH   5   6
ENDBRANCH   4   5
ENDBRANCH   3   4
ENDBRANCH   2   3
TORSDOF 12
ENDMDL
MODEL      431
REMARK 921   NORMALIZED FREE ENERGY PREDICTED BY IDOCK:   -2.21 KCAL/MOL
REMARK 922        TOTAL FREE ENERGY PREDICTED BY IDOCK:   -5.72 KCAL/MOL
REMARK 923 INTER-LIGAND FREE ENERGY PREDICTED BY IDOCK:   -3.64 KCAL/MOL
REMARK 924 INTRA-LIGAND FREE ENERGY PREDICTED BY IDOCK:   -2.07 KCAL/MOL
REMARK 927      BINDING AFFINITY PREDICTED BY RF-SCORE:    0.00 PKD
ROOT
HETATM    1  C   UNL     1     -11.082   5.876  68.478  1.00  0.00    -0.171 C  
HETATM    2  C   UNL     1     -11.071   6.591  67.139  1.00  0.00    -0.434 C  
ENDROOT
BRANCH   2   3
HETATM    3  C   UNL     1     -10.723   5.632  66.006  1.00  0.00     0.092 C  
BRANCH   3   4
HETATM    4  C   UNL     1      -9.581   4.699  66.404  1.00  0.00    -0.188 C  
BRANCH   4   5
HETATM    5  C   UNL     1      -8.260   5.452  66.337  1.00  0.00    -0.109 C  
BRANCH   5   6
HETATM    6  C   UNL     1      -7.816   5.751  64.936  1.00  0.00    -0.113 C  
HETATM    7  C   UNL     1      -7.845   6.991  64.422  1.00  0.00    -0.111 C  
BRANCH   7   8
HETATM    8  C   UNL     1      -8.339   8.196  65.163  1.00  0.00    -0.152 C  
BRANCH   8   9
HETATM    9  C   UNL     1      -7.243   8.871  65.928  1.00  0.00    -0.089 C  
HETATM   10  C   UNL     1      -7.230   9.038  67.259  1.00  0.00    -0.083 C  
BRANCH  10  11
HETATM   11  C   UNL     1      -8.352   8.663  68.179  1.00  0.00    -0.127 C  
BRANCH  11  12
HETATM   12  C   UNL     1      -7.844   7.991  69.425  1.00  0.00    -0.113 C  
HETATM   13  C   UNL     1      -8.578   7.763  70.525  1.00  0.00    -0.132 C  
BRANCH  13  14
HETATM   14  C   UNL     1     -10.013   8.180  70.629  1.00  0.00    -0.204 C  
BRANCH  14  15
HETATM   15  C   UNL     1     -10.215   9.689  70.647  1.00  0.00    -0.346 C  
BRANCH  15  16
HETATM   16  C   UNL     1     -11.644  10.010  70.207  1.00  0.00    -0.354 C  
BRANCH  16  17
HETATM   17  C   UNL     1     -11.753  10.099  68.691  1.00  0.00     0.117 C  
HETATM   18  C   UNL     1     -11.857  11.531  68.224  1.00  0.00    -0.256 C  
HETATM   19  O   UNL     1     -11.860  12.516  68.948  1.00  0.00    -0.304 OA 
HETATM   20  O   UNL     1     -11.954  11.624  66.878  1.00  0.00    -0.567 OA 
ENDBRANCH  16  17
ENDBRANCH  15  16
ENDBRANCH  14  15
ENDBRANCH  13  14
ENDBRANCH  11  12
ENDBRANCH  10  11
ENDBRANCH   8   9
ENDBRANCH   7   8
ENDBRANCH   5   6
ENDBRANCH   4   5
ENDBRANCH   3   4
ENDBRANCH   2   3
TORSDOF 12
ENDMDL
MODEL      432
REMARK 921   NORMALIZED FREE ENERGY PREDICTED BY IDOCK:   -2.21 KCAL/MOL
REMARK 922        TOTAL FREE ENERGY PREDICTED BY IDOCK:   -5.72 KCAL/MOL
REMARK 923 INTER-LIGAND FREE ENERGY PREDICTED BY IDOCK:   -4.85 KCAL/MOL
REMARK 924 INTRA-LIGAND FREE ENERGY PREDICTED BY IDOCK:   -0.87 KCAL/MOL
REMARK 927      BINDING AFFINITY PREDICTED BY RF-SCORE:    0.00 PKD
ROOT
HETATM    1  C   UNL     1     -10.681   7.149  73.399  1.00  0.00    -0.410 C  
HETATM    2  C   UNL     1     -11.655   8.058  72.672  1.00  0.00    -0.448 C  
ENDROOT
BRANCH   2   3
HETATM    3  C   UNL     1     -11.015   8.670  71.431  1.00  0.00    -0.341 C  
BRANCH   3   4
HETATM    4  C   UNL     1     -10.695   7.599  70.390  1.00  0.00    -0.241 C  
BRANCH   4   5
HETATM    5  C   UNL     1      -9.209   7.636  70.061  1.00  0.00    -0.151 C  
BRANCH   5   6
HETATM    6  C   UNL     1      -8.544   8.922  70.454  1.00  0.00    -0.198 C  
HETATM    7  C   UNL     1      -7.556   9.471  69.730  1.00  0.00    -0.110 C  
BRANCH   7   8
HETATM    8  C   UNL     1      -6.993   8.864  68.481  1.00  0.00    -0.065 C  
BRANCH   8   9
HETATM    9  C   UNL     1      -8.010   8.797  67.384  1.00  0.00    -0.098 C  
HETATM   10  C   UNL     1      -8.163   9.725  66.427  1.00  0.00    -0.120 C  
BRANCH  10  11
HETATM   11  C   UNL     1      -7.407  11.017  66.358  1.00  0.00    -0.128 C  
BRANCH  11  12
HETATM   12  C   UNL     1      -7.921  12.012  67.362  1.00  0.00    -0.165 C  
HETATM   13  C   UNL     1      -9.071  12.694  67.244  1.00  0.00    -0.191 C  
BRANCH  13  14
HETATM   14  C   UNL     1      -9.975  12.538  66.061  1.00  0.00    -0.269 C  
BRANCH  14  15
HETATM   15  C   UNL     1     -11.395  13.032  66.302  1.00  0.00    -0.354 C  
BRANCH  15  16
HETATM   16  C   UNL     1     -11.453  13.756  67.647  1.00  0.00    -0.354 C  
BRANCH  16  17
HETATM   17  C   UNL     1     -11.373  15.266  67.472  1.00  0.00    -0.300 C  
HETATM   18  C   UNL     1     -10.810  15.940  68.699  1.00  0.00    -0.291 C  
HETATM   19  O   UNL     1     -10.456  15.373  69.723  1.00  0.00    -0.260 OA 
HETATM   20  O   UNL     1     -10.733  17.284  68.555  1.00  0.00    -0.353 OA 
ENDBRANCH  16  17
ENDBRANCH  15  16
ENDBRANCH  14  15
ENDBRANCH  13  14
ENDBRANCH  11  12
ENDBRANCH  10  11
ENDBRANCH   8   9
ENDBRANCH   7   8
ENDBRANCH   5   6
ENDBRANCH   4   5
ENDBRANCH   3   4
ENDBRANCH   2   3
TORSDOF 12
ENDMDL
MODEL      433
REMARK 921   NORMALIZED FREE ENERGY PREDICTED BY IDOCK:   -2.21 KCAL/MOL
REMARK 922        TOTAL FREE ENERGY PREDICTED BY IDOCK:   -5.72 KCAL/MOL
REMARK 923 INTER-LIGAND FREE ENERGY PREDICTED BY IDOCK:   -3.82 KCAL/MOL
REMARK 924 INTRA-LIGAND FREE ENERGY PREDICTED BY IDOCK:   -1.89 KCAL/MOL
REMARK 927      BINDING AFFINITY PREDICTED BY RF-SCORE:    0.00 PKD
ROOT
HETATM    1  C   UNL     1      -6.428   3.610  68.722  1.00  0.00    -0.036 C  
HETATM    2  C   UNL     1      -7.063   2.827  67.587  1.00  0.00    -0.049 C  
ENDROOT
BRANCH   2   3
HETATM    3  C   UNL     1      -8.368   3.472  67.137  1.00  0.00    -0.092 C  
BRANCH   3   4
HETATM    4  C   UNL     1      -8.114   4.824  66.471  1.00  0.00    -0.107 C  
BRANCH   4   5
HETATM    5  C   UNL     1      -9.096   5.852  67.015  1.00  0.00    -0.116 C  
BRANCH   5   6
HETATM    6  C   UNL     1      -8.512   6.724  68.088  1.00  0.00    -0.121 C  
HETATM    7  C   UNL     1      -8.971   6.716  69.349  1.00  0.00    -0.133 C  
BRANCH   7   8
HETATM    8  C   UNL     1     -10.115   5.871  69.822  1.00  0.00    -0.258 C  
BRANCH   8   9
HETATM    9  C   UNL     1     -11.429   6.573  69.671  1.00  0.00    -0.417 C  
HETATM   10  C   UNL     1     -12.221   6.939  70.690  1.00  0.00    -0.311 C  
BRANCH  10  11
HETATM   11  C   UNL     1     -11.964   6.619  72.132  1.00  0.00    -0.320 C  
BRANCH  11  12
HETATM   12  C   UNL     1     -11.054   7.631  72.769  1.00  0.00    -0.437 C  
HETATM   13  C   UNL     1      -9.955   7.333  73.481  1.00  0.00    -0.366 C  
BRANCH  13  14
HETATM   14  C   UNL     1      -9.524   5.920  73.729  1.00  0.00    -0.141 C  
BRANCH  14  15
HETATM   15  C   UNL     1     -10.524   5.104  74.536  1.00  0.00    -0.254 C  
BRANCH  15  16
HETATM   16  C   UNL     1     -10.343   3.621  74.209  1.00  0.00    -0.252 C  
BRANCH  16  17
HETATM   17  C   UNL     1     -10.143   3.401  72.716  1.00  0.00    -0.232 C  
HETATM   18  C   UNL     1      -8.899   2.591  72.436  1.00  0.00    -0.070 C  
HETATM   19  O   UNL     1      -8.129   2.157  73.279  1.00  0.00    -0.049 OA 
HETATM   20  O   UNL     1      -8.710   2.387  71.111  1.00  0.00    -0.061 OA 
ENDBRANCH  16  17
ENDBRANCH  15  16
ENDBRANCH  14  15
ENDBRANCH  13  14
ENDBRANCH  11  12
ENDBRANCH  10  11
ENDBRANCH   8   9
ENDBRANCH   7   8
ENDBRANCH   5   6
ENDBRANCH   4   5
ENDBRANCH   3   4
ENDBRANCH   2   3
TORSDOF 12
ENDMDL
MODEL      434
REMARK 921   NORMALIZED FREE ENERGY PREDICTED BY IDOCK:   -2.19 KCAL/MOL
REMARK 922        TOTAL FREE ENERGY PREDICTED BY IDOCK:   -5.68 KCAL/MOL
REMARK 923 INTER-LIGAND FREE ENERGY PREDICTED BY IDOCK:   -4.53 KCAL/MOL
REMARK 924 INTRA-LIGAND FREE ENERGY PREDICTED BY IDOCK:   -1.15 KCAL/MOL
REMARK 927      BINDING AFFINITY PREDICTED BY RF-SCORE:    0.00 PKD
ROOT
HETATM    1  C   UNL     1      -9.673   8.700  70.206  1.00  0.00    -0.191 C  
HETATM    2  C   UNL     1     -10.060  10.157  70.023  1.00  0.00    -0.241 C  
ENDROOT
BRANCH   2   3
HETATM    3  C   UNL     1     -11.572  10.314  69.913  1.00  0.00    -0.326 C  
BRANCH   3   4
HETATM    4  C   UNL     1     -11.940  11.515  69.044  1.00  0.00    -0.377 C  
BRANCH   4   5
HETATM    5  C   UNL     1     -11.520  11.251  67.604  1.00  0.00    -0.341 C  
BRANCH   5   6
HETATM    6  C   UNL     1     -11.854  12.376  66.670  1.00  0.00    -0.394 C  
HETATM    7  C   UNL     1     -10.977  12.847  65.770  1.00  0.00    -0.303 C  
BRANCH   7   8
HETATM    8  C   UNL     1      -9.579  12.332  65.610  1.00  0.00    -0.148 C  
BRANCH   8   9
HETATM    9  C   UNL     1      -9.384  11.018  66.301  1.00  0.00    -0.206 C  
HETATM   10  C   UNL     1      -8.268  10.654  66.951  1.00  0.00    -0.123 C  
BRANCH  10  11
HETATM   11  C   UNL     1      -7.008  11.463  67.007  1.00  0.00    -0.135 C  
BRANCH  11  12
HETATM   12  C   UNL     1      -6.725  11.951  68.401  1.00  0.00    -0.067 C  
HETATM   13  C   UNL     1      -6.444  13.222  68.725  1.00  0.00    -0.099 C  
BRANCH  13  14
HETATM   14  C   UNL     1      -6.369  14.311  67.698  1.00  0.00    -0.126 C  
BRANCH  14  15
HETATM   15  C   UNL     1      -7.726  14.873  67.297  1.00  0.00    -0.227 C  
BRANCH  15  16
HETATM   16  C   UNL     1      -8.477  15.314  68.553  1.00  0.00    -0.162 C  
BRANCH  16  17
HETATM   17  C   UNL     1      -9.825  14.617  68.672  1.00  0.00    -0.224 C  
HETATM   18  C   UNL     1     -10.969  15.599  68.604  1.00  0.00    -0.294 C  
HETATM   19  O   UNL     1     -10.859  16.810  68.473  1.00  0.00    -0.338 OA 
HETATM   20  O   UNL     1     -12.173  14.990  68.707  1.00  0.00    -0.208 OA 
ENDBRANCH  16  17
ENDBRANCH  15  16
ENDBRANCH  14  15
ENDBRANCH  13  14
ENDBRANCH  11  12
ENDBRANCH  10  11
ENDBRANCH   8   9
ENDBRANCH   7   8
ENDBRANCH   5   6
ENDBRANCH   4   5
ENDBRANCH   3   4
ENDBRANCH   2   3
TORSDOF 12
ENDMDL
MODEL      435
REMARK 921   NORMALIZED FREE ENERGY PREDICTED BY IDOCK:   -2.18 KCAL/MOL
REMARK 922        TOTAL FREE ENERGY PREDICTED BY IDOCK:   -5.67 KCAL/MOL
REMARK 923 INTER-LIGAND FREE ENERGY PREDICTED BY IDOCK:   -4.01 KCAL/MOL
REMARK 924 INTRA-LIGAND FREE ENERGY PREDICTED BY IDOCK:   -1.66 KCAL/MOL
REMARK 927      BINDING AFFINITY PREDICTED BY RF-SCORE:    0.00 PKD
ROOT
HETATM    1  C   UNL     1      -9.471   6.227  67.561  1.00  0.00    -0.115 C  
HETATM    2  C   UNL     1      -9.150   7.711  67.588  1.00  0.00    -0.133 C  
ENDROOT
BRANCH   2   3
HETATM    3  C   UNL     1     -10.189   8.513  66.814  1.00  0.00    -0.370 C  
BRANCH   3   4
HETATM    4  C   UNL     1      -9.561   9.213  65.610  1.00  0.00    -0.287 C  
BRANCH   4   5
HETATM    5  C   UNL     1      -8.057   8.980  65.612  1.00  0.00    -0.115 C  
BRANCH   5   6
HETATM    6  C   UNL     1      -7.266  10.194  65.221  1.00  0.00    -0.141 C  
HETATM    7  C   UNL     1      -6.650  10.972  66.125  1.00  0.00    -0.076 C  
BRANCH   7   8
HETATM    8  C   UNL     1      -6.698  10.741  67.605  1.00  0.00    -0.069 C  
BRANCH   8   9
HETATM    9  C   UNL     1      -7.888  11.395  68.235  1.00  0.00    -0.132 C  
HETATM   10  C   UNL     1      -8.011  12.714  68.449  1.00  0.00    -0.134 C  
BRANCH  10  11
HETATM   11  C   UNL     1      -6.941  13.728  68.180  1.00  0.00    -0.120 C  
BRANCH  11  12
HETATM   12  C   UNL     1      -6.694  14.602  69.378  1.00  0.00    -0.147 C  
HETATM   13  C   UNL     1      -7.369  15.728  69.656  1.00  0.00    -0.118 C  
BRANCH  13  14
HETATM   14  C   UNL     1      -8.458  16.247  68.768  1.00  0.00    -0.240 C  
BRANCH  14  15
HETATM   15  C   UNL     1      -9.802  16.400  69.468  1.00  0.00    -0.119 C  
BRANCH  15  16
HETATM   16  C   UNL     1     -10.872  15.655  68.670  1.00  0.00    -0.273 C  
BRANCH  16  17
HETATM   17  C   UNL     1     -11.197  14.306  69.295  1.00  0.00    -0.309 C  
HETATM   18  C   UNL     1     -12.265  14.427  70.355  1.00  0.00    -0.338 C  
HETATM   19  O   UNL     1     -12.817  15.464  70.693  1.00  0.00    -0.432 OA 
HETATM   20  O   UNL     1     -12.563  13.233  70.918  1.00  0.00    -0.345 OA 
ENDBRANCH  16  17
ENDBRANCH  15  16
ENDBRANCH  14  15
ENDBRANCH  13  14
ENDBRANCH  11  12
ENDBRANCH  10  11
ENDBRANCH   8   9
ENDBRANCH   7   8
ENDBRANCH   5   6
ENDBRANCH   4   5
ENDBRANCH   3   4
ENDBRANCH   2   3
TORSDOF 12
ENDMDL
MODEL      436
REMARK 921   NORMALIZED FREE ENERGY PREDICTED BY IDOCK:   -2.18 KCAL/MOL
REMARK 922        TOTAL FREE ENERGY PREDICTED BY IDOCK:   -5.66 KCAL/MOL
REMARK 923 INTER-LIGAND FREE ENERGY PREDICTED BY IDOCK:   -5.26 KCAL/MOL
REMARK 924 INTRA-LIGAND FREE ENERGY PREDICTED BY IDOCK:   -0.40 KCAL/MOL
REMARK 927      BINDING AFFINITY PREDICTED BY RF-SCORE:    0.00 PKD
ROOT
HETATM    1  C   UNL     1      -9.529   8.883  68.881  1.00  0.00    -0.152 C  
HETATM    2  C   UNL     1     -10.125  10.180  69.400  1.00  0.00    -0.250 C  
ENDROOT
BRANCH   2   3
HETATM    3  C   UNL     1     -11.546  10.376  68.884  1.00  0.00    -0.208 C  
BRANCH   3   4
HETATM    4  C   UNL     1     -11.929  11.855  68.872  1.00  0.00    -0.313 C  
BRANCH   4   5
HETATM    5  C   UNL     1     -11.198  12.562  67.739  1.00  0.00    -0.318 C  
BRANCH   5   6
HETATM    6  C   UNL     1     -11.868  13.828  67.296  1.00  0.00    -0.436 C  
HETATM    7  C   UNL     1     -11.354  14.617  66.339  1.00  0.00    -0.348 C  
BRANCH   7   8
HETATM    8  C   UNL     1     -10.062  14.344  65.630  1.00  0.00    -0.377 C  
BRANCH   8   9
HETATM    9  C   UNL     1      -8.941  14.088  66.589  1.00  0.00    -0.177 C  
HETATM   10  C   UNL     1      -8.044  15.006  66.980  1.00  0.00    -0.225 C  
BRANCH  10  11
HETATM   11  C   UNL     1      -7.963  16.404  66.447  1.00  0.00    -0.329 C  
BRANCH  11  12
HETATM   12  C   UNL     1      -7.142  17.290  67.342  1.00  0.00    -0.184 C  
HETATM   13  C   UNL     1      -7.051  18.624  67.224  1.00  0.00    -0.210 C  
BRANCH  13  14
HETATM   14  C   UNL     1      -7.769  19.382  66.150  1.00  0.00    -0.314 C  
BRANCH  14  15
HETATM   15  C   UNL     1      -9.286  19.333  66.271  1.00  0.00    -0.362 C  
BRANCH  15  16
HETATM   16  C   UNL     1      -9.673  19.385  67.749  1.00  0.00    -0.431 C  
BRANCH  16  17
HETATM   17  C   UNL     1     -10.871  18.494  68.044  1.00  0.00    -0.161 C  
HETATM   18  C   UNL     1     -10.507  17.360  68.971  1.00  0.00    -0.285 C  
HETATM   19  O   UNL     1      -9.398  17.154  69.441  1.00  0.00    -0.014 OA 
HETATM   20  O   UNL     1     -11.565  16.561  69.242  1.00  0.00    -0.166 OA 
ENDBRANCH  16  17
ENDBRANCH  15  16
ENDBRANCH  14  15
ENDBRANCH  13  14
ENDBRANCH  11  12
ENDBRANCH  10  11
ENDBRANCH   8   9
ENDBRANCH   7   8
ENDBRANCH   5   6
ENDBRANCH   4   5
ENDBRANCH   3   4
ENDBRANCH   2   3
TORSDOF 12
ENDMDL
MODEL      437
REMARK 921   NORMALIZED FREE ENERGY PREDICTED BY IDOCK:   -2.17 KCAL/MOL
REMARK 922        TOTAL FREE ENERGY PREDICTED BY IDOCK:   -5.65 KCAL/MOL
REMARK 923 INTER-LIGAND FREE ENERGY PREDICTED BY IDOCK:   -4.35 KCAL/MOL
REMARK 924 INTRA-LIGAND FREE ENERGY PREDICTED BY IDOCK:   -1.30 KCAL/MOL
REMARK 927      BINDING AFFINITY PREDICTED BY RF-SCORE:    0.00 PKD
ROOT
HETATM    1  C   UNL     1      -8.064   8.203  63.774  1.00  0.00    -0.112 C  
HETATM    2  C   UNL     1      -8.367   7.703  65.175  1.00  0.00    -0.100 C  
ENDROOT
BRANCH   2   3
HETATM    3  C   UNL     1      -7.832   6.291  65.382  1.00  0.00    -0.104 C  
BRANCH   3   4
HETATM    4  C   UNL     1      -8.959   5.261  65.325  1.00  0.00    -0.130 C  
BRANCH   4   5
HETATM    5  C   UNL     1      -9.549   5.072  66.715  1.00  0.00    -0.164 C  
BRANCH   5   6
HETATM    6  C   UNL     1     -10.885   5.731  66.890  1.00  0.00    -0.337 C  
HETATM    7  C   UNL     1     -11.136   6.591  67.890  1.00  0.00    -0.352 C  
BRANCH   7   8
HETATM    8  C   UNL     1     -10.140   6.968  68.945  1.00  0.00    -0.174 C  
BRANCH   8   9
HETATM    9  C   UNL     1      -9.166   7.994  68.454  1.00  0.00    -0.135 C  
HETATM   10  C   UNL     1      -9.403   9.313  68.412  1.00  0.00    -0.142 C  
BRANCH  10  11
HETATM   11  C   UNL     1     -10.709   9.960  68.759  1.00  0.00    -0.247 C  
BRANCH  11  12
HETATM   12  C   UNL     1     -10.528  11.402  69.142  1.00  0.00    -0.159 C  
HETATM   13  C   UNL     1     -10.808  12.447  68.347  1.00  0.00    -0.263 C  
BRANCH  13  14
HETATM   14  C   UNL     1     -11.330  12.273  66.954  1.00  0.00    -0.392 C  
BRANCH  14  15
HETATM   15  C   UNL     1     -10.240  12.196  65.893  1.00  0.00    -0.272 C  
BRANCH  15  16
HETATM   16  C   UNL     1      -9.449  13.505  65.890  1.00  0.00    -0.048 C  
BRANCH  16  17
HETATM   17  C   UNL     1     -10.366  14.710  65.745  1.00  0.00    -0.349 C  
HETATM   18  C   UNL     1      -9.585  16.001  65.690  1.00  0.00    -0.191 C  
HETATM   19  O   UNL     1      -8.368  16.098  65.754  1.00  0.00    -0.094 OA 
HETATM   20  O   UNL     1     -10.390  17.081  65.559  1.00  0.00    -0.585 OA 
ENDBRANCH  16  17
ENDBRANCH  15  16
ENDBRANCH  14  15
ENDBRANCH  13  14
ENDBRANCH  11  12
ENDBRANCH  10  11
ENDBRANCH   8   9
ENDBRANCH   7   8
ENDBRANCH   5   6
ENDBRANCH   4   5
ENDBRANCH   3   4
ENDBRANCH   2   3
TORSDOF 12
ENDMDL
MODEL      438
REMARK 921   NORMALIZED FREE ENERGY PREDICTED BY IDOCK:   -2.16 KCAL/MOL
REMARK 922        TOTAL FREE ENERGY PREDICTED BY IDOCK:   -5.63 KCAL/MOL
REMARK 923 INTER-LIGAND FREE ENERGY PREDICTED BY IDOCK:   -5.35 KCAL/MOL
REMARK 924 INTRA-LIGAND FREE ENERGY PREDICTED BY IDOCK:   -0.28 KCAL/MOL
REMARK 927      BINDING AFFINITY PREDICTED BY RF-SCORE:    0.00 PKD
ROOT
HETATM    1  C   UNL     1     -12.481  12.266  63.318  1.00  0.00    -0.490 C  
HETATM    2  C   UNL     1     -11.366  11.827  64.251  1.00  0.00    -0.400 C  
ENDROOT
BRANCH   2   3
HETATM    3  C   UNL     1     -10.242  11.144  63.482  1.00  0.00    -0.446 C  
BRANCH   3   4
HETATM    4  C   UNL     1      -9.651   9.984  64.282  1.00  0.00    -0.301 C  
BRANCH   4   5
HETATM    5  C   UNL     1      -9.471  10.407  65.734  1.00  0.00    -0.247 C  
BRANCH   5   6
HETATM    6  C   UNL     1     -10.102   9.460  66.712  1.00  0.00    -0.325 C  
HETATM    7  C   UNL     1     -11.091   9.834  67.539  1.00  0.00    -0.089 C  
BRANCH   7   8
HETATM    8  C   UNL     1     -11.655  11.221  67.600  1.00  0.00    -0.290 C  
BRANCH   8   9
HETATM    9  C   UNL     1     -10.609  12.236  67.945  1.00  0.00    -0.232 C  
HETATM   10  C   UNL     1     -10.659  13.531  67.599  1.00  0.00    -0.246 C  
BRANCH  10  11
HETATM   11  C   UNL     1     -11.716  14.147  66.734  1.00  0.00    -0.432 C  
BRANCH  11  12
HETATM   12  C   UNL     1     -12.367  15.323  67.408  1.00  0.00     0.759 C  
HETATM   13  C   UNL     1     -11.780  16.094  68.337  1.00  0.00    -0.126 C  
BRANCH  13  14
HETATM   14  C   UNL     1     -10.384  15.843  68.818  1.00  0.00    -0.228 C  
BRANCH  14  15
HETATM   15  C   UNL     1     -10.294  15.519  70.303  1.00  0.00    -0.217 C  
BRANCH  15  16
HETATM   16  C   UNL     1     -11.608  15.906  70.982  1.00  0.00    -0.465 C  
BRANCH  16  17
HETATM   17  C   UNL     1     -12.211  14.733  71.741  1.00  0.00    -0.416 C  
HETATM   18  C   UNL     1     -13.697  14.616  71.497  1.00  0.00    -0.419 C  
HETATM   19  O   UNL     1     -14.360  15.358  70.787  1.00  0.00    -0.276 OA 
HETATM   20  O   UNL     1     -14.245  13.575  72.166  1.00  0.00    -0.463 OA 
ENDBRANCH  16  17
ENDBRANCH  15  16
ENDBRANCH  14  15
ENDBRANCH  13  14
ENDBRANCH  11  12
ENDBRANCH  10  11
ENDBRANCH   8   9
ENDBRANCH   7   8
ENDBRANCH   5   6
ENDBRANCH   4   5
ENDBRANCH   3   4
ENDBRANCH   2   3
TORSDOF 12
ENDMDL
MODEL      439
REMARK 921   NORMALIZED FREE ENERGY PREDICTED BY IDOCK:   -2.12 KCAL/MOL
REMARK 922        TOTAL FREE ENERGY PREDICTED BY IDOCK:   -5.57 KCAL/MOL
REMARK 923 INTER-LIGAND FREE ENERGY PREDICTED BY IDOCK:   -4.19 KCAL/MOL
REMARK 924 INTRA-LIGAND FREE ENERGY PREDICTED BY IDOCK:   -1.38 KCAL/MOL
REMARK 927      BINDING AFFINITY PREDICTED BY RF-SCORE:    0.00 PKD
ROOT
HETATM    1  C   UNL     1      -5.777   7.826  71.241  1.00  0.00    -0.034 C  
HETATM    2  C   UNL     1      -6.898   8.727  71.726  1.00  0.00    -0.073 C  
ENDROOT
BRANCH   2   3
HETATM    3  C   UNL     1      -8.073   7.909  72.250  1.00  0.00    -0.161 C  
BRANCH   3   4
HETATM    4  C   UNL     1      -9.392   8.657  72.063  1.00  0.00    -0.362 C  
BRANCH   4   5
HETATM    5  C   UNL     1     -10.479   7.987  72.892  1.00  0.00    -0.402 C  
BRANCH   5   6
HETATM    6  C   UNL     1     -11.824   7.993  72.228  1.00  0.00    -0.424 C  
HETATM    7  C   UNL     1     -12.159   7.109  71.275  1.00  0.00    -0.386 C  
BRANCH   7   8
HETATM    8  C   UNL     1     -11.238   6.047  70.753  1.00  0.00    -0.340 C  
BRANCH   8   9
HETATM    9  C   UNL     1     -11.263   5.969  69.258  1.00  0.00    -0.367 C  
HETATM   10  C   UNL     1     -10.189   6.116  68.468  1.00  0.00    -0.221 C  
BRANCH  10  11
HETATM   11  C   UNL     1      -8.816   6.474  68.947  1.00  0.00    -0.126 C  
BRANCH  11  12
HETATM   12  C   UNL     1      -7.757   5.672  68.243  1.00  0.00    -0.089 C  
HETATM   13  C   UNL     1      -7.057   6.095  67.179  1.00  0.00    -0.070 C  
BRANCH  13  14
HETATM   14  C   UNL     1      -7.276   7.443  66.563  1.00  0.00    -0.079 C  
BRANCH  14  15
HETATM   15  C   UNL     1      -6.575   8.577  67.298  1.00  0.00    -0.059 C  
BRANCH  15  16
HETATM   16  C   UNL     1      -7.364   9.871  67.093  1.00  0.00    -0.091 C  
BRANCH  16  17
HETATM   17  C   UNL     1      -7.707  10.089  65.627  1.00  0.00    -0.136 C  
HETATM   18  C   UNL     1      -9.134   9.696  65.326  1.00  0.00    -0.218 C  
HETATM   19  O   UNL     1      -9.935   9.253  66.135  1.00  0.00    -0.279 OA 
HETATM   20  O   UNL     1      -9.452   9.886  64.024  1.00  0.00    -0.277 OA 
ENDBRANCH  16  17
ENDBRANCH  15  16
ENDBRANCH  14  15
ENDBRANCH  13  14
ENDBRANCH  11  12
ENDBRANCH  10  11
ENDBRANCH   8   9
ENDBRANCH   7   8
ENDBRANCH   5   6
ENDBRANCH   4   5
ENDBRANCH   3   4
ENDBRANCH   2   3
TORSDOF 12
ENDMDL
MODEL      440
REMARK 921   NORMALIZED FREE ENERGY PREDICTED BY IDOCK:   -2.09 KCAL/MOL
REMARK 922        TOTAL FREE ENERGY PREDICTED BY IDOCK:   -5.52 KCAL/MOL
REMARK 923 INTER-LIGAND FREE ENERGY PREDICTED BY IDOCK:   -4.71 KCAL/MOL
REMARK 924 INTRA-LIGAND FREE ENERGY PREDICTED BY IDOCK:   -0.81 KCAL/MOL
REMARK 927      BINDING AFFINITY PREDICTED BY RF-SCORE:    0.00 PKD
ROOT
HETATM    1  C   UNL     1      -6.665   6.105  65.375  1.00  0.00    -0.047 C  
HETATM    2  C   UNL     1      -8.005   6.754  65.079  1.00  0.00    -0.125 C  
ENDROOT
BRANCH   2   3
HETATM    3  C   UNL     1      -9.127   6.080  65.860  1.00  0.00    -0.117 C  
BRANCH   3   4
HETATM    4  C   UNL     1      -9.896   7.094  66.707  1.00  0.00    -0.272 C  
BRANCH   4   5
HETATM    5  C   UNL     1      -9.947   6.616  68.151  1.00  0.00    -0.156 C  
BRANCH   5   6
HETATM    6  C   UNL     1     -11.308   6.148  68.576  1.00  0.00    -0.055 C  
HETATM    7  C   UNL     1     -11.660   6.037  69.866  1.00  0.00    -0.047 C  
BRANCH   7   8
HETATM    8  C   UNL     1     -10.745   6.338  71.015  1.00  0.00    -0.313 C  
BRANCH   8   9
HETATM    9  C   UNL     1     -11.308   7.391  71.919  1.00  0.00    -0.294 C  
HETATM   10  C   UNL     1     -10.691   8.540  72.230  1.00  0.00    -0.411 C  
BRANCH  10  11
HETATM   11  C   UNL     1      -9.303   8.910  71.802  1.00  0.00    -0.304 C  
BRANCH  11  12
HETATM   12  C   UNL     1      -9.247   9.242  70.337  1.00  0.00    -0.291 C  
HETATM   13  C   UNL     1     -10.174   9.954  69.676  1.00  0.00    -0.261 C  
BRANCH  13  14
HETATM   14  C   UNL     1     -11.399  10.491  70.351  1.00  0.00    -0.411 C  
BRANCH  14  15
HETATM   15  C   UNL     1     -12.402  11.121  69.393  1.00  0.00    -0.224 C  
BRANCH  15  16
HETATM   16  C   UNL     1     -11.712  11.405  68.059  1.00  0.00    -0.324 C  
BRANCH  16  17
HETATM   17  C   UNL     1     -11.668  12.896  67.760  1.00  0.00    -0.412 C  
HETATM   18  C   UNL     1     -10.256  13.375  67.520  1.00  0.00    -0.226 C  
HETATM   19  O   UNL     1      -9.254  12.677  67.558  1.00  0.00    -0.177 OA 
HETATM   20  O   UNL     1     -10.204  14.700  67.252  1.00  0.00    -0.239 OA 
ENDBRANCH  16  17
ENDBRANCH  15  16
ENDBRANCH  14  15
ENDBRANCH  13  14
ENDBRANCH  11  12
ENDBRANCH  10  11
ENDBRANCH   8   9
ENDBRANCH   7   8
ENDBRANCH   5   6
ENDBRANCH   4   5
ENDBRANCH   3   4
ENDBRANCH   2   3
TORSDOF 12
ENDMDL
MODEL      441
REMARK 921   NORMALIZED FREE ENERGY PREDICTED BY IDOCK:   -2.08 KCAL/MOL
REMARK 922        TOTAL FREE ENERGY PREDICTED BY IDOCK:   -5.50 KCAL/MOL
REMARK 923 INTER-LIGAND FREE ENERGY PREDICTED BY IDOCK:   -5.75 KCAL/MOL
REMARK 924 INTRA-LIGAND FREE ENERGY PREDICTED BY IDOCK:    0.26 KCAL/MOL
REMARK 927      BINDING AFFINITY PREDICTED BY RF-SCORE:    0.00 PKD
ROOT
HETATM    1  C   UNL     1     -11.104  16.431  68.801  1.00  0.00    -0.337 C  
HETATM    2  C   UNL     1     -11.077  15.831  70.196  1.00  0.00    -0.360 C  
ENDROOT
BRANCH   2   3
HETATM    3  C   UNL     1     -12.484  15.713  70.770  1.00  0.00    -0.484 C  
BRANCH   3   4
HETATM    4  C   UNL     1     -12.493  14.860  72.037  1.00  0.00    -0.408 C  
BRANCH   4   5
HETATM    5  C   UNL     1     -13.732  13.976  72.048  1.00  0.00    -0.569 C  
BRANCH   5   6
HETATM    6  C   UNL     1     -13.432  12.532  72.325  1.00  0.00    -0.490 C  
HETATM    7  C   UNL     1     -12.718  11.772  71.480  1.00  0.00    -0.400 C  
BRANCH   7   8
HETATM    8  C   UNL     1     -12.168  12.258  70.172  1.00  0.00    -0.302 C  
BRANCH   8   9
HETATM    9  C   UNL     1     -12.096  11.163  69.154  1.00  0.00    -0.352 C  
HETATM   10  C   UNL     1     -11.375  10.039  69.290  1.00  0.00    -0.169 C  
BRANCH  10  11
HETATM   11  C   UNL     1     -10.455   9.746  70.436  1.00  0.00    -0.358 C  
BRANCH  11  12
HETATM   12  C   UNL     1      -9.088   9.343  69.959  1.00  0.00    -0.244 C  
HETATM   13  C   UNL     1      -8.849   8.465  68.973  1.00  0.00    -0.146 C  
BRANCH  13  14
HETATM   14  C   UNL     1      -9.954   7.769  68.238  1.00  0.00    -0.201 C  
BRANCH  14  15
HETATM   15  C   UNL     1     -10.340   8.442  66.927  1.00  0.00    -0.378 C  
BRANCH  15  16
HETATM   16  C   UNL     1      -9.070   8.855  66.182  1.00  0.00    -0.251 C  
BRANCH  16  17
HETATM   17  C   UNL     1      -8.838  10.357  66.266  1.00  0.00    -0.166 C  
HETATM   18  C   UNL     1      -7.374  10.685  66.435  1.00  0.00    -0.138 C  
HETATM   19  O   UNL     1      -6.466   9.869  66.502  1.00  0.00    -0.068 OA 
HETATM   20  O   UNL     1      -7.154  12.018  66.510  1.00  0.00     0.066 OA 
ENDBRANCH  16  17
ENDBRANCH  15  16
ENDBRANCH  14  15
ENDBRANCH  13  14
ENDBRANCH  11  12
ENDBRANCH  10  11
ENDBRANCH   8   9
ENDBRANCH   7   8
ENDBRANCH   5   6
ENDBRANCH   4   5
ENDBRANCH   3   4
ENDBRANCH   2   3
TORSDOF 12
ENDMDL
MODEL      442
REMARK 921   NORMALIZED FREE ENERGY PREDICTED BY IDOCK:   -2.07 KCAL/MOL
REMARK 922        TOTAL FREE ENERGY PREDICTED BY IDOCK:   -5.48 KCAL/MOL
REMARK 923 INTER-LIGAND FREE ENERGY PREDICTED BY IDOCK:   -4.03 KCAL/MOL
REMARK 924 INTRA-LIGAND FREE ENERGY PREDICTED BY IDOCK:   -1.45 KCAL/MOL
REMARK 927      BINDING AFFINITY PREDICTED BY RF-SCORE:    0.00 PKD
ROOT
HETATM    1  C   UNL     1      -8.859  10.630  65.094  1.00  0.00    -0.207 C  
HETATM    2  C   UNL     1     -10.197  11.261  65.434  1.00  0.00    -0.323 C  
ENDROOT
BRANCH   2   3
HETATM    3  C   UNL     1     -10.612  10.933  66.864  1.00  0.00    -0.312 C  
BRANCH   3   4
HETATM    4  C   UNL     1      -9.888   9.690  67.377  1.00  0.00    -0.218 C  
BRANCH   4   5
HETATM    5  C   UNL     1     -10.721   8.452  67.071  1.00  0.00    -0.204 C  
BRANCH   5   6
HETATM    6  C   UNL     1      -9.960   7.389  66.337  1.00  0.00    -0.107 C  
HETATM    7  C   UNL     1      -9.620   6.223  66.910  1.00  0.00    -0.173 C  
BRANCH   7   8
HETATM    8  C   UNL     1      -9.932   5.863  68.331  1.00  0.00    -0.184 C  
BRANCH   8   9
HETATM    9  C   UNL     1      -9.735   4.402  68.594  1.00  0.00    -0.190 C  
HETATM   10  C   UNL     1      -9.543   3.864  69.808  1.00  0.00    -0.271 C  
BRANCH  10  11
HETATM   11  C   UNL     1      -9.402   4.645  71.079  1.00  0.00    -0.209 C  
BRANCH  11  12
HETATM   12  C   UNL     1     -10.741   4.974  71.678  1.00  0.00    -0.128 C  
HETATM   13  C   UNL     1     -11.107   6.190  72.113  1.00  0.00    -0.321 C  
BRANCH  13  14
HETATM   14  C   UNL     1     -10.187   7.370  72.055  1.00  0.00    -0.221 C  
BRANCH  14  15
HETATM   15  C   UNL     1      -9.375   7.580  73.327  1.00  0.00    -0.271 C  
BRANCH  15  16
HETATM   16  C   UNL     1      -8.018   8.182  72.963  1.00  0.00    -0.220 C  
BRANCH  16  17
HETATM   17  C   UNL     1      -7.682   7.954  71.496  1.00  0.00    -0.090 C  
HETATM   18  C   UNL     1      -6.604   8.897  71.018  1.00  0.00    -0.069 C  
HETATM   19  O   UNL     1      -6.053   9.750  71.699  1.00  0.00    -0.272 OA 
HETATM   20  O   UNL     1      -6.296   8.703  69.715  1.00  0.00    -0.035 OA 
ENDBRANCH  16  17
ENDBRANCH  15  16
ENDBRANCH  14  15
ENDBRANCH  13  14
ENDBRANCH  11  12
ENDBRANCH  10  11
ENDBRANCH   8   9
ENDBRANCH   7   8
ENDBRANCH   5   6
ENDBRANCH   4   5
ENDBRANCH   3   4
ENDBRANCH   2   3
TORSDOF 12
ENDMDL
MODEL      443
REMARK 921   NORMALIZED FREE ENERGY PREDICTED BY IDOCK:   -2.06 KCAL/MOL
REMARK 922        TOTAL FREE ENERGY PREDICTED BY IDOCK:   -5.46 KCAL/MOL
REMARK 923 INTER-LIGAND FREE ENERGY PREDICTED BY IDOCK:   -5.13 KCAL/MOL
REMARK 924 INTRA-LIGAND FREE ENERGY PREDICTED BY IDOCK:   -0.33 KCAL/MOL
REMARK 927      BINDING AFFINITY PREDICTED BY RF-SCORE:    0.00 PKD
ROOT
HETATM    1  C   UNL     1     -10.436   8.949  71.697  1.00  0.00    -0.408 C  
HETATM    2  C   UNL     1     -11.719   9.181  70.919  1.00  0.00    -0.341 C  
ENDROOT
BRANCH   2   3
HETATM    3  C   UNL     1     -11.765  10.592  70.344  1.00  0.00    -0.446 C  
BRANCH   3   4
HETATM    4  C   UNL     1     -11.418  10.594  68.857  1.00  0.00    -0.334 C  
BRANCH   4   5
HETATM    5  C   UNL     1      -9.952  10.960  68.676  1.00  0.00    -0.196 C  
BRANCH   5   6
HETATM    6  C   UNL     1      -9.645  11.542  67.327  1.00  0.00    -0.183 C  
HETATM    7  C   UNL     1      -9.382  12.846  67.150  1.00  0.00    -0.229 C  
BRANCH   7   8
HETATM    8  C   UNL     1      -9.389  13.862  68.252  1.00  0.00    -0.209 C  
BRANCH   8   9
HETATM    9  C   UNL     1      -8.010  14.138  68.767  1.00  0.00    -0.102 C  
HETATM   10  C   UNL     1      -7.409  15.338  68.737  1.00  0.00    -0.131 C  
BRANCH  10  11
HETATM   11  C   UNL     1      -7.983  16.567  68.099  1.00  0.00    -0.163 C  
BRANCH  11  12
HETATM   12  C   UNL     1      -9.238  17.016  68.794  1.00  0.00    -0.252 C  
HETATM   13  C   UNL     1     -10.297  17.567  68.181  1.00  0.00    -0.375 C  
BRANCH  13  14
HETATM   14  C   UNL     1     -10.329  17.809  66.703  1.00  0.00    -0.345 C  
BRANCH  14  15
HETATM   15  C   UNL     1      -9.697  19.129  66.282  1.00  0.00    -0.412 C  
BRANCH  15  16
HETATM   16  C   UNL     1      -8.178  18.967  66.235  1.00  0.00    -0.283 C  
BRANCH  16  17
HETATM   17  C   UNL     1      -7.511  20.151  65.550  1.00  0.00    -0.186 C  
HETATM   18  C   UNL     1      -6.011  19.987  65.489  1.00  0.00    -0.189 C  
HETATM   19  O   UNL     1      -5.383  19.035  65.928  1.00  0.00    -0.144 OA 
HETATM   20  O   UNL     1      -5.407  21.034  64.881  1.00  0.00    -0.206 OA 
ENDBRANCH  16  17
ENDBRANCH  15  16
ENDBRANCH  14  15
ENDBRANCH  13  14
ENDBRANCH  11  12
ENDBRANCH  10  11
ENDBRANCH   8   9
ENDBRANCH   7   8
ENDBRANCH   5   6
ENDBRANCH   4   5
ENDBRANCH   3   4
ENDBRANCH   2   3
TORSDOF 12
ENDMDL
MODEL      444
REMARK 921   NORMALIZED FREE ENERGY PREDICTED BY IDOCK:   -2.06 KCAL/MOL
REMARK 922        TOTAL FREE ENERGY PREDICTED BY IDOCK:   -5.46 KCAL/MOL
REMARK 923 INTER-LIGAND FREE ENERGY PREDICTED BY IDOCK:   -3.87 KCAL/MOL
REMARK 924 INTRA-LIGAND FREE ENERGY PREDICTED BY IDOCK:   -1.59 KCAL/MOL
REMARK 927      BINDING AFFINITY PREDICTED BY RF-SCORE:    0.00 PKD
ROOT
HETATM    1  C   UNL     1      -7.179   4.441  68.812  1.00  0.00    -0.056 C  
HETATM    2  C   UNL     1      -7.608   4.007  67.421  1.00  0.00    -0.072 C  
ENDROOT
BRANCH   2   3
HETATM    3  C   UNL     1      -8.798   4.824  66.933  1.00  0.00    -0.110 C  
BRANCH   3   4
HETATM    4  C   UNL     1      -8.541   5.396  65.540  1.00  0.00    -0.148 C  
BRANCH   4   5
HETATM    5  C   UNL     1      -8.526   6.917  65.608  1.00  0.00    -0.141 C  
BRANCH   5   6
HETATM    6  C   UNL     1      -7.215   7.479  66.070  1.00  0.00    -0.070 C  
HETATM    7  C   UNL     1      -7.038   7.966  67.308  1.00  0.00    -0.083 C  
BRANCH   7   8
HETATM    8  C   UNL     1      -8.115   8.026  68.349  1.00  0.00    -0.122 C  
BRANCH   8   9
HETATM    9  C   UNL     1      -8.262   9.402  68.922  1.00  0.00    -0.111 C  
HETATM   10  C   UNL     1      -8.681   9.669  70.169  1.00  0.00    -0.263 C  
BRANCH  10  11
HETATM   11  C   UNL     1      -9.157   8.642  71.151  1.00  0.00    -0.263 C  
BRANCH  11  12
HETATM   12  C   UNL     1      -8.259   8.569  72.354  1.00  0.00    -0.156 C  
HETATM   13  C   UNL     1      -8.268   7.576  73.257  1.00  0.00    -0.163 C  
BRANCH  13  14
HETATM   14  C   UNL     1      -9.211   6.416  73.160  1.00  0.00    -0.134 C  
BRANCH  14  15
HETATM   15  C   UNL     1     -10.674   6.797  73.340  1.00  0.00    -0.332 C  
BRANCH  15  16
HETATM   16  C   UNL     1     -11.541   5.879  72.478  1.00  0.00    -0.327 C  
BRANCH  16  17
HETATM   17  C   UNL     1     -11.865   6.517  71.135  1.00  0.00    -0.383 C  
HETATM   18  C   UNL     1     -11.108   5.857  70.008  1.00  0.00    -0.341 C  
HETATM   19  O   UNL     1     -10.323   4.928  70.128  1.00  0.00    -0.265 OA 
HETATM   20  O   UNL     1     -11.389   6.415  68.807  1.00  0.00    -0.327 OA 
ENDBRANCH  16  17
ENDBRANCH  15  16
ENDBRANCH  14  15
ENDBRANCH  13  14
ENDBRANCH  11  12
ENDBRANCH  10  11
ENDBRANCH   8   9
ENDBRANCH   7   8
ENDBRANCH   5   6
ENDBRANCH   4   5
ENDBRANCH   3   4
ENDBRANCH   2   3
TORSDOF 12
ENDMDL
MODEL      445
REMARK 921   NORMALIZED FREE ENERGY PREDICTED BY IDOCK:   -2.03 KCAL/MOL
REMARK 922        TOTAL FREE ENERGY PREDICTED BY IDOCK:   -5.42 KCAL/MOL
REMARK 923 INTER-LIGAND FREE ENERGY PREDICTED BY IDOCK:   -4.61 KCAL/MOL
REMARK 924 INTRA-LIGAND FREE ENERGY PREDICTED BY IDOCK:   -0.80 KCAL/MOL
REMARK 927      BINDING AFFINITY PREDICTED BY RF-SCORE:    0.00 PKD
ROOT
HETATM    1  C   UNL     1     -11.873  14.456  70.459  1.00  0.00    -0.367 C  
HETATM    2  C   UNL     1     -10.949  14.255  69.271  1.00  0.00    -0.271 C  
ENDROOT
BRANCH   2   3
HETATM    3  C   UNL     1     -11.726  14.274  67.960  1.00  0.00    -0.386 C  
BRANCH   3   4
HETATM    4  C   UNL     1     -11.572  12.952  67.209  1.00  0.00    -0.416 C  
BRANCH   4   5
HETATM    5  C   UNL     1     -10.978  11.904  68.138  1.00  0.00    -0.272 C  
BRANCH   5   6
HETATM    6  C   UNL     1     -12.013  11.103  68.873  1.00  0.00    -0.367 C  
HETATM    7  C   UNL     1     -11.691  10.219  69.830  1.00  0.00    -0.298 C  
BRANCH   7   8
HETATM    8  C   UNL     1     -10.286   9.914  70.255  1.00  0.00    -0.339 C  
BRANCH   8   9
HETATM    9  C   UNL     1      -9.872   8.529  69.863  1.00  0.00    -0.186 C  
HETATM   10  C   UNL     1      -8.956   7.794  70.511  1.00  0.00    -0.150 C  
BRANCH  10  11
HETATM   11  C   UNL     1      -8.134   8.275  71.668  1.00  0.00    -0.167 C  
BRANCH  11  12
HETATM   12  C   UNL     1      -8.863   8.107  72.972  1.00  0.00    -0.316 C  
HETATM   13  C   UNL     1      -8.402   7.409  74.022  1.00  0.00    -0.217 C  
BRANCH  13  14
HETATM   14  C   UNL     1      -7.084   6.699  73.993  1.00  0.00    -0.083 C  
BRANCH  14  15
HETATM   15  C   UNL     1      -7.191   5.217  73.659  1.00  0.00    -0.083 C  
BRANCH  15  16
HETATM   16  C   UNL     1      -8.552   4.945  73.017  1.00  0.00    -0.110 C  
BRANCH  16  17
HETATM   17  C   UNL     1      -8.842   3.453  72.937  1.00  0.00    -0.094 C  
HETATM   18  C   UNL     1      -9.561   3.093  71.658  1.00  0.00    -0.157 C  
HETATM   19  O   UNL     1      -9.884   3.880  70.780  1.00  0.00    -0.194 OA 
HETATM   20  O   UNL     1      -9.824   1.769  71.575  1.00  0.00    -0.139 OA 
ENDBRANCH  16  17
ENDBRANCH  15  16
ENDBRANCH  14  15
ENDBRANCH  13  14
ENDBRANCH  11  12
ENDBRANCH  10  11
ENDBRANCH   8   9
ENDBRANCH   7   8
ENDBRANCH   5   6
ENDBRANCH   4   5
ENDBRANCH   3   4
ENDBRANCH   2   3
TORSDOF 12
ENDMDL
MODEL      446
REMARK 921   NORMALIZED FREE ENERGY PREDICTED BY IDOCK:   -2.03 KCAL/MOL
REMARK 922        TOTAL FREE ENERGY PREDICTED BY IDOCK:   -5.41 KCAL/MOL
REMARK 923 INTER-LIGAND FREE ENERGY PREDICTED BY IDOCK:   -4.13 KCAL/MOL
REMARK 924 INTRA-LIGAND FREE ENERGY PREDICTED BY IDOCK:   -1.28 KCAL/MOL
REMARK 927      BINDING AFFINITY PREDICTED BY RF-SCORE:    0.00 PKD
ROOT
HETATM    1  C   UNL     1     -10.714   8.912  68.275  1.00  0.00    -0.135 C  
HETATM    2  C   UNL     1     -10.540   9.799  69.495  1.00  0.00    -0.253 C  
ENDROOT
BRANCH   2   3
HETATM    3  C   UNL     1     -11.874  10.049  70.188  1.00  0.00    -0.245 C  
BRANCH   3   4
HETATM    4  C   UNL     1     -12.092   9.065  71.336  1.00  0.00    -0.392 C  
BRANCH   4   5
HETATM    5  C   UNL     1     -10.762   8.777  72.021  1.00  0.00    -0.417 C  
BRANCH   5   6
HETATM    6  C   UNL     1     -10.882   7.838  73.184  1.00  0.00    -0.401 C  
HETATM    7  C   UNL     1     -10.817   6.505  73.041  1.00  0.00    -0.291 C  
BRANCH   7   8
HETATM    8  C   UNL     1     -10.645   5.809  71.724  1.00  0.00    -0.293 C  
BRANCH   8   9
HETATM    9  C   UNL     1      -9.213   5.784  71.287  1.00  0.00    -0.161 C  
HETATM   10  C   UNL     1      -8.761   5.160  70.189  1.00  0.00    -0.128 C  
BRANCH  10  11
HETATM   11  C   UNL     1      -9.597   4.310  69.281  1.00  0.00    -0.261 C  
BRANCH  11  12
HETATM   12  C   UNL     1     -10.344   5.143  68.277  1.00  0.00    -0.140 C  
HETATM   13  C   UNL     1      -9.937   5.373  67.019  1.00  0.00    -0.204 C  
BRANCH  13  14
HETATM   14  C   UNL     1      -8.654   4.819  66.480  1.00  0.00    -0.109 C  
BRANCH  14  15
HETATM   15  C   UNL     1      -7.966   5.729  65.471  1.00  0.00    -0.115 C  
BRANCH  15  16
HETATM   16  C   UNL     1      -7.983   5.060  64.097  1.00  0.00    -0.105 C  
BRANCH  16  17
HETATM   17  C   UNL     1      -8.696   3.716  64.140  1.00  0.00    -0.101 C  
HETATM   18  C   UNL     1      -9.831   3.656  63.146  1.00  0.00    -0.147 C  
HETATM   19  O   UNL     1     -10.162   4.558  62.391  1.00  0.00    -0.092 OA 
HETATM   20  O   UNL     1     -10.472   2.464  63.174  1.00  0.00    -0.140 OA 
ENDBRANCH  16  17
ENDBRANCH  15  16
ENDBRANCH  14  15
ENDBRANCH  13  14
ENDBRANCH  11  12
ENDBRANCH  10  11
ENDBRANCH   8   9
ENDBRANCH   7   8
ENDBRANCH   5   6
ENDBRANCH   4   5
ENDBRANCH   3   4
ENDBRANCH   2   3
TORSDOF 12
ENDMDL
MODEL      447
REMARK 921   NORMALIZED FREE ENERGY PREDICTED BY IDOCK:   -2.03 KCAL/MOL
REMARK 922        TOTAL FREE ENERGY PREDICTED BY IDOCK:   -5.41 KCAL/MOL
REMARK 923 INTER-LIGAND FREE ENERGY PREDICTED BY IDOCK:   -4.52 KCAL/MOL
REMARK 924 INTRA-LIGAND FREE ENERGY PREDICTED BY IDOCK:   -0.89 KCAL/MOL
REMARK 927      BINDING AFFINITY PREDICTED BY RF-SCORE:    0.00 PKD
ROOT
HETATM    1  C   UNL     1      -9.799   3.713  70.408  1.00  0.00    -0.096 C  
HETATM    2  C   UNL     1      -9.049   4.498  71.469  1.00  0.00    -0.174 C  
ENDROOT
BRANCH   2   3
HETATM    3  C   UNL     1      -8.328   5.695  70.860  1.00  0.00    -0.124 C  
BRANCH   3   4
HETATM    4  C   UNL     1      -9.288   6.561  70.045  1.00  0.00    -0.160 C  
BRANCH   4   5
HETATM    5  C   UNL     1      -9.093   6.278  68.561  1.00  0.00    -0.125 C  
BRANCH   5   6
HETATM    6  C   UNL     1     -10.341   6.468  67.751  1.00  0.00    -0.234 C  
HETATM    7  C   UNL     1     -10.553   7.562  67.003  1.00  0.00    -0.409 C  
BRANCH   7   8
HETATM    8  C   UNL     1      -9.597   8.714  66.910  1.00  0.00    -0.254 C  
BRANCH   8   9
HETATM    9  C   UNL     1     -10.036   9.724  65.895  1.00  0.00    -0.345 C  
HETATM   10  C   UNL     1      -9.296  10.766  65.485  1.00  0.00    -0.242 C  
BRANCH  10  11
HETATM   11  C   UNL     1      -7.957  11.138  66.045  1.00  0.00    -0.041 C  
BRANCH  11  12
HETATM   12  C   UNL     1      -8.012  11.320  67.536  1.00  0.00    -0.124 C  
HETATM   13  C   UNL     1      -8.568  12.371  68.159  1.00  0.00    -0.185 C  
BRANCH  13  14
HETATM   14  C   UNL     1      -9.195  13.505  67.408  1.00  0.00    -0.223 C  
BRANCH  14  15
HETATM   15  C   UNL     1     -10.611  13.836  67.862  1.00  0.00    -0.257 C  
BRANCH  15  16
HETATM   16  C   UNL     1     -11.415  12.542  67.980  1.00  0.00    -0.368 C  
BRANCH  16  17
HETATM   17  C   UNL     1     -12.071  12.415  69.348  1.00  0.00    -0.237 C  
HETATM   18  C   UNL     1     -11.942  11.016  69.900  1.00  0.00    -0.351 C  
HETATM   19  O   UNL     1     -11.389  10.080  69.341  1.00  0.00    -0.215 OA 
HETATM   20  O   UNL     1     -12.520  10.891  71.117  1.00  0.00    -0.360 OA 
ENDBRANCH  16  17
ENDBRANCH  15  16
ENDBRANCH  14  15
ENDBRANCH  13  14
ENDBRANCH  11  12
ENDBRANCH  10  11
ENDBRANCH   8   9
ENDBRANCH   7   8
ENDBRANCH   5   6
ENDBRANCH   4   5
ENDBRANCH   3   4
ENDBRANCH   2   3
TORSDOF 12
ENDMDL
MODEL      448
REMARK 921   NORMALIZED FREE ENERGY PREDICTED BY IDOCK:   -2.03 KCAL/MOL
REMARK 922        TOTAL FREE ENERGY PREDICTED BY IDOCK:   -5.41 KCAL/MOL
REMARK 923 INTER-LIGAND FREE ENERGY PREDICTED BY IDOCK:   -3.86 KCAL/MOL
REMARK 924 INTRA-LIGAND FREE ENERGY PREDICTED BY IDOCK:   -1.55 KCAL/MOL
REMARK 927      BINDING AFFINITY PREDICTED BY RF-SCORE:    0.00 PKD
ROOT
HETATM    1  C   UNL     1     -10.995   9.227  71.490  1.00  0.00    -0.446 C  
HETATM    2  C   UNL     1     -11.120  10.405  70.539  1.00  0.00    -0.343 C  
ENDROOT
BRANCH   2   3
HETATM    3  C   UNL     1     -11.718   9.973  69.206  1.00  0.00     0.028 C  
BRANCH   3   4
HETATM    4  C   UNL     1     -10.628   9.545  68.225  1.00  0.00    -0.260 C  
BRANCH   4   5
HETATM    5  C   UNL     1     -10.157  10.754  67.428  1.00  0.00    -0.227 C  
BRANCH   5   6
HETATM    6  C   UNL     1     -10.403  10.628  65.953  1.00  0.00    -0.291 C  
HETATM    7  C   UNL     1      -9.542  10.009  65.131  1.00  0.00    -0.356 C  
BRANCH   7   8
HETATM    8  C   UNL     1      -8.245   9.402  65.575  1.00  0.00    -0.127 C  
BRANCH   8   9
HETATM    9  C   UNL     1      -7.978   8.094  64.896  1.00  0.00    -0.145 C  
HETATM   10  C   UNL     1      -8.404   6.902  65.340  1.00  0.00    -0.122 C  
BRANCH  10  11
HETATM   11  C   UNL     1      -9.131   6.680  66.632  1.00  0.00    -0.159 C  
BRANCH  11  12
HETATM   12  C   UNL     1      -8.177   6.527  67.784  1.00  0.00    -0.115 C  
HETATM   13  C   UNL     1      -8.218   5.532  68.685  1.00  0.00    -0.102 C  
BRANCH  13  14
HETATM   14  C   UNL     1      -9.256   4.453  68.637  1.00  0.00    -0.189 C  
BRANCH  14  15
HETATM   15  C   UNL     1      -8.967   3.281  69.566  1.00  0.00    -0.176 C  
BRANCH  15  16
HETATM   16  C   UNL     1      -8.997   3.769  71.015  1.00  0.00    -0.158 C  
BRANCH  16  17
HETATM   17  C   UNL     1     -10.403   4.165  71.441  1.00  0.00     0.017 C  
HETATM   18  C   UNL     1     -10.432   5.549  72.044  1.00  0.00    -0.222 C  
HETATM   19  O   UNL     1      -9.465   6.282  72.189  1.00  0.00    -0.152 OA 
HETATM   20  O   UNL     1     -11.678   5.914  72.427  1.00  0.00    -0.309 OA 
ENDBRANCH  16  17
ENDBRANCH  15  16
ENDBRANCH  14  15
ENDBRANCH  13  14
ENDBRANCH  11  12
ENDBRANCH  10  11
ENDBRANCH   8   9
ENDBRANCH   7   8
ENDBRANCH   5   6
ENDBRANCH   4   5
ENDBRANCH   3   4
ENDBRANCH   2   3
TORSDOF 12
ENDMDL
MODEL      449
REMARK 921   NORMALIZED FREE ENERGY PREDICTED BY IDOCK:   -2.03 KCAL/MOL
REMARK 922        TOTAL FREE ENERGY PREDICTED BY IDOCK:   -5.41 KCAL/MOL
REMARK 923 INTER-LIGAND FREE ENERGY PREDICTED BY IDOCK:   -4.57 KCAL/MOL
REMARK 924 INTRA-LIGAND FREE ENERGY PREDICTED BY IDOCK:   -0.84 KCAL/MOL
REMARK 927      BINDING AFFINITY PREDICTED BY RF-SCORE:    0.00 PKD
ROOT
HETATM    1  C   UNL     1      -9.578   3.196  70.933  1.00  0.00    -0.225 C  
HETATM    2  C   UNL     1      -8.885   4.336  71.659  1.00  0.00    -0.145 C  
ENDROOT
BRANCH   2   3
HETATM    3  C   UNL     1      -8.532   5.465  70.698  1.00  0.00    -0.119 C  
BRANCH   3   4
HETATM    4  C   UNL     1      -9.751   5.899  69.885  1.00  0.00    -0.208 C  
BRANCH   4   5
HETATM    5  C   UNL     1      -9.514   5.598  68.411  1.00  0.00    -0.142 C  
BRANCH   5   6
HETATM    6  C   UNL     1     -10.673   5.968  67.534  1.00  0.00    -0.383 C  
HETATM    7  C   UNL     1     -10.752   7.154  66.909  1.00  0.00    -0.363 C  
BRANCH   7   8
HETATM    8  C   UNL     1      -9.723   8.237  67.031  1.00  0.00    -0.274 C  
BRANCH   8   9
HETATM    9  C   UNL     1     -10.011   9.388  66.117  1.00  0.00    -0.351 C  
HETATM   10  C   UNL     1      -9.176  10.414  65.894  1.00  0.00    -0.205 C  
BRANCH  10  11
HETATM   11  C   UNL     1      -7.867  10.620  66.594  1.00  0.00    -0.135 C  
BRANCH  11  12
HETATM   12  C   UNL     1      -8.058  11.224  67.957  1.00  0.00    -0.128 C  
HETATM   13  C   UNL     1      -7.589  12.423  68.336  1.00  0.00    -0.129 C  
BRANCH  13  14
HETATM   14  C   UNL     1      -6.793  13.297  67.415  1.00  0.00    -0.098 C  
BRANCH  14  15
HETATM   15  C   UNL     1      -7.196  14.765  67.460  1.00  0.00    -0.222 C  
BRANCH  15  16
HETATM   16  C   UNL     1      -8.601  14.917  66.876  1.00  0.00    -0.269 C  
BRANCH  16  17
HETATM   17  C   UNL     1      -9.633  15.170  67.966  1.00  0.00    -0.204 C  
HETATM   18  C   UNL     1     -11.042  15.038  67.439  1.00  0.00    -0.324 C  
HETATM   19  O   UNL     1     -11.347  14.768  66.287  1.00  0.00    -0.343 OA 
HETATM   20  O   UNL     1     -11.970  15.259  68.399  1.00  0.00    -0.303 OA 
ENDBRANCH  16  17
ENDBRANCH  15  16
ENDBRANCH  14  15
ENDBRANCH  13  14
ENDBRANCH  11  12
ENDBRANCH  10  11
ENDBRANCH   8   9
ENDBRANCH   7   8
ENDBRANCH   5   6
ENDBRANCH   4   5
ENDBRANCH   3   4
ENDBRANCH   2   3
TORSDOF 12
ENDMDL
MODEL      450
REMARK 921   NORMALIZED FREE ENERGY PREDICTED BY IDOCK:   -2.03 KCAL/MOL
REMARK 922        TOTAL FREE ENERGY PREDICTED BY IDOCK:   -5.40 KCAL/MOL
REMARK 923 INTER-LIGAND FREE ENERGY PREDICTED BY IDOCK:   -3.77 KCAL/MOL
REMARK 924 INTRA-LIGAND FREE ENERGY PREDICTED BY IDOCK:   -1.63 KCAL/MOL
REMARK 927      BINDING AFFINITY PREDICTED BY RF-SCORE:    0.00 PKD
ROOT
HETATM    1  C   UNL     1      -5.885   8.717  72.775  1.00  0.00    -0.079 C  
HETATM    2  C   UNL     1      -7.049   8.652  71.803  1.00  0.00    -0.102 C  
ENDROOT
BRANCH   2   3
HETATM    3  C   UNL     1      -8.291   8.073  72.471  1.00  0.00    -0.211 C  
BRANCH   3   4
HETATM    4  C   UNL     1      -9.537   8.310  71.619  1.00  0.00    -0.261 C  
BRANCH   4   5
HETATM    5  C   UNL     1      -9.686   7.181  70.608  1.00  0.00    -0.175 C  
BRANCH   5   6
HETATM    6  C   UNL     1     -10.792   7.408  69.621  1.00  0.00    -0.222 C  
HETATM    7  C   UNL     1     -10.576   7.946  68.411  1.00  0.00    -0.154 C  
BRANCH   7   8
HETATM    8  C   UNL     1      -9.234   8.400  67.920  1.00  0.00    -0.144 C  
BRANCH   8   9
HETATM    9  C   UNL     1      -9.352   9.386  66.799  1.00  0.00    -0.202 C  
HETATM   10  C   UNL     1      -9.214  10.714  66.932  1.00  0.00    -0.172 C  
BRANCH  10  11
HETATM   11  C   UNL     1      -9.016  11.428  68.234  1.00  0.00    -0.175 C  
BRANCH  11  12
HETATM   12  C   UNL     1      -7.559  11.663  68.521  1.00  0.00    -0.127 C  
HETATM   13  C   UNL     1      -6.898  12.798  68.244  1.00  0.00    -0.090 C  
BRANCH  13  14
HETATM   14  C   UNL     1      -7.563  13.972  67.592  1.00  0.00    -0.191 C  
BRANCH  14  15
HETATM   15  C   UNL     1      -7.786  15.151  68.530  1.00  0.00    -0.135 C  
BRANCH  15  16
HETATM   16  C   UNL     1      -9.188  15.717  68.299  1.00  0.00    -0.188 C  
BRANCH  16  17
HETATM   17  C   UNL     1     -10.222  15.017  69.169  1.00  0.00    -0.241 C  
HETATM   18  C   UNL     1     -11.272  14.323  68.336  1.00  0.00    -0.269 C  
HETATM   19  O   UNL     1     -11.316  14.309  67.115  1.00  0.00    -0.309 OA 
HETATM   20  O   UNL     1     -12.198  13.696  69.099  1.00  0.00    -0.326 OA 
ENDBRANCH  16  17
ENDBRANCH  15  16
ENDBRANCH  14  15
ENDBRANCH  13  14
ENDBRANCH  11  12
ENDBRANCH  10  11
ENDBRANCH   8   9
ENDBRANCH   7   8
ENDBRANCH   5   6
ENDBRANCH   4   5
ENDBRANCH   3   4
ENDBRANCH   2   3
TORSDOF 12
ENDMDL
MODEL      451
REMARK 921   NORMALIZED FREE ENERGY PREDICTED BY IDOCK:   -2.02 KCAL/MOL
REMARK 922        TOTAL FREE ENERGY PREDICTED BY IDOCK:   -5.38 KCAL/MOL
REMARK 923 INTER-LIGAND FREE ENERGY PREDICTED BY IDOCK:   -3.76 KCAL/MOL
REMARK 924 INTRA-LIGAND FREE ENERGY PREDICTED BY IDOCK:   -1.62 KCAL/MOL
REMARK 927      BINDING AFFINITY PREDICTED BY RF-SCORE:    0.00 PKD
ROOT
HETATM    1  C   UNL     1     -12.137  11.489  69.801  1.00  0.00    -0.374 C  
HETATM    2  C   UNL     1     -11.584  11.521  68.388  1.00  0.00    -0.375 C  
ENDROOT
BRANCH   2   3
HETATM    3  C   UNL     1     -10.844  10.230  68.058  1.00  0.00    -0.325 C  
BRANCH   3   4
HETATM    4  C   UNL     1     -10.377   9.522  69.328  1.00  0.00    -0.219 C  
BRANCH   4   5
HETATM    5  C   UNL     1      -9.017  10.065  69.744  1.00  0.00    -0.209 C  
BRANCH   5   6
HETATM    6  C   UNL     1      -8.078   9.006  70.239  1.00  0.00    -0.141 C  
HETATM    7  C   UNL     1      -7.103   8.493  69.472  1.00  0.00    -0.052 C  
BRANCH   7   8
HETATM    8  C   UNL     1      -6.856   8.893  68.048  1.00  0.00    -0.070 C  
BRANCH   8   9
HETATM    9  C   UNL     1      -7.807   8.222  67.106  1.00  0.00    -0.097 C  
HETATM   10  C   UNL     1      -7.942   6.893  66.975  1.00  0.00    -0.116 C  
BRANCH  10  11
HETATM   11  C   UNL     1      -7.099   5.874  67.677  1.00  0.00    -0.074 C  
BRANCH  11  12
HETATM   12  C   UNL     1      -7.620   4.480  67.461  1.00  0.00    -0.078 C  
HETATM   13  C   UNL     1      -8.464   3.842  68.287  1.00  0.00    -0.108 C  
BRANCH  13  14
HETATM   14  C   UNL     1      -8.973   4.468  69.549  1.00  0.00    -0.142 C  
BRANCH  14  15
HETATM   15  C   UNL     1     -10.311   5.177  69.388  1.00  0.00    -0.265 C  
BRANCH  15  16
HETATM   16  C   UNL     1     -10.706   5.813  70.721  1.00  0.00    -0.342 C  
BRANCH  16  17
HETATM   17  C   UNL     1      -9.653   5.565  71.791  1.00  0.00    -0.183 C  
HETATM   18  C   UNL     1      -9.907   6.397  73.025  1.00  0.00    -0.165 C  
HETATM   19  O   UNL     1     -10.832   7.182  73.174  1.00  0.00    -0.300 OA 
HETATM   20  O   UNL     1      -8.977   6.185  73.985  1.00  0.00    -0.125 OA 
ENDBRANCH  16  17
ENDBRANCH  15  16
ENDBRANCH  14  15
ENDBRANCH  13  14
ENDBRANCH  11  12
ENDBRANCH  10  11
ENDBRANCH   8   9
ENDBRANCH   7   8
ENDBRANCH   5   6
ENDBRANCH   4   5
ENDBRANCH   3   4
ENDBRANCH   2   3
TORSDOF 12
ENDMDL
MODEL      452
REMARK 921   NORMALIZED FREE ENERGY PREDICTED BY IDOCK:   -2.00 KCAL/MOL
REMARK 922        TOTAL FREE ENERGY PREDICTED BY IDOCK:   -5.35 KCAL/MOL
REMARK 923 INTER-LIGAND FREE ENERGY PREDICTED BY IDOCK:   -3.62 KCAL/MOL
REMARK 924 INTRA-LIGAND FREE ENERGY PREDICTED BY IDOCK:   -1.74 KCAL/MOL
REMARK 927      BINDING AFFINITY PREDICTED BY RF-SCORE:    0.00 PKD
ROOT
HETATM    1  C   UNL     1     -10.133   7.719  73.102  1.00  0.00    -0.390 C  
HETATM    2  C   UNL     1     -10.949   8.396  72.016  1.00  0.00    -0.394 C  
ENDROOT
BRANCH   2   3
HETATM    3  C   UNL     1     -10.571   7.870  70.636  1.00  0.00    -0.221 C  
BRANCH   3   4
HETATM    4  C   UNL     1     -11.473   6.709  70.222  1.00  0.00    -0.449 C  
BRANCH   4   5
HETATM    5  C   UNL     1     -10.685   5.408  70.273  1.00  0.00    -0.286 C  
BRANCH   5   6
HETATM    6  C   UNL     1      -9.239   5.572  69.910  1.00  0.00    -0.170 C  
HETATM    7  C   UNL     1      -8.720   5.071  68.778  1.00  0.00    -0.101 C  
BRANCH   7   8
HETATM    8  C   UNL     1      -9.503   4.281  67.773  1.00  0.00    -0.215 C  
BRANCH   8   9
HETATM    9  C   UNL     1      -9.973   5.133  66.635  1.00  0.00    -0.235 C  
HETATM   10  C   UNL     1      -9.438   5.126  65.405  1.00  0.00    -0.055 C  
BRANCH  10  11
HETATM   11  C   UNL     1      -8.228   4.340  65.001  1.00  0.00    -0.103 C  
BRANCH  11  12
HETATM   12  C   UNL     1      -6.967   4.942  65.554  1.00  0.00    -0.062 C  
HETATM   13  C   UNL     1      -6.338   6.010  65.038  1.00  0.00    -0.037 C  
BRANCH  13  14
HETATM   14  C   UNL     1      -6.839   6.719  63.816  1.00  0.00    -0.053 C  
BRANCH  14  15
HETATM   15  C   UNL     1      -7.048   8.214  64.015  1.00  0.00    -0.087 C  
BRANCH  15  16
HETATM   16  C   UNL     1      -8.380   8.444  64.729  1.00  0.00    -0.151 C  
BRANCH  16  17
HETATM   17  C   UNL     1      -8.177   9.063  66.104  1.00  0.00    -0.115 C  
HETATM   18  C   UNL     1      -8.711  10.473  66.165  1.00  0.00    -0.158 C  
HETATM   19  O   UNL     1      -9.243  11.072  65.241  1.00  0.00    -0.204 OA 
HETATM   20  O   UNL     1      -8.537  11.034  67.384  1.00  0.00    -0.130 OA 
ENDBRANCH  16  17
ENDBRANCH  15  16
ENDBRANCH  14  15
ENDBRANCH  13  14
ENDBRANCH  11  12
ENDBRANCH  10  11
ENDBRANCH   8   9
ENDBRANCH   7   8
ENDBRANCH   5   6
ENDBRANCH   4   5
ENDBRANCH   3   4
ENDBRANCH   2   3
TORSDOF 12
ENDMDL
MODEL      453
REMARK 921   NORMALIZED FREE ENERGY PREDICTED BY IDOCK:   -1.97 KCAL/MOL
REMARK 922        TOTAL FREE ENERGY PREDICTED BY IDOCK:   -5.30 KCAL/MOL
REMARK 923 INTER-LIGAND FREE ENERGY PREDICTED BY IDOCK:   -4.22 KCAL/MOL
REMARK 924 INTRA-LIGAND FREE ENERGY PREDICTED BY IDOCK:   -1.08 KCAL/MOL
REMARK 927      BINDING AFFINITY PREDICTED BY RF-SCORE:    0.00 PKD
ROOT
HETATM    1  C   UNL     1     -11.430  15.677  68.476  1.00  0.00    -0.380 C  
HETATM    2  C   UNL     1     -11.709  14.185  68.483  1.00  0.00    -0.380 C  
ENDROOT
BRANCH   2   3
HETATM    3  C   UNL     1     -12.130  13.699  67.101  1.00  0.00    -0.404 C  
BRANCH   3   4
HETATM    4  C   UNL     1     -11.162  12.645  66.567  1.00  0.00    -0.342 C  
BRANCH   4   5
HETATM    5  C   UNL     1     -10.802  12.968  65.123  1.00  0.00    -0.320 C  
BRANCH   5   6
HETATM    6  C   UNL     1     -11.197  11.891  64.156  1.00  0.00    -0.446 C  
HETATM    7  C   UNL     1     -10.447  10.796  63.954  1.00  0.00    -0.251 C  
BRANCH   7   8
HETATM    8  C   UNL     1      -9.139  10.536  64.638  1.00  0.00    -0.248 C  
BRANCH   8   9
HETATM    9  C   UNL     1      -8.016  10.386  63.659  1.00  0.00    -0.092 C  
HETATM   10  C   UNL     1      -7.536   9.212  63.221  1.00  0.00    -0.107 C  
BRANCH  10  11
HETATM   11  C   UNL     1      -7.981   7.868  63.713  1.00  0.00    -0.119 C  
BRANCH  11  12
HETATM   12  C   UNL     1      -7.854   6.818  62.645  1.00  0.00    -0.108 C  
HETATM   13  C   UNL     1      -7.468   5.550  62.860  1.00  0.00    -0.053 C  
BRANCH  13  14
HETATM   14  C   UNL     1      -7.103   5.046  64.222  1.00  0.00    -0.050 C  
BRANCH  14  15
HETATM   15  C   UNL     1      -7.743   3.710  64.575  1.00  0.00    -0.081 C  
BRANCH  15  16
HETATM   16  C   UNL     1      -8.225   3.751  66.025  1.00  0.00    -0.101 C  
BRANCH  16  17
HETATM   17  C   UNL     1      -8.376   5.182  66.522  1.00  0.00    -0.108 C  
HETATM   18  C   UNL     1      -9.804   5.660  66.416  1.00  0.00    -0.154 C  
HETATM   19  O   UNL     1     -10.743   5.005  65.987  1.00  0.00    -0.298 OA 
HETATM   20  O   UNL     1      -9.952   6.931  66.856  1.00  0.00    -0.176 OA 
ENDBRANCH  16  17
ENDBRANCH  15  16
ENDBRANCH  14  15
ENDBRANCH  13  14
ENDBRANCH  11  12
ENDBRANCH  10  11
ENDBRANCH   8   9
ENDBRANCH   7   8
ENDBRANCH   5   6
ENDBRANCH   4   5
ENDBRANCH   3   4
ENDBRANCH   2   3
TORSDOF 12
ENDMDL
MODEL      454
REMARK 921   NORMALIZED FREE ENERGY PREDICTED BY IDOCK:   -1.94 KCAL/MOL
REMARK 922        TOTAL FREE ENERGY PREDICTED BY IDOCK:   -5.26 KCAL/MOL
REMARK 923 INTER-LIGAND FREE ENERGY PREDICTED BY IDOCK:   -3.06 KCAL/MOL
REMARK 924 INTRA-LIGAND FREE ENERGY PREDICTED BY IDOCK:   -2.21 KCAL/MOL
REMARK 927      BINDING AFFINITY PREDICTED BY RF-SCORE:    0.00 PKD
ROOT
HETATM    1  C   UNL     1      -8.388   9.066  71.190  1.00  0.00    -0.212 C  
HETATM    2  C   UNL     1      -9.816   9.283  70.722  1.00  0.00    -0.350 C  
ENDROOT
BRANCH   2   3
HETATM    3  C   UNL     1     -10.105   8.491  69.453  1.00  0.00    -0.205 C  
BRANCH   3   4
HETATM    4  C   UNL     1     -10.295   9.419  68.254  1.00  0.00    -0.251 C  
BRANCH   4   5
HETATM    5  C   UNL     1     -10.657   8.596  67.025  1.00  0.00    -0.293 C  
BRANCH   5   6
HETATM    6  C   UNL     1      -9.635   8.681  65.930  1.00  0.00    -0.210 C  
HETATM    7  C   UNL     1      -8.650   7.779  65.795  1.00  0.00    -0.162 C  
BRANCH   7   8
HETATM    8  C   UNL     1      -8.442   6.618  66.720  1.00  0.00    -0.117 C  
BRANCH   8   9
HETATM    9  C   UNL     1      -9.330   5.463  66.376  1.00  0.00    -0.157 C  
HETATM   10  C   UNL     1      -8.901   4.215  66.134  1.00  0.00    -0.118 C  
BRANCH  10  11
HETATM   11  C   UNL     1      -7.462   3.800  66.076  1.00  0.00    -0.080 C  
BRANCH  11  12
HETATM   12  C   UNL     1      -7.205   2.575  66.909  1.00  0.00    -0.057 C  
HETATM   13  C   UNL     1      -6.642   2.582  68.128  1.00  0.00    -0.035 C  
BRANCH  13  14
HETATM   14  C   UNL     1      -6.189   3.846  68.792  1.00  0.00    -0.032 C  
BRANCH  14  15
HETATM   15  C   UNL     1      -6.797   4.069  70.170  1.00  0.00    -0.034 C  
BRANCH  15  16
HETATM   16  C   UNL     1      -7.594   5.374  70.163  1.00  0.00    -0.073 C  
BRANCH  16  17
HETATM   17  C   UNL     1      -9.092   5.113  70.233  1.00  0.00    -0.164 C  
HETATM   18  C   UNL     1      -9.683   5.614  71.529  1.00  0.00    -0.161 C  
HETATM   19  O   UNL     1      -9.063   6.160  72.429  1.00  0.00    -0.137 OA 
HETATM   20  O   UNL     1     -11.016   5.388  71.604  1.00  0.00    -0.209 OA 
ENDBRANCH  16  17
ENDBRANCH  15  16
ENDBRANCH  14  15
ENDBRANCH  13  14
ENDBRANCH  11  12
ENDBRANCH  10  11
ENDBRANCH   8   9
ENDBRANCH   7   8
ENDBRANCH   5   6
ENDBRANCH   4   5
ENDBRANCH   3   4
ENDBRANCH   2   3
TORSDOF 12
ENDMDL
MODEL      455
REMARK 921   NORMALIZED FREE ENERGY PREDICTED BY IDOCK:   -1.94 KCAL/MOL
REMARK 922        TOTAL FREE ENERGY PREDICTED BY IDOCK:   -5.26 KCAL/MOL
REMARK 923 INTER-LIGAND FREE ENERGY PREDICTED BY IDOCK:   -4.11 KCAL/MOL
REMARK 924 INTRA-LIGAND FREE ENERGY PREDICTED BY IDOCK:   -1.15 KCAL/MOL
REMARK 927      BINDING AFFINITY PREDICTED BY RF-SCORE:    0.00 PKD
ROOT
HETATM    1  C   UNL     1     -13.084  13.489  71.456  1.00  0.00    -0.427 C  
HETATM    2  C   UNL     1     -11.836  13.924  70.709  1.00  0.00    -0.257 C  
ENDROOT
BRANCH   2   3
HETATM    3  C   UNL     1     -12.004  13.742  69.205  1.00  0.00    -0.399 C  
BRANCH   3   4
HETATM    4  C   UNL     1     -10.925  12.822  68.636  1.00  0.00    -0.295 C  
BRANCH   4   5
HETATM    5  C   UNL     1     -10.967  11.481  69.355  1.00  0.00    -0.233 C  
BRANCH   5   6
HETATM    6  C   UNL     1     -11.272  10.327  68.446  1.00  0.00    -0.284 C  
HETATM    7  C   UNL     1     -11.150   9.050  68.840  1.00  0.00     0.125 C  
BRANCH   7   8
HETATM    8  C   UNL     1     -10.680   8.632  70.201  1.00  0.00    -0.244 C  
BRANCH   8   9
HETATM    9  C   UNL     1      -9.199   8.417  70.239  1.00  0.00    -0.154 C  
HETATM   10  C   UNL     1      -8.603   7.226  70.405  1.00  0.00    -0.144 C  
BRANCH  10  11
HETATM   11  C   UNL     1      -9.323   5.939  70.673  1.00  0.00    -0.181 C  
BRANCH  11  12
HETATM   12  C   UNL     1     -10.483   5.748  69.736  1.00  0.00    -0.363 C  
HETATM   13  C   UNL     1     -10.373   5.509  68.420  1.00  0.00    -0.243 C  
BRANCH  13  14
HETATM   14  C   UNL     1      -9.044   5.420  67.732  1.00  0.00    -0.111 C  
BRANCH  14  15
HETATM   15  C   UNL     1      -8.963   6.228  66.444  1.00  0.00    -0.159 C  
BRANCH  15  16
HETATM   16  C   UNL     1      -8.160   7.504  66.703  1.00  0.00    -0.123 C  
BRANCH  16  17
HETATM   17  C   UNL     1      -8.663   8.661  65.852  1.00  0.00    -0.201 C  
HETATM   18  C   UNL     1      -8.430   9.991  66.527  1.00  0.00    -0.126 C  
HETATM   19  O   UNL     1      -7.909  10.150  67.621  1.00  0.00    -0.098 OA 
HETATM   20  O   UNL     1      -8.873  11.029  65.780  1.00  0.00    -0.190 OA 
ENDBRANCH  16  17
ENDBRANCH  15  16
ENDBRANCH  14  15
ENDBRANCH  13  14
ENDBRANCH  11  12
ENDBRANCH  10  11
ENDBRANCH   8   9
ENDBRANCH   7   8
ENDBRANCH   5   6
ENDBRANCH   4   5
ENDBRANCH   3   4
ENDBRANCH   2   3
TORSDOF 12
ENDMDL
MODEL      456
REMARK 921   NORMALIZED FREE ENERGY PREDICTED BY IDOCK:   -1.92 KCAL/MOL
REMARK 922        TOTAL FREE ENERGY PREDICTED BY IDOCK:   -5.22 KCAL/MOL
REMARK 923 INTER-LIGAND FREE ENERGY PREDICTED BY IDOCK:   -3.28 KCAL/MOL
REMARK 924 INTRA-LIGAND FREE ENERGY PREDICTED BY IDOCK:   -1.94 KCAL/MOL
REMARK 927      BINDING AFFINITY PREDICTED BY RF-SCORE:    0.00 PKD
ROOT
HETATM    1  C   UNL     1      -5.480   7.974  71.146  1.00  0.00    -0.033 C  
HETATM    2  C   UNL     1      -6.596   8.733  71.840  1.00  0.00    -0.064 C  
ENDROOT
BRANCH   2   3
HETATM    3  C   UNL     1      -7.814   7.843  72.058  1.00  0.00    -0.123 C  
BRANCH   3   4
HETATM    4  C   UNL     1      -9.082   8.676  72.238  1.00  0.00    -0.267 C  
BRANCH   4   5
HETATM    5  C   UNL     1     -10.127   7.859  72.984  1.00  0.00    -0.384 C  
BRANCH   5   6
HETATM    6  C   UNL     1     -11.535   8.180  72.579  1.00  0.00    -0.470 C  
HETATM    7  C   UNL     1     -12.140   7.577  71.543  1.00  0.00    -0.345 C  
BRANCH   7   8
HETATM    8  C   UNL     1     -11.485   6.549  70.670  1.00  0.00    -0.433 C  
BRANCH   8   9
HETATM    9  C   UNL     1     -11.047   7.126  69.359  1.00  0.00    -0.141 C  
HETATM   10  C   UNL     1     -10.075   6.617  68.588  1.00  0.00    -0.169 C  
BRANCH  10  11
HETATM   11  C   UNL     1      -9.210   5.451  68.958  1.00  0.00    -0.149 C  
BRANCH  11  12
HETATM   12  C   UNL     1      -7.769   5.855  69.104  1.00  0.00    -0.091 C  
HETATM   13  C   UNL     1      -6.866   5.844  68.111  1.00  0.00    -0.067 C  
BRANCH  13  14
HETATM   14  C   UNL     1      -7.212   5.401  66.722  1.00  0.00    -0.078 C  
BRANCH  14  15
HETATM   15  C   UNL     1      -7.689   6.530  65.818  1.00  0.00    -0.092 C  
BRANCH  15  16
HETATM   16  C   UNL     1      -9.068   6.176  65.259  1.00  0.00     0.197 C  
BRANCH  16  17
HETATM   17  C   UNL     1      -9.397   4.706  65.477  1.00  0.00    -0.159 C  
HETATM   18  C   UNL     1      -9.259   3.910  64.201  1.00  0.00    -0.145 C  
HETATM   19  O   UNL     1      -8.930   4.362  63.114  1.00  0.00    -0.122 OA 
HETATM   20  O   UNL     1      -9.549   2.600  64.382  1.00  0.00    -0.144 OA 
ENDBRANCH  16  17
ENDBRANCH  15  16
ENDBRANCH  14  15
ENDBRANCH  13  14
ENDBRANCH  11  12
ENDBRANCH  10  11
ENDBRANCH   8   9
ENDBRANCH   7   8
ENDBRANCH   5   6
ENDBRANCH   4   5
ENDBRANCH   3   4
ENDBRANCH   2   3
TORSDOF 12
ENDMDL
MODEL      457
REMARK 921   NORMALIZED FREE ENERGY PREDICTED BY IDOCK:   -1.90 KCAL/MOL
REMARK 922        TOTAL FREE ENERGY PREDICTED BY IDOCK:   -5.19 KCAL/MOL
REMARK 923 INTER-LIGAND FREE ENERGY PREDICTED BY IDOCK:   -5.04 KCAL/MOL
REMARK 924 INTRA-LIGAND FREE ENERGY PREDICTED BY IDOCK:   -0.15 KCAL/MOL
REMARK 927      BINDING AFFINITY PREDICTED BY RF-SCORE:    0.00 PKD
ROOT
HETATM    1  C   UNL     1     -11.440  15.697  68.482  1.00  0.00    -0.380 C  
HETATM    2  C   UNL     1     -11.768  14.214  68.505  1.00  0.00    -0.380 C  
ENDROOT
BRANCH   2   3
HETATM    3  C   UNL     1     -12.104  13.705  67.108  1.00  0.00    -0.404 C  
BRANCH   3   4
HETATM    4  C   UNL     1     -11.173  12.565  66.699  1.00  0.00    -0.357 C  
BRANCH   4   5
HETATM    5  C   UNL     1     -10.634  12.825  65.299  1.00  0.00    -0.312 C  
BRANCH   5   6
HETATM    6  C   UNL     1     -11.006  11.760  64.310  1.00  0.00    -0.419 C  
HETATM    7  C   UNL     1     -10.375  10.576  64.257  1.00  0.00    -0.208 C  
BRANCH   7   8
HETATM    8  C   UNL     1      -9.230  10.195  65.147  1.00  0.00    -0.262 C  
BRANCH   8   9
HETATM    9  C   UNL     1      -8.873   8.747  65.009  1.00  0.00    -0.151 C  
HETATM   10  C   UNL     1      -9.308   7.772  65.821  1.00  0.00     0.068 C  
BRANCH  10  11
HETATM   11  C   UNL     1     -10.141   7.988  67.048  1.00  0.00    -0.350 C  
BRANCH  11  12
HETATM   12  C   UNL     1     -11.038   6.814  67.322  1.00  0.00    -0.394 C  
HETATM   13  C   UNL     1     -11.352   6.359  68.545  1.00  0.00    -0.187 C  
BRANCH  13  14
HETATM   14  C   UNL     1     -10.812   6.986  69.794  1.00  0.00    -0.276 C  
BRANCH  14  15
HETATM   15  C   UNL     1      -9.365   7.448  69.674  1.00  0.00    -0.149 C  
BRANCH  15  16
HETATM   16  C   UNL     1      -8.613   7.078  70.953  1.00  0.00    -0.139 C  
BRANCH  16  17
HETATM   17  C   UNL     1      -9.333   5.984  71.727  1.00  0.00    -0.158 C  
HETATM   18  C   UNL     1      -9.637   6.412  73.143  1.00  0.00    -0.150 C  
HETATM   19  O   UNL     1      -9.351   7.494  73.635  1.00  0.00    -0.234 OA 
HETATM   20  O   UNL     1     -10.279   5.447  73.842  1.00  0.00    -0.195 OA 
ENDBRANCH  16  17
ENDBRANCH  15  16
ENDBRANCH  14  15
ENDBRANCH  13  14
ENDBRANCH  11  12
ENDBRANCH  10  11
ENDBRANCH   8   9
ENDBRANCH   7   8
ENDBRANCH   5   6
ENDBRANCH   4   5
ENDBRANCH   3   4
ENDBRANCH   2   3
TORSDOF 12
ENDMDL
MODEL      458
REMARK 921   NORMALIZED FREE ENERGY PREDICTED BY IDOCK:   -1.90 KCAL/MOL
REMARK 922        TOTAL FREE ENERGY PREDICTED BY IDOCK:   -5.18 KCAL/MOL
REMARK 923 INTER-LIGAND FREE ENERGY PREDICTED BY IDOCK:   -3.60 KCAL/MOL
REMARK 924 INTRA-LIGAND FREE ENERGY PREDICTED BY IDOCK:   -1.59 KCAL/MOL
REMARK 927      BINDING AFFINITY PREDICTED BY RF-SCORE:    0.00 PKD
ROOT
HETATM    1  C   UNL     1      -9.900   9.255  66.216  1.00  0.00    -0.361 C  
HETATM    2  C   UNL     1      -8.479   9.522  66.679  1.00  0.00    -0.136 C  
ENDROOT
BRANCH   2   3
HETATM    3  C   UNL     1      -7.465   9.008  65.665  1.00  0.00    -0.086 C  
BRANCH   3   4
HETATM    4  C   UNL     1      -8.010   7.802  64.902  1.00  0.00    -0.139 C  
BRANCH   4   5
HETATM    5  C   UNL     1      -7.479   6.519  65.527  1.00  0.00    -0.083 C  
BRANCH   5   6
HETATM    6  C   UNL     1      -8.427   5.363  65.412  1.00  0.00    -0.144 C  
HETATM    7  C   UNL     1      -8.867   4.684  66.483  1.00  0.00    -0.111 C  
BRANCH   7   8
HETATM    8  C   UNL     1      -8.451   4.978  67.893  1.00  0.00    -0.104 C  
BRANCH   8   9
HETATM    9  C   UNL     1      -8.104   3.731  68.646  1.00  0.00    -0.079 C  
HETATM   10  C   UNL     1      -8.187   3.596  69.978  1.00  0.00    -0.070 C  
BRANCH  10  11
HETATM   11  C   UNL     1      -8.546   4.696  70.930  1.00  0.00    -0.124 C  
BRANCH  11  12
HETATM   12  C   UNL     1      -9.465   4.211  72.016  1.00  0.00    -0.195 C  
HETATM   13  C   UNL     1     -10.035   4.995  72.945  1.00  0.00    -0.192 C  
BRANCH  13  14
HETATM   14  C   UNL     1      -9.792   6.472  73.001  1.00  0.00    -0.178 C  
BRANCH  14  15
HETATM   15  C   UNL     1     -11.048   7.291  73.268  1.00  0.00    -0.281 C  
BRANCH  15  16
HETATM   16  C   UNL     1     -11.290   8.238  72.092  1.00  0.00    -0.419 C  
BRANCH  16  17
HETATM   17  C   UNL     1     -11.743   7.482  70.851  1.00  0.00    -0.307 C  
HETATM   18  C   UNL     1     -10.719   7.564  69.744  1.00  0.00    -0.242 C  
HETATM   19  O   UNL     1      -9.653   8.158  69.806  1.00  0.00    -0.170 OA 
HETATM   20  O   UNL     1     -11.110   6.894  68.635  1.00  0.00    -0.175 OA 
ENDBRANCH  16  17
ENDBRANCH  15  16
ENDBRANCH  14  15
ENDBRANCH  13  14
ENDBRANCH  11  12
ENDBRANCH  10  11
ENDBRANCH   8   9
ENDBRANCH   7   8
ENDBRANCH   5   6
ENDBRANCH   4   5
ENDBRANCH   3   4
ENDBRANCH   2   3
TORSDOF 12
ENDMDL
MODEL      459
REMARK 921   NORMALIZED FREE ENERGY PREDICTED BY IDOCK:   -1.89 KCAL/MOL
REMARK 922        TOTAL FREE ENERGY PREDICTED BY IDOCK:   -5.17 KCAL/MOL
REMARK 923 INTER-LIGAND FREE ENERGY PREDICTED BY IDOCK:   -4.20 KCAL/MOL
REMARK 924 INTRA-LIGAND FREE ENERGY PREDICTED BY IDOCK:   -0.97 KCAL/MOL
REMARK 927      BINDING AFFINITY PREDICTED BY RF-SCORE:    0.00 PKD
ROOT
HETATM    1  C   UNL     1     -10.385   5.543  70.454  1.00  0.00    -0.346 C  
HETATM    2  C   UNL     1     -11.524   6.081  71.301  1.00  0.00    -0.251 C  
ENDROOT
BRANCH   2   3
HETATM    3  C   UNL     1     -11.983   7.446  70.803  1.00  0.00    -0.261 C  
BRANCH   3   4
HETATM    4  C   UNL     1     -10.877   8.147  70.016  1.00  0.00    -0.233 C  
BRANCH   4   5
HETATM    5  C   UNL     1     -11.101   9.652  70.052  1.00  0.00    -0.293 C  
BRANCH   5   6
HETATM    6  C   UNL     1      -9.911  10.443  69.597  1.00  0.00    -0.179 C  
HETATM    7  C   UNL     1     -10.024  11.525  68.811  1.00  0.00    -0.169 C  
BRANCH   7   8
HETATM    8  C   UNL     1     -11.327  12.048  68.284  1.00  0.00    -0.342 C  
BRANCH   8   9
HETATM    9  C   UNL     1     -11.344  12.103  66.788  1.00  0.00    -0.398 C  
HETATM   10  C   UNL     1     -11.833  13.123  66.067  1.00  0.00    -0.457 C  
BRANCH  10  11
HETATM   11  C   UNL     1     -12.526  14.322  66.640  1.00  0.00    -0.192 C  
BRANCH  11  12
HETATM   12  C   UNL     1     -11.928  15.603  66.129  1.00  0.00     0.777 C  
HETATM   13  C   UNL     1     -10.785  16.147  66.575  1.00  0.00    -0.220 C  
BRANCH  13  14
HETATM   14  C   UNL     1      -9.975  15.519  67.669  1.00  0.00    -0.233 C  
BRANCH  14  15
HETATM   15  C   UNL     1      -9.489  16.509  68.720  1.00  0.00    -0.246 C  
BRANCH  15  16
HETATM   16  C   UNL     1      -8.228  17.205  68.208  1.00  0.00    -0.230 C  
BRANCH  16  17
HETATM   17  C   UNL     1      -7.027  16.905  69.094  1.00  0.00    -0.234 C  
HETATM   18  C   UNL     1      -6.205  18.144  69.354  1.00  0.00    -0.251 C  
HETATM   19  O   UNL     1      -6.445  19.261  68.919  1.00  0.00    -0.250 OA 
HETATM   20  O   UNL     1      -5.134  17.891  70.142  1.00  0.00    -0.187 OA 
ENDBRANCH  16  17
ENDBRANCH  15  16
ENDBRANCH  14  15
ENDBRANCH  13  14
ENDBRANCH  11  12
ENDBRANCH  10  11
ENDBRANCH   8   9
ENDBRANCH   7   8
ENDBRANCH   5   6
ENDBRANCH   4   5
ENDBRANCH   3   4
ENDBRANCH   2   3
TORSDOF 12
ENDMDL
MODEL      460
REMARK 921   NORMALIZED FREE ENERGY PREDICTED BY IDOCK:   -1.88 KCAL/MOL
REMARK 922        TOTAL FREE ENERGY PREDICTED BY IDOCK:   -5.16 KCAL/MOL
REMARK 923 INTER-LIGAND FREE ENERGY PREDICTED BY IDOCK:   -2.87 KCAL/MOL
REMARK 924 INTRA-LIGAND FREE ENERGY PREDICTED BY IDOCK:   -2.29 KCAL/MOL
REMARK 927      BINDING AFFINITY PREDICTED BY RF-SCORE:    0.00 PKD
ROOT
HETATM    1  C   UNL     1      -9.577   5.330  70.222  1.00  0.00    -0.241 C  
HETATM    2  C   UNL     1      -9.656   5.966  68.846  1.00  0.00    -0.158 C  
ENDROOT
BRANCH   2   3
HETATM    3  C   UNL     1     -10.309   5.024  67.841  1.00  0.00    -0.101 C  
BRANCH   3   4
HETATM    4  C   UNL     1      -9.476   3.758  67.650  1.00  0.00    -0.234 C  
BRANCH   4   5
HETATM    5  C   UNL     1      -8.152   4.113  66.987  1.00  0.00    -0.100 C  
BRANCH   5   6
HETATM    6  C   UNL     1      -8.139   3.859  65.509  1.00  0.00    -0.101 C  
HETATM    7  C   UNL     1      -8.232   4.849  64.608  1.00  0.00    -0.124 C  
BRANCH   7   8
HETATM    8  C   UNL     1      -8.384   6.297  64.965  1.00  0.00    -0.099 C  
BRANCH   8   9
HETATM    9  C   UNL     1      -7.106   7.056  64.779  1.00  0.00    -0.060 C  
HETATM   10  C   UNL     1      -6.370   7.567  65.777  1.00  0.00    -0.042 C  
BRANCH  10  11
HETATM   11  C   UNL     1      -6.756   7.543  67.225  1.00  0.00    -0.067 C  
BRANCH  11  12
HETATM   12  C   UNL     1      -5.751   8.266  68.078  1.00  0.00    -0.035 C  
HETATM   13  C   UNL     1      -5.892   8.507  69.391  1.00  0.00    -0.030 C  
BRANCH  13  14
HETATM   14  C   UNL     1      -7.107   8.078  70.155  1.00  0.00    -0.049 C  
BRANCH  14  15
HETATM   15  C   UNL     1      -7.730   9.187  70.992  1.00  0.00    -0.132 C  
BRANCH  15  16
HETATM   16  C   UNL     1      -9.245   9.178  70.789  1.00  0.00    -0.321 C  
BRANCH  16  17
HETATM   17  C   UNL     1      -9.617   9.493  69.347  1.00  0.00    -0.186 C  
HETATM   18  C   UNL     1     -11.003  10.082  69.245  1.00  0.00    -0.228 C  
HETATM   19  O   UNL     1     -11.758  10.288  70.184  1.00  0.00    -0.263 OA 
HETATM   20  O   UNL     1     -11.345  10.368  67.967  1.00  0.00    -0.302 OA 
ENDBRANCH  16  17
ENDBRANCH  15  16
ENDBRANCH  14  15
ENDBRANCH  13  14
ENDBRANCH  11  12
ENDBRANCH  10  11
ENDBRANCH   8   9
ENDBRANCH   7   8
ENDBRANCH   5   6
ENDBRANCH   4   5
ENDBRANCH   3   4
ENDBRANCH   2   3
TORSDOF 12
ENDMDL
MODEL      461
REMARK 921   NORMALIZED FREE ENERGY PREDICTED BY IDOCK:   -1.80 KCAL/MOL
REMARK 922        TOTAL FREE ENERGY PREDICTED BY IDOCK:   -5.01 KCAL/MOL
REMARK 923 INTER-LIGAND FREE ENERGY PREDICTED BY IDOCK:   -3.76 KCAL/MOL
REMARK 924 INTRA-LIGAND FREE ENERGY PREDICTED BY IDOCK:   -1.26 KCAL/MOL
REMARK 927      BINDING AFFINITY PREDICTED BY RF-SCORE:    0.00 PKD
ROOT
HETATM    1  C   UNL     1      -6.867  10.095  65.134  1.00  0.00    -0.134 C  
HETATM    2  C   UNL     1      -7.512   8.905  64.446  1.00  0.00    -0.106 C  
ENDROOT
BRANCH   2   3
HETATM    3  C   UNL     1      -8.174   7.978  65.458  1.00  0.00    -0.138 C  
BRANCH   3   4
HETATM    4  C   UNL     1      -7.740   6.528  65.247  1.00  0.00    -0.102 C  
BRANCH   4   5
HETATM    5  C   UNL     1      -8.285   5.663  66.374  1.00  0.00    -0.107 C  
BRANCH   5   6
HETATM    6  C   UNL     1      -9.171   6.412  67.325  1.00  0.00    -0.122 C  
HETATM    7  C   UNL     1      -9.476   5.943  68.545  1.00  0.00    -0.134 C  
BRANCH   7   8
HETATM    8  C   UNL     1      -8.996   4.628  69.083  1.00  0.00    -0.139 C  
BRANCH   8   9
HETATM    9  C   UNL     1      -7.522   4.636  69.348  1.00  0.00    -0.052 C  
HETATM   10  C   UNL     1      -6.938   5.238  70.394  1.00  0.00    -0.056 C  
BRANCH  10  11
HETATM   11  C   UNL     1      -7.653   6.078  71.408  1.00  0.00    -0.099 C  
BRANCH  11  12
HETATM   12  C   UNL     1      -7.468   7.546  71.142  1.00  0.00    -0.079 C  
HETATM   13  C   UNL     1      -8.294   8.512  71.572  1.00  0.00    -0.210 C  
BRANCH  13  14
HETATM   14  C   UNL     1      -9.525   8.214  72.372  1.00  0.00    -0.319 C  
BRANCH  14  15
HETATM   15  C   UNL     1     -10.652   7.594  71.558  1.00  0.00    -0.239 C  
BRANCH  15  16
HETATM   16  C   UNL     1     -11.255   8.660  70.642  1.00  0.00    -0.284 C  
BRANCH  16  17
HETATM   17  C   UNL     1     -11.632   9.914  71.418  1.00  0.00    -0.428 C  
HETATM   18  C   UNL     1     -13.112   9.962  71.713  1.00  0.00    -0.452 C  
HETATM   19  O   UNL     1     -13.930   9.117  71.381  1.00  0.00    -0.340 OA 
HETATM   20  O   UNL     1     -13.459  11.072  72.404  1.00  0.00    -0.216 OA 
ENDBRANCH  16  17
ENDBRANCH  15  16
ENDBRANCH  14  15
ENDBRANCH  13  14
ENDBRANCH  11  12
ENDBRANCH  10  11
ENDBRANCH   8   9
ENDBRANCH   7   8
ENDBRANCH   5   6
ENDBRANCH   4   5
ENDBRANCH   3   4
ENDBRANCH   2   3
TORSDOF 12
ENDMDL
MODEL      462
REMARK 921   NORMALIZED FREE ENERGY PREDICTED BY IDOCK:   -1.76 KCAL/MOL
REMARK 922        TOTAL FREE ENERGY PREDICTED BY IDOCK:   -4.95 KCAL/MOL
REMARK 923 INTER-LIGAND FREE ENERGY PREDICTED BY IDOCK:   -3.96 KCAL/MOL
REMARK 924 INTRA-LIGAND FREE ENERGY PREDICTED BY IDOCK:   -1.00 KCAL/MOL
REMARK 927      BINDING AFFINITY PREDICTED BY RF-SCORE:    0.00 PKD
ROOT
HETATM    1  C   UNL     1     -12.461   9.761  71.109  1.00  0.00    -0.443 C  
HETATM    2  C   UNL     1     -11.123   9.783  70.393  1.00  0.00    -0.367 C  
ENDROOT
BRANCH   2   3
HETATM    3  C   UNL     1      -9.997   9.339  71.319  1.00  0.00    -0.341 C  
BRANCH   3   4
HETATM    4  C   UNL     1     -10.541   8.563  72.518  1.00  0.00    -0.308 C  
BRANCH   4   5
HETATM    5  C   UNL     1      -9.555   7.471  72.909  1.00  0.00    -0.247 C  
BRANCH   5   6
HETATM    6  C   UNL     1     -10.102   6.510  73.922  1.00  0.00    -0.329 C  
HETATM    7  C   UNL     1     -10.028   5.179  73.763  1.00  0.00    -0.194 C  
BRANCH   7   8
HETATM    8  C   UNL     1      -9.424   4.508  72.566  1.00  0.00    -0.173 C  
BRANCH   8   9
HETATM    9  C   UNL     1     -10.369   4.478  71.405  1.00  0.00    -0.117 C  
HETATM   10  C   UNL     1     -10.001   4.565  70.118  1.00  0.00    -0.278 C  
BRANCH  10  11
HETATM   11  C   UNL     1      -8.599   4.802  69.643  1.00  0.00    -0.100 C  
BRANCH  11  12
HETATM   12  C   UNL     1      -8.353   4.160  68.306  1.00  0.00    -0.099 C  
HETATM   13  C   UNL     1      -7.278   4.387  67.534  1.00  0.00    -0.069 C  
BRANCH  13  14
HETATM   14  C   UNL     1      -6.194   5.340  67.934  1.00  0.00    -0.038 C  
BRANCH  14  15
HETATM   15  C   UNL     1      -6.375   6.746  67.376  1.00  0.00    -0.044 C  
BRANCH  15  16
HETATM   16  C   UNL     1      -7.798   6.893  66.837  1.00  0.00    -0.107 C  
BRANCH  16  17
HETATM   17  C   UNL     1      -8.427   8.208  67.273  1.00  0.00    -0.125 C  
HETATM   18  C   UNL     1      -9.899   8.258  66.944  1.00  0.00    -0.247 C  
HETATM   19  O   UNL     1     -10.534   7.370  66.393  1.00  0.00    -0.078 OA 
HETATM   20  O   UNL     1     -10.470   9.423  67.328  1.00  0.00    -0.251 OA 
ENDBRANCH  16  17
ENDBRANCH  15  16
ENDBRANCH  14  15
ENDBRANCH  13  14
ENDBRANCH  11  12
ENDBRANCH  10  11
ENDBRANCH   8   9
ENDBRANCH   7   8
ENDBRANCH   5   6
ENDBRANCH   4   5
ENDBRANCH   3   4
ENDBRANCH   2   3
TORSDOF 12
ENDMDL
MODEL      463
REMARK 921   NORMALIZED FREE ENERGY PREDICTED BY IDOCK:   -1.71 KCAL/MOL
REMARK 922        TOTAL FREE ENERGY PREDICTED BY IDOCK:   -4.87 KCAL/MOL
REMARK 923 INTER-LIGAND FREE ENERGY PREDICTED BY IDOCK:   -3.67 KCAL/MOL
REMARK 924 INTRA-LIGAND FREE ENERGY PREDICTED BY IDOCK:   -1.20 KCAL/MOL
REMARK 927      BINDING AFFINITY PREDICTED BY RF-SCORE:    0.00 PKD
ROOT
HETATM    1  C   UNL     1     -10.367   8.936  71.723  1.00  0.00    -0.426 C  
HETATM    2  C   UNL     1     -10.165   7.734  70.816  1.00  0.00    -0.200 C  
ENDROOT
BRANCH   2   3
HETATM    3  C   UNL     1     -10.460   6.434  71.554  1.00  0.00    -0.256 C  
BRANCH   3   4
HETATM    4  C   UNL     1      -9.631   6.324  72.832  1.00  0.00    -0.155 C  
BRANCH   4   5
HETATM    5  C   UNL     1      -8.524   5.297  72.635  1.00  0.00    -0.117 C  
BRANCH   5   6
HETATM    6  C   UNL     1      -7.606   5.622  71.495  1.00  0.00    -0.105 C  
HETATM    7  C   UNL     1      -7.250   4.710  70.576  1.00  0.00    -0.049 C  
BRANCH   7   8
HETATM    8  C   UNL     1      -7.699   3.279  70.595  1.00  0.00    -0.043 C  
BRANCH   8   9
HETATM    9  C   UNL     1      -9.142   3.141  70.222  1.00  0.00    -0.194 C  
HETATM   10  C   UNL     1      -9.660   3.483  69.032  1.00  0.00    -0.143 C  
BRANCH  10  11
HETATM   11  C   UNL     1      -8.897   4.145  67.925  1.00  0.00    -0.131 C  
BRANCH  11  12
HETATM   12  C   UNL     1      -9.778   4.437  66.743  1.00  0.00    -0.235 C  
HETATM   13  C   UNL     1      -9.865   5.627  66.128  1.00  0.00    -0.114 C  
BRANCH  13  14
HETATM   14  C   UNL     1      -9.078   6.819  66.579  1.00  0.00    -0.171 C  
BRANCH  14  15
HETATM   15  C   UNL     1      -9.900   7.839  67.356  1.00  0.00    -0.230 C  
BRANCH  15  16
HETATM   16  C   UNL     1     -10.253   9.007  66.434  1.00  0.00    -0.297 C  
BRANCH  16  17
HETATM   17  C   UNL     1     -10.544  10.274  67.225  1.00  0.00    -0.324 C  
HETATM   18  C   UNL     1      -9.343  11.188  67.274  1.00  0.00    -0.160 C  
HETATM   19  O   UNL     1      -8.259  10.964  66.757  1.00  0.00    -0.130 OA 
HETATM   20  O   UNL     1      -9.591  12.319  67.974  1.00  0.00    -0.193 OA 
ENDBRANCH  16  17
ENDBRANCH  15  16
ENDBRANCH  14  15
ENDBRANCH  13  14
ENDBRANCH  11  12
ENDBRANCH  10  11
ENDBRANCH   8   9
ENDBRANCH   7   8
ENDBRANCH   5   6
ENDBRANCH   4   5
ENDBRANCH   3   4
ENDBRANCH   2   3
TORSDOF 12
ENDMDL
MODEL      464
REMARK 921   NORMALIZED FREE ENERGY PREDICTED BY IDOCK:   -1.71 KCAL/MOL
REMARK 922        TOTAL FREE ENERGY PREDICTED BY IDOCK:   -4.86 KCAL/MOL
REMARK 923 INTER-LIGAND FREE ENERGY PREDICTED BY IDOCK:   -3.34 KCAL/MOL
REMARK 924 INTRA-LIGAND FREE ENERGY PREDICTED BY IDOCK:   -1.52 KCAL/MOL
REMARK 927      BINDING AFFINITY PREDICTED BY RF-SCORE:    0.00 PKD
ROOT
HETATM    1  C   UNL     1      -6.135   3.992  69.091  1.00  0.00    -0.027 C  
HETATM    2  C   UNL     1      -6.363   2.813  68.162  1.00  0.00    -0.029 C  
ENDROOT
BRANCH   2   3
HETATM    3  C   UNL     1      -7.675   2.958  67.401  1.00  0.00    -0.069 C  
BRANCH   3   4
HETATM    4  C   UNL     1      -7.438   2.991  65.892  1.00  0.00    -0.073 C  
BRANCH   4   5
HETATM    5  C   UNL     1      -7.869   4.342  65.338  1.00  0.00    -0.090 C  
BRANCH   5   6
HETATM    6  C   UNL     1      -6.896   5.445  65.635  1.00  0.00    -0.064 C  
HETATM    7  C   UNL     1      -7.214   6.493  66.412  1.00  0.00    -0.073 C  
BRANCH   7   8
HETATM    8  C   UNL     1      -8.559   6.695  67.042  1.00  0.00    -0.113 C  
BRANCH   8   9
HETATM    9  C   UNL     1      -9.433   7.590  66.220  1.00  0.00    -0.161 C  
HETATM   10  C   UNL     1     -10.291   8.491  66.722  1.00  0.00    -0.346 C  
BRANCH  10  11
HETATM   11  C   UNL     1     -10.579   8.678  68.181  1.00  0.00    -0.189 C  
BRANCH  11  12
HETATM   12  C   UNL     1      -9.522   9.510  68.851  1.00  0.00    -0.155 C  
HETATM   13  C   UNL     1      -9.063   9.307  70.096  1.00  0.00    -0.248 C  
BRANCH  13  14
HETATM   14  C   UNL     1      -9.585   8.208  70.971  1.00  0.00    -0.189 C  
BRANCH  14  15
HETATM   15  C   UNL     1     -10.085   8.687  72.327  1.00  0.00    -0.363 C  
BRANCH  15  16
HETATM   16  C   UNL     1      -9.692   7.666  73.396  1.00  0.00    -0.363 C  
BRANCH  16  17
HETATM   17  C   UNL     1     -10.648   6.481  73.413  1.00  0.00    -0.309 C  
HETATM   18  C   UNL     1      -9.927   5.189  73.714  1.00  0.00    -0.174 C  
HETATM   19  O   UNL     1      -8.727   5.076  73.919  1.00  0.00    -0.112 OA 
HETATM   20  O   UNL     1     -10.766   4.128  73.733  1.00  0.00    -0.193 OA 
ENDBRANCH  16  17
ENDBRANCH  15  16
ENDBRANCH  14  15
ENDBRANCH  13  14
ENDBRANCH  11  12
ENDBRANCH  10  11
ENDBRANCH   8   9
ENDBRANCH   7   8
ENDBRANCH   5   6
ENDBRANCH   4   5
ENDBRANCH   3   4
ENDBRANCH   2   3
TORSDOF 12
ENDMDL
MODEL      465
REMARK 921   NORMALIZED FREE ENERGY PREDICTED BY IDOCK:   -1.70 KCAL/MOL
REMARK 922        TOTAL FREE ENERGY PREDICTED BY IDOCK:   -4.84 KCAL/MOL
REMARK 923 INTER-LIGAND FREE ENERGY PREDICTED BY IDOCK:   -4.36 KCAL/MOL
REMARK 924 INTRA-LIGAND FREE ENERGY PREDICTED BY IDOCK:   -0.48 KCAL/MOL
REMARK 927      BINDING AFFINITY PREDICTED BY RF-SCORE:    0.00 PKD
ROOT
HETATM    1  C   UNL     1      -8.073   6.558  69.752  1.00  0.00    -0.125 C  
HETATM    2  C   UNL     1      -7.984   8.073  69.813  1.00  0.00    -0.115 C  
ENDROOT
BRANCH   2   3
HETATM    3  C   UNL     1      -7.343   8.638  68.551  1.00  0.00    -0.085 C  
BRANCH   3   4
HETATM    4  C   UNL     1      -7.875  10.035  68.240  1.00  0.00    -0.089 C  
BRANCH   4   5
HETATM    5  C   UNL     1      -9.372   9.963  67.975  1.00  0.00    -0.140 C  
BRANCH   5   6
HETATM    6  C   UNL     1      -9.722   9.185  66.741  1.00  0.00    -0.271 C  
HETATM    7  C   UNL     1      -9.794   9.754  65.528  1.00  0.00    -0.378 C  
BRANCH   7   8
HETATM    8  C   UNL     1      -9.562  11.213  65.270  1.00  0.00    -0.268 C  
BRANCH   8   9
HETATM    9  C   UNL     1     -10.753  11.865  64.638  1.00  0.00    -0.356 C  
HETATM   10  C   UNL     1     -10.963  13.190  64.591  1.00  0.00    -0.374 C  
BRANCH  10  11
HETATM   11  C   UNL     1     -10.091  14.218  65.246  1.00  0.00    -0.378 C  
BRANCH  11  12
HETATM   12  C   UNL     1     -10.651  15.604  65.080  1.00  0.00    -0.449 C  
HETATM   13  C   UNL     1     -10.806  16.491  66.076  1.00  0.00    -0.069 C  
BRANCH  13  14
HETATM   14  C   UNL     1     -10.439  16.174  67.493  1.00  0.00    -0.302 C  
BRANCH  14  15
HETATM   15  C   UNL     1      -9.094  15.475  67.638  1.00  0.00    -0.183 C  
BRANCH  15  16
HETATM   16  C   UNL     1      -8.232  16.249  68.636  1.00  0.00    -0.214 C  
BRANCH  16  17
HETATM   17  C   UNL     1      -7.391  15.311  69.491  1.00  0.00    -0.210 C  
HETATM   18  C   UNL     1      -5.930  15.689  69.459  1.00  0.00    -0.130 C  
HETATM   19  O   UNL     1      -5.451  16.623  68.832  1.00  0.00    -0.124 OA 
HETATM   20  O   UNL     1      -5.171  14.863  70.217  1.00  0.00    -0.104 OA 
ENDBRANCH  16  17
ENDBRANCH  15  16
ENDBRANCH  14  15
ENDBRANCH  13  14
ENDBRANCH  11  12
ENDBRANCH  10  11
ENDBRANCH   8   9
ENDBRANCH   7   8
ENDBRANCH   5   6
ENDBRANCH   4   5
ENDBRANCH   3   4
ENDBRANCH   2   3
TORSDOF 12
ENDMDL
MODEL      466
REMARK 921   NORMALIZED FREE ENERGY PREDICTED BY IDOCK:   -1.66 KCAL/MOL
REMARK 922        TOTAL FREE ENERGY PREDICTED BY IDOCK:   -4.78 KCAL/MOL
REMARK 923 INTER-LIGAND FREE ENERGY PREDICTED BY IDOCK:   -4.43 KCAL/MOL
REMARK 924 INTRA-LIGAND FREE ENERGY PREDICTED BY IDOCK:   -0.35 KCAL/MOL
REMARK 927      BINDING AFFINITY PREDICTED BY RF-SCORE:    0.00 PKD
ROOT
HETATM    1  C   UNL     1      -7.415   6.637  69.513  1.00  0.00    -0.093 C  
HETATM    2  C   UNL     1      -7.379   8.141  69.720  1.00  0.00    -0.065 C  
ENDROOT
BRANCH   2   3
HETATM    3  C   UNL     1      -6.657   8.836  68.571  1.00  0.00    -0.059 C  
BRANCH   3   4
HETATM    4  C   UNL     1      -7.434  10.062  68.092  1.00  0.00    -0.083 C  
BRANCH   4   5
HETATM    5  C   UNL     1      -8.841   9.646  67.684  1.00  0.00    -0.127 C  
BRANCH   5   6
HETATM    6  C   UNL     1      -8.866   8.655  66.558  1.00  0.00    -0.163 C  
HETATM    7  C   UNL     1      -9.065   9.022  65.282  1.00  0.00    -0.226 C  
BRANCH   7   8
HETATM    8  C   UNL     1      -9.307  10.435  64.843  1.00  0.00    -0.294 C  
BRANCH   8   9
HETATM    9  C   UNL     1      -9.725  10.511  63.407  1.00  0.00    -0.368 C  
HETATM   10  C   UNL     1     -10.348  11.559  62.847  1.00  0.00    -0.157 C  
BRANCH  10  11
HETATM   11  C   UNL     1     -10.810  12.776  63.588  1.00  0.00    -0.361 C  
BRANCH  11  12
HETATM   12  C   UNL     1     -12.280  12.713  63.894  1.00  0.00    -0.565 C  
HETATM   13  C   UNL     1     -12.838  13.094  65.054  1.00  0.00    -0.370 C  
BRANCH  13  14
HETATM   14  C   UNL     1     -12.025  13.623  66.196  1.00  0.00    -0.453 C  
BRANCH  14  15
HETATM   15  C   UNL     1     -10.742  14.322  65.766  1.00  0.00    -0.308 C  
BRANCH  15  16
HETATM   16  C   UNL     1     -10.683  15.706  66.414  1.00  0.00    -0.291 C  
BRANCH  16  17
HETATM   17  C   UNL     1     -11.704  15.841  67.534  1.00  0.00     0.151 C  
HETATM   18  C   UNL     1     -11.064  16.319  68.815  1.00  0.00    -0.355 C  
HETATM   19  O   UNL     1      -9.878  16.570  68.966  1.00  0.00    -0.248 OA 
HETATM   20  O   UNL     1     -11.963  16.445  69.819  1.00  0.00     0.002 OA 
ENDBRANCH  16  17
ENDBRANCH  15  16
ENDBRANCH  14  15
ENDBRANCH  13  14
ENDBRANCH  11  12
ENDBRANCH  10  11
ENDBRANCH   8   9
ENDBRANCH   7   8
ENDBRANCH   5   6
ENDBRANCH   4   5
ENDBRANCH   3   4
ENDBRANCH   2   3
TORSDOF 12
ENDMDL
MODEL      467
REMARK 921   NORMALIZED FREE ENERGY PREDICTED BY IDOCK:   -1.61 KCAL/MOL
REMARK 922        TOTAL FREE ENERGY PREDICTED BY IDOCK:   -4.69 KCAL/MOL
REMARK 923 INTER-LIGAND FREE ENERGY PREDICTED BY IDOCK:   -3.55 KCAL/MOL
REMARK 924 INTRA-LIGAND FREE ENERGY PREDICTED BY IDOCK:   -1.14 KCAL/MOL
REMARK 927      BINDING AFFINITY PREDICTED BY RF-SCORE:    0.00 PKD
ROOT
HETATM    1  C   UNL     1     -12.925  14.083  70.960  1.00  0.00    -0.378 C  
HETATM    2  C   UNL     1     -11.542  14.243  70.353  1.00  0.00    -0.264 C  
ENDROOT
BRANCH   2   3
HETATM    3  C   UNL     1     -11.605  14.229  68.830  1.00  0.00    -0.340 C  
BRANCH   3   4
HETATM    4  C   UNL     1     -10.548  13.295  68.243  1.00  0.00    -0.262 C  
BRANCH   4   5
HETATM    5  C   UNL     1     -10.607  11.949  68.951  1.00  0.00    -0.205 C  
BRANCH   5   6
HETATM    6  C   UNL     1     -10.787  10.791  68.014  1.00  0.00    -0.302 C  
HETATM    7  C   UNL     1     -10.526   9.525  68.377  1.00  0.00    -0.261 C  
BRANCH   7   8
HETATM    8  C   UNL     1     -10.010   9.128  69.728  1.00  0.00    -0.204 C  
BRANCH   8   9
HETATM    9  C   UNL     1      -8.543   9.394  69.867  1.00  0.00    -0.201 C  
HETATM   10  C   UNL     1      -7.576   8.516  69.563  1.00  0.00    -0.089 C  
BRANCH  10  11
HETATM   11  C   UNL     1      -7.809   7.101  69.129  1.00  0.00    -0.118 C  
BRANCH  11  12
HETATM   12  C   UNL     1      -8.252   7.029  67.694  1.00  0.00    -0.117 C  
HETATM   13  C   UNL     1      -7.498   7.379  66.641  1.00  0.00    -0.088 C  
BRANCH  13  14
HETATM   14  C   UNL     1      -6.104   7.906  66.796  1.00  0.00    -0.049 C  
BRANCH  14  15
HETATM   15  C   UNL     1      -5.887   9.270  66.154  1.00  0.00    -0.057 C  
BRANCH  15  16
HETATM   16  C   UNL     1      -5.707  10.318  67.253  1.00  0.00    -0.045 C  
BRANCH  16  17
HETATM   17  C   UNL     1      -5.888  11.729  66.712  1.00  0.00    -0.110 C  
HETATM   18  C   UNL     1      -6.581  12.624  67.711  1.00  0.00    -0.130 C  
HETATM   19  O   UNL     1      -6.963  12.286  68.822  1.00  0.00    -0.089 OA 
HETATM   20  O   UNL     1      -6.747  13.883  67.242  1.00  0.00    -0.237 OA 
ENDBRANCH  16  17
ENDBRANCH  15  16
ENDBRANCH  14  15
ENDBRANCH  13  14
ENDBRANCH  11  12
ENDBRANCH  10  11
ENDBRANCH   8   9
ENDBRANCH   7   8
ENDBRANCH   5   6
ENDBRANCH   4   5
ENDBRANCH   3   4
ENDBRANCH   2   3
TORSDOF 12
ENDMDL
MODEL      468
REMARK 921   NORMALIZED FREE ENERGY PREDICTED BY IDOCK:   -1.57 KCAL/MOL
REMARK 922        TOTAL FREE ENERGY PREDICTED BY IDOCK:   -4.62 KCAL/MOL
REMARK 923 INTER-LIGAND FREE ENERGY PREDICTED BY IDOCK:   -2.79 KCAL/MOL
REMARK 924 INTRA-LIGAND FREE ENERGY PREDICTED BY IDOCK:   -1.83 KCAL/MOL
REMARK 927      BINDING AFFINITY PREDICTED BY RF-SCORE:    0.00 PKD
ROOT
HETATM    1  C   UNL     1      -6.787  10.493  65.434  1.00  0.00    -0.078 C  
HETATM    2  C   UNL     1      -6.874   9.350  64.438  1.00  0.00    -0.091 C  
ENDROOT
BRANCH   2   3
HETATM    3  C   UNL     1      -7.223   8.040  65.134  1.00  0.00    -0.065 C  
BRANCH   3   4
HETATM    4  C   UNL     1      -5.969   7.219  65.428  1.00  0.00    -0.037 C  
BRANCH   4   5
HETATM    5  C   UNL     1      -6.329   6.038  66.318  1.00  0.00    -0.042 C  
BRANCH   5   6
HETATM    6  C   UNL     1      -7.548   6.276  67.159  1.00  0.00    -0.096 C  
HETATM    7  C   UNL     1      -7.486   6.864  68.364  1.00  0.00    -0.098 C  
BRANCH   7   8
HETATM    8  C   UNL     1      -6.213   7.321  69.011  1.00  0.00    -0.035 C  
BRANCH   8   9
HETATM    9  C   UNL     1      -5.898   8.747  68.680  1.00  0.00    -0.044 C  
HETATM   10  C   UNL     1      -6.335   9.808  69.376  1.00  0.00    -0.044 C  
BRANCH  10  11
HETATM   11  C   UNL     1      -7.284   9.740  70.534  1.00  0.00    -0.130 C  
BRANCH  11  12
HETATM   12  C   UNL     1      -8.716   9.763  70.078  1.00  0.00    -0.237 C  
HETATM   13  C   UNL     1      -9.720   9.101  70.674  1.00  0.00    -0.314 C  
BRANCH  13  14
HETATM   14  C   UNL     1      -9.504   8.237  71.879  1.00  0.00    -0.287 C  
BRANCH  14  15
HETATM   15  C   UNL     1      -8.939   6.861  71.555  1.00  0.00    -0.140 C  
BRANCH  15  16
HETATM   16  C   UNL     1     -10.091   5.909  71.230  1.00  0.00    -0.245 C  
BRANCH  16  17
HETATM   17  C   UNL     1      -9.951   4.589  71.974  1.00  0.00    -0.255 C  
HETATM   18  C   UNL     1     -11.024   4.425  73.024  1.00  0.00    -0.204 C  
HETATM   19  O   UNL     1     -11.906   5.234  73.271  1.00  0.00    -0.150 OA 
HETATM   20  O   UNL     1     -10.910   3.253  73.692  1.00  0.00    -0.196 OA 
ENDBRANCH  16  17
ENDBRANCH  15  16
ENDBRANCH  14  15
ENDBRANCH  13  14
ENDBRANCH  11  12
ENDBRANCH  10  11
ENDBRANCH   8   9
ENDBRANCH   7   8
ENDBRANCH   5   6
ENDBRANCH   4   5
ENDBRANCH   3   4
ENDBRANCH   2   3
TORSDOF 12
ENDMDL
MODEL      469
REMARK 921   NORMALIZED FREE ENERGY PREDICTED BY IDOCK:   -1.34 KCAL/MOL
REMARK 922        TOTAL FREE ENERGY PREDICTED BY IDOCK:   -4.23 KCAL/MOL
REMARK 923 INTER-LIGAND FREE ENERGY PREDICTED BY IDOCK:   -3.65 KCAL/MOL
REMARK 924 INTRA-LIGAND FREE ENERGY PREDICTED BY IDOCK:   -0.58 KCAL/MOL
REMARK 927      BINDING AFFINITY PREDICTED BY RF-SCORE:    0.00 PKD
ROOT
HETATM    1  C   UNL     1     -11.143  11.892  63.557  1.00  0.00    -0.506 C  
HETATM    2  C   UNL     1      -9.949  10.988  63.808  1.00  0.00    -0.404 C  
ENDROOT
BRANCH   2   3
HETATM    3  C   UNL     1      -9.638  10.136  62.583  1.00  0.00    -0.200 C  
BRANCH   3   4
HETATM    4  C   UNL     1      -8.445   9.216  62.839  1.00  0.00    -0.209 C  
BRANCH   4   5
HETATM    5  C   UNL     1      -7.953   9.406  64.268  1.00  0.00    -0.133 C  
BRANCH   5   6
HETATM    6  C   UNL     1      -7.020   8.323  64.724  1.00  0.00    -0.075 C  
HETATM    7  C   UNL     1      -7.385   7.387  65.614  1.00  0.00    -0.074 C  
BRANCH   7   8
HETATM    8  C   UNL     1      -8.735   7.327  66.263  1.00  0.00    -0.162 C  
BRANCH   8   9
HETATM    9  C   UNL     1      -9.236   8.687  66.638  1.00  0.00    -0.227 C  
HETATM   10  C   UNL     1      -9.494   9.087  67.893  1.00  0.00    -0.159 C  
BRANCH  10  11
HETATM   11  C   UNL     1      -9.414   8.209  69.105  1.00  0.00    -0.155 C  
BRANCH  11  12
HETATM   12  C   UNL     1      -9.093   9.001  70.341  1.00  0.00    -0.242 C  
HETATM   13  C   UNL     1      -8.926   8.476  71.565  1.00  0.00    -0.276 C  
BRANCH  13  14
HETATM   14  C   UNL     1      -9.061   7.008  71.830  1.00  0.00    -0.145 C  
BRANCH  14  15
HETATM   15  C   UNL     1     -10.138   6.664  72.851  1.00  0.00    -0.200 C  
BRANCH  15  16
HETATM   16  C   UNL     1     -10.850   7.946  73.281  1.00  0.00    -0.192 C  
BRANCH  16  17
HETATM   17  C   UNL     1     -12.360   7.821  73.138  1.00  0.00     0.819 C  
HETATM   18  C   UNL     1     -12.887   8.684  72.017  1.00  0.00    -0.379 C  
HETATM   19  O   UNL     1     -12.211   9.406  71.299  1.00  0.00    -0.310 OA 
HETATM   20  O   UNL     1     -14.229   8.580  71.880  1.00  0.00    -0.420 OA 
ENDBRANCH  16  17
ENDBRANCH  15  16
ENDBRANCH  14  15
ENDBRANCH  13  14
ENDBRANCH  11  12
ENDBRANCH  10  11
ENDBRANCH   8   9
ENDBRANCH   7   8
ENDBRANCH   5   6
ENDBRANCH   4   5
ENDBRANCH   3   4
ENDBRANCH   2   3
TORSDOF 12
ENDMDL
MODEL      470
REMARK 921   NORMALIZED FREE ENERGY PREDICTED BY IDOCK:   -1.33 KCAL/MOL
REMARK 922        TOTAL FREE ENERGY PREDICTED BY IDOCK:   -4.21 KCAL/MOL
REMARK 923 INTER-LIGAND FREE ENERGY PREDICTED BY IDOCK:   -3.09 KCAL/MOL
REMARK 924 INTRA-LIGAND FREE ENERGY PREDICTED BY IDOCK:   -1.12 KCAL/MOL
REMARK 927      BINDING AFFINITY PREDICTED BY RF-SCORE:    0.00 PKD
ROOT
HETATM    1  C   UNL     1      -8.910   3.884  68.842  1.00  0.00    -0.153 C  
HETATM    2  C   UNL     1      -9.463   4.158  70.229  1.00  0.00    -0.251 C  
ENDROOT
BRANCH   2   3
HETATM    3  C   UNL     1     -10.357   5.392  70.231  1.00  0.00    -0.357 C  
BRANCH   3   4
HETATM    4  C   UNL     1      -9.536   6.668  70.408  1.00  0.00    -0.170 C  
BRANCH   4   5
HETATM    5  C   UNL     1      -8.860   6.654  71.772  1.00  0.00    -0.130 C  
BRANCH   5   6
HETATM    6  C   UNL     1      -7.734   7.639  71.890  1.00  0.00    -0.093 C  
HETATM    7  C   UNL     1      -6.560   7.467  71.261  1.00  0.00    -0.043 C  
BRANCH   7   8
HETATM    8  C   UNL     1      -6.232   6.281  70.405  1.00  0.00    -0.035 C  
BRANCH   8   9
HETATM    9  C   UNL     1      -5.388   6.658  69.227  1.00  0.00    -0.014 C  
HETATM   10  C   UNL     1      -5.648   7.679  68.396  1.00  0.00    -0.027 C  
BRANCH  10  11
HETATM   11  C   UNL     1      -6.872   8.542  68.458  1.00  0.00    -0.064 C  
BRANCH  11  12
HETATM   12  C   UNL     1      -6.731   9.764  67.594  1.00  0.00    -0.069 C  
HETATM   13  C   UNL     1      -7.573  10.105  66.606  1.00  0.00    -0.107 C  
BRANCH  13  14
HETATM   14  C   UNL     1      -8.763   9.269  66.246  1.00  0.00    -0.160 C  
BRANCH  14  15
HETATM   15  C   UNL     1     -10.098   9.954  66.509  1.00  0.00    -0.298 C  
BRANCH  15  16
HETATM   16  C   UNL     1      -9.846  11.408  66.909  1.00  0.00    -0.218 C  
BRANCH  16  17
HETATM   17  C   UNL     1     -10.939  11.931  67.829  1.00  0.00    -0.278 C  
HETATM   18  C   UNL     1     -10.773  11.417  69.239  1.00  0.00    -0.151 C  
HETATM   19  O   UNL     1      -9.885  10.671  69.623  1.00  0.00    -0.158 OA 
HETATM   20  O   UNL     1     -11.739  11.877  70.067  1.00  0.00    -0.317 OA 
ENDBRANCH  16  17
ENDBRANCH  15  16
ENDBRANCH  14  15
ENDBRANCH  13  14
ENDBRANCH  11  12
ENDBRANCH  10  11
ENDBRANCH   8   9
ENDBRANCH   7   8
ENDBRANCH   5   6
ENDBRANCH   4   5
ENDBRANCH   3   4
ENDBRANCH   2   3
TORSDOF 12
ENDMDL
MODEL      471
REMARK 921   NORMALIZED FREE ENERGY PREDICTED BY IDOCK:   -1.10 KCAL/MOL
REMARK 922        TOTAL FREE ENERGY PREDICTED BY IDOCK:   -3.82 KCAL/MOL
REMARK 923 INTER-LIGAND FREE ENERGY PREDICTED BY IDOCK:   -3.29 KCAL/MOL
REMARK 924 INTRA-LIGAND FREE ENERGY PREDICTED BY IDOCK:   -0.53 KCAL/MOL
REMARK 927      BINDING AFFINITY PREDICTED BY RF-SCORE:    0.00 PKD
ROOT
HETATM    1  C   UNL     1     -12.129  11.149  69.409  1.00  0.00    -0.396 C  
HETATM    2  C   UNL     1     -11.602  10.983  67.995  1.00  0.00    -0.326 C  
ENDROOT
BRANCH   2   3
HETATM    3  C   UNL     1     -10.921   9.631  67.817  1.00  0.00    -0.203 C  
BRANCH   3   4
HETATM    4  C   UNL     1      -9.483   9.665  68.332  1.00  0.00    -0.143 C  
BRANCH   4   5
HETATM    5  C   UNL     1      -8.612  10.448  67.360  1.00  0.00    -0.125 C  
BRANCH   5   6
HETATM    6  C   UNL     1      -7.165  10.056  67.407  1.00  0.00    -0.085 C  
HETATM    7  C   UNL     1      -6.561   9.413  66.396  1.00  0.00    -0.071 C  
BRANCH   7   8
HETATM    8  C   UNL     1      -7.253   8.996  65.133  1.00  0.00    -0.088 C  
BRANCH   8   9
HETATM    9  C   UNL     1      -8.065   7.753  65.324  1.00  0.00    -0.133 C  
HETATM   10  C   UNL     1      -7.896   6.876  66.325  1.00  0.00    -0.101 C  
BRANCH  10  11
HETATM   11  C   UNL     1      -6.808   6.950  67.353  1.00  0.00    -0.076 C  
BRANCH  11  12
HETATM   12  C   UNL     1      -6.234   5.593  67.650  1.00  0.00    -0.030 C  
HETATM   13  C   UNL     1      -6.671   4.772  68.618  1.00  0.00    -0.050 C  
BRANCH  13  14
HETATM   14  C   UNL     1      -7.797   5.145  69.534  1.00  0.00    -0.076 C  
BRANCH  14  15
HETATM   15  C   UNL     1      -9.178   4.918  68.934  1.00  0.00    -0.164 C  
BRANCH  15  16
HETATM   16  C   UNL     1     -10.178   5.859  69.605  1.00  0.00    -0.281 C  
BRANCH  16  17
HETATM   17  C   UNL     1      -9.486   6.813  70.569  1.00  0.00    -0.171 C  
HETATM   18  C   UNL     1     -10.453   7.816  71.150  1.00  0.00    -0.208 C  
HETATM   19  O   UNL     1     -11.647   7.881  70.896  1.00  0.00    -0.284 OA 
HETATM   20  O   UNL     1      -9.850   8.669  72.010  1.00  0.00    -0.280 OA 
ENDBRANCH  16  17
ENDBRANCH  15  16
ENDBRANCH  14  15
ENDBRANCH  13  14
ENDBRANCH  11  12
ENDBRANCH  10  11
ENDBRANCH   8   9
ENDBRANCH   7   8
ENDBRANCH   5   6
ENDBRANCH   4   5
ENDBRANCH   3   4
ENDBRANCH   2   3
TORSDOF 12
ENDMDL
MODEL      472
REMARK 921   NORMALIZED FREE ENERGY PREDICTED BY IDOCK:   -1.07 KCAL/MOL
REMARK 922        TOTAL FREE ENERGY PREDICTED BY IDOCK:   -3.78 KCAL/MOL
REMARK 923 INTER-LIGAND FREE ENERGY PREDICTED BY IDOCK:   -2.20 KCAL/MOL
REMARK 924 INTRA-LIGAND FREE ENERGY PREDICTED BY IDOCK:   -1.58 KCAL/MOL
REMARK 927      BINDING AFFINITY PREDICTED BY RF-SCORE:    0.00 PKD
ROOT
HETATM    1  C   UNL     1      -6.762   6.155  65.364  1.00  0.00    -0.047 C  
HETATM    2  C   UNL     1      -8.057   6.855  64.989  1.00  0.00    -0.117 C  
ENDROOT
BRANCH   2   3
HETATM    3  C   UNL     1      -9.158   6.548  65.997  1.00  0.00    -0.111 C  
BRANCH   3   4
HETATM    4  C   UNL     1      -9.585   7.808  66.749  1.00  0.00    -0.274 C  
BRANCH   4   5
HETATM    5  C   UNL     1      -9.334   7.621  68.239  1.00  0.00    -0.145 C  
BRANCH   5   6
HETATM    6  C   UNL     1      -7.879   7.523  68.590  1.00  0.00    -0.121 C  
HETATM    7  C   UNL     1      -7.451   7.410  69.858  1.00  0.00    -0.085 C  
BRANCH   7   8
HETATM    8  C   UNL     1      -8.357   7.395  71.052  1.00  0.00    -0.114 C  
BRANCH   8   9
HETATM    9  C   UNL     1      -8.008   6.294  72.005  1.00  0.00    -0.109 C  
HETATM   10  C   UNL     1      -8.672   5.133  72.106  1.00  0.00    -0.132 C  
BRANCH  10  11
HETATM   11  C   UNL     1      -9.921   4.791  71.352  1.00  0.00    -0.267 C  
BRANCH  11  12
HETATM   12  C   UNL     1      -9.679   4.756  69.869  1.00  0.00    -0.274 C  
HETATM   13  C   UNL     1      -8.835   3.916  69.250  1.00  0.00    -0.145 C  
BRANCH  13  14
HETATM   14  C   UNL     1      -8.017   2.910  70.000  1.00  0.00    -0.052 C  
BRANCH  14  15
HETATM   15  C   UNL     1      -6.703   2.553  69.316  1.00  0.00    -0.033 C  
BRANCH  15  16
HETATM   16  C   UNL     1      -6.383   3.612  68.261  1.00  0.00    -0.036 C  
BRANCH  16  17
HETATM   17  C   UNL     1      -5.588   3.024  67.104  1.00  0.00    -0.021 C  
HETATM   18  C   UNL     1      -6.478   2.690  65.931  1.00  0.00    -0.028 C  
HETATM   19  O   UNL     1      -7.688   2.857  65.887  1.00  0.00    -0.079 OA 
HETATM   20  O   UNL     1      -5.782   2.168  64.894  1.00  0.00    -0.012 OA 
ENDBRANCH  16  17
ENDBRANCH  15  16
ENDBRANCH  14  15
ENDBRANCH  13  14
ENDBRANCH  11  12
ENDBRANCH  10  11
ENDBRANCH   8   9
ENDBRANCH   7   8
ENDBRANCH   5   6
ENDBRANCH   4   5
ENDBRANCH   3   4
ENDBRANCH   2   3
TORSDOF 12
ENDMDL
MODEL      473
REMARK 921   NORMALIZED FREE ENERGY PREDICTED BY IDOCK:   -1.02 KCAL/MOL
REMARK 922        TOTAL FREE ENERGY PREDICTED BY IDOCK:   -3.69 KCAL/MOL
REMARK 923 INTER-LIGAND FREE ENERGY PREDICTED BY IDOCK:   -2.80 KCAL/MOL
REMARK 924 INTRA-LIGAND FREE ENERGY PREDICTED BY IDOCK:   -0.89 KCAL/MOL
REMARK 927      BINDING AFFINITY PREDICTED BY RF-SCORE:    0.00 PKD
ROOT
HETATM    1  C   UNL     1      -6.698   6.124  65.443  1.00  0.00    -0.047 C  
HETATM    2  C   UNL     1      -7.978   6.830  65.031  1.00  0.00    -0.125 C  
ENDROOT
BRANCH   2   3
HETATM    3  C   UNL     1      -9.091   6.582  66.041  1.00  0.00    -0.111 C  
BRANCH   3   4
HETATM    4  C   UNL     1      -9.651   7.898  66.579  1.00  0.00    -0.281 C  
BRANCH   4   5
HETATM    5  C   UNL     1      -9.809   7.805  68.090  1.00  0.00    -0.190 C  
BRANCH   5   6
HETATM    6  C   UNL     1     -10.669   8.891  68.667  1.00  0.00    -0.118 C  
HETATM    7  C   UNL     1     -10.927   8.982  69.981  1.00  0.00    -0.230 C  
BRANCH   7   8
HETATM    8  C   UNL     1     -10.417   8.013  71.006  1.00  0.00    -0.229 C  
BRANCH   8   9
HETATM    9  C   UNL     1      -9.681   8.705  72.112  1.00  0.00    -0.383 C  
HETATM   10  C   UNL     1      -8.606   8.207  72.742  1.00  0.00    -0.269 C  
BRANCH  10  11
HETATM   11  C   UNL     1      -8.031   6.843  72.506  1.00  0.00    -0.099 C  
BRANCH  11  12
HETATM   12  C   UNL     1      -7.310   6.767  71.190  1.00  0.00    -0.079 C  
HETATM   13  C   UNL     1      -6.640   7.783  70.623  1.00  0.00    -0.038 C  
BRANCH  13  14
HETATM   14  C   UNL     1      -6.554   9.136  71.259  1.00  0.00    -0.080 C  
BRANCH  14  15
HETATM   15  C   UNL     1      -6.743  10.288  70.281  1.00  0.00    -0.143 C  
BRANCH  15  16
HETATM   16  C   UNL     1      -7.043   9.724  68.892  1.00  0.00    -0.067 C  
BRANCH  16  17
HETATM   17  C   UNL     1      -6.869  10.780  67.811  1.00  0.00    -0.073 C  
HETATM   18  C   UNL     1      -5.911  10.325  66.737  1.00  0.00    -0.052 C  
HETATM   19  O   UNL     1      -5.329   9.251  66.713  1.00  0.00    -0.038 OA 
HETATM   20  O   UNL     1      -5.749  11.257  65.768  1.00  0.00    -0.145 OA 
ENDBRANCH  16  17
ENDBRANCH  15  16
ENDBRANCH  14  15
ENDBRANCH  13  14
ENDBRANCH  11  12
ENDBRANCH  10  11
ENDBRANCH   8   9
ENDBRANCH   7   8
ENDBRANCH   5   6
ENDBRANCH   4   5
ENDBRANCH   3   4
ENDBRANCH   2   3
TORSDOF 12
ENDMDL
MODEL      474
REMARK 921   NORMALIZED FREE ENERGY PREDICTED BY IDOCK:   -0.35 KCAL/MOL
REMARK 922        TOTAL FREE ENERGY PREDICTED BY IDOCK:   -2.55 KCAL/MOL
REMARK 923 INTER-LIGAND FREE ENERGY PREDICTED BY IDOCK:   -2.51 KCAL/MOL
REMARK 924 INTRA-LIGAND FREE ENERGY PREDICTED BY IDOCK:   -0.03 KCAL/MOL
REMARK 927      BINDING AFFINITY PREDICTED BY RF-SCORE:    0.00 PKD
ROOT
HETATM    1  C   UNL     1      -8.666   3.531  68.964  1.00  0.00    -0.139 C  
HETATM    2  C   UNL     1      -9.853   3.651  69.904  1.00  0.00    -0.024 C  
ENDROOT
BRANCH   2   3
HETATM    3  C   UNL     1      -9.582   4.672  71.003  1.00  0.00    -0.245 C  
BRANCH   3   4
HETATM    4  C   UNL     1      -8.230   4.420  71.670  1.00  0.00    -0.097 C  
BRANCH   4   5
HETATM    5  C   UNL     1      -7.896   2.936  71.600  1.00  0.00    -0.056 C  
BRANCH   5   6
HETATM    6  C   UNL     1      -6.702   2.555  72.424  1.00  0.00    -0.019 C  
HETATM    7  C   UNL     1      -5.464   2.984  72.136  1.00  0.00    -0.004 C  
BRANCH   7   8
HETATM    8  C   UNL     1      -5.129   3.858  70.965  1.00  0.00     0.000 C  
BRANCH   8   9
HETATM    9  C   UNL     1      -5.295   5.311  71.286  1.00  0.00    -0.005 C  
HETATM   10  C   UNL     1      -5.648   6.254  70.399  1.00  0.00    -0.018 C  
BRANCH  10  11
HETATM   11  C   UNL     1      -5.838   6.020  68.931  1.00  0.00    -0.016 C  
BRANCH  11  12
HETATM   12  C   UNL     1      -7.182   6.503  68.463  1.00  0.00    -0.085 C  
HETATM   13  C   UNL     1      -7.776   7.634  68.876  1.00  0.00    -0.117 C  
BRANCH  13  14
HETATM   14  C   UNL     1      -7.145   8.546  69.884  1.00  0.00    -0.051 C  
BRANCH  14  15
HETATM   15  C   UNL     1      -7.947   8.690  71.170  1.00  0.00    -0.164 C  
BRANCH  15  16
HETATM   16  C   UNL     1      -9.418   8.386  70.881  1.00  0.00    -0.205 C  
BRANCH  16  17
HETATM   17  C   UNL     1     -10.309   8.783  72.049  1.00  0.00    -0.411 C  
HETATM   18  C   UNL     1     -11.667   8.129  71.959  1.00  0.00    -0.332 C  
HETATM   19  O   UNL     1     -12.035   7.375  71.071  1.00  0.00    -0.304 OA 
HETATM   20  O   UNL     1     -12.469   8.474  72.993  1.00  0.00    -0.223 OA 
ENDBRANCH  16  17
ENDBRANCH  15  16
ENDBRANCH  14  15
ENDBRANCH  13  14
ENDBRANCH  11  12
ENDBRANCH  10  11
ENDBRANCH   8   9
ENDBRANCH   7   8
ENDBRANCH   5   6
ENDBRANCH   4   5
ENDBRANCH   3   4
ENDBRANCH   2   3
TORSDOF 12
ENDMDL
MODEL      475
REMARK 921   NORMALIZED FREE ENERGY PREDICTED BY IDOCK:    0.06 KCAL/MOL
REMARK 922        TOTAL FREE ENERGY PREDICTED BY IDOCK:   -1.85 KCAL/MOL
REMARK 923 INTER-LIGAND FREE ENERGY PREDICTED BY IDOCK:   -2.28 KCAL/MOL
REMARK 924 INTRA-LIGAND FREE ENERGY PREDICTED BY IDOCK:    0.42 KCAL/MOL
REMARK 927      BINDING AFFINITY PREDICTED BY RF-SCORE:    0.00 PKD
ROOT
HETATM    1  C   UNL     1      -8.658   3.540  68.958  1.00  0.00    -0.119 C  
HETATM    2  C   UNL     1      -9.800   3.563  69.958  1.00  0.00     0.003 C  
ENDROOT
BRANCH   2   3
HETATM    3  C   UNL     1      -9.550   4.594  71.053  1.00  0.00    -0.245 C  
BRANCH   3   4
HETATM    4  C   UNL     1      -8.115   4.513  71.570  1.00  0.00    -0.100 C  
BRANCH   4   5
HETATM    5  C   UNL     1      -7.584   3.099  71.381  1.00  0.00    -0.044 C  
BRANCH   5   6
HETATM    6  C   UNL     1      -6.226   2.887  71.983  1.00  0.00    -0.014 C  
HETATM    7  C   UNL     1      -5.129   3.504  71.517  1.00  0.00     0.000 C  
BRANCH   7   8
HETATM    8  C   UNL     1      -5.125   4.441  70.347  1.00  0.00     0.000 C  
BRANCH   8   9
HETATM    9  C   UNL     1      -5.382   5.856  70.761  1.00  0.00    -0.013 C  
HETATM   10  C   UNL     1      -6.025   6.766  70.015  1.00  0.00    -0.023 C  
BRANCH  10  11
HETATM   11  C   UNL     1      -6.503   6.540  68.613  1.00  0.00    -0.049 C  
BRANCH  11  12
HETATM   12  C   UNL     1      -7.978   6.799  68.483  1.00  0.00    -0.119 C  
HETATM   13  C   UNL     1      -8.642   7.780  69.114  1.00  0.00    -0.138 C  
BRANCH  13  14
HETATM   14  C   UNL     1      -7.961   8.733  70.048  1.00  0.00    -0.108 C  
BRANCH  14  15
HETATM   15  C   UNL     1      -8.419  10.177  69.895  1.00  0.00    -0.106 C  
BRANCH  15  16
HETATM   16  C   UNL     1      -9.483  10.253  68.799  1.00  0.00    -0.176 C  
BRANCH  16  17
HETATM   17  C   UNL     1      -9.797  11.694  68.426  1.00  0.00    -0.202 C  
HETATM   18  C   UNL     1     -10.864  11.773  67.360  1.00  0.00    -0.251 C  
HETATM   19  O   UNL     1     -11.421  10.818  66.841  1.00  0.00    -0.304 OA 
HETATM   20  O   UNL     1     -11.153  13.051  67.020  1.00  0.00    -0.267 OA 
ENDBRANCH  16  17
ENDBRANCH  15  16
ENDBRANCH  14  15
ENDBRANCH  13  14
ENDBRANCH  11  12
ENDBRANCH  10  11
ENDBRANCH   8   9
ENDBRANCH   7   8
ENDBRANCH   5   6
ENDBRANCH   4   5
ENDBRANCH   3   4
ENDBRANCH   2   3
TORSDOF 12
ENDMDL
MODEL      476
REMARK 921   NORMALIZED FREE ENERGY PREDICTED BY IDOCK:    0.10 KCAL/MOL
REMARK 922        TOTAL FREE ENERGY PREDICTED BY IDOCK:   -1.79 KCAL/MOL
REMARK 923 INTER-LIGAND FREE ENERGY PREDICTED BY IDOCK:   -3.05 KCAL/MOL
REMARK 924 INTRA-LIGAND FREE ENERGY PREDICTED BY IDOCK:    1.26 KCAL/MOL
REMARK 927      BINDING AFFINITY PREDICTED BY RF-SCORE:    0.00 PKD
ROOT
HETATM    1  C   UNL     1     -12.657   9.443  70.634  1.00  0.00    -0.005 C  
HETATM    2  C   UNL     1     -11.347   9.583  69.880  1.00  0.00    -0.161 C  
ENDROOT
BRANCH   2   3
HETATM    3  C   UNL     1     -10.154   9.441  70.818  1.00  0.00    -0.366 C  
BRANCH   3   4
HETATM    4  C   UNL     1     -10.491   8.541  72.006  1.00  0.00    -0.407 C  
BRANCH   4   5
HETATM    5  C   UNL     1      -9.206   7.977  72.597  1.00  0.00    -0.304 C  
BRANCH   5   6
HETATM    6  C   UNL     1      -9.375   7.447  73.990  1.00  0.00    -0.282 C  
HETATM    7  C   UNL     1      -9.652   6.157  74.240  1.00  0.00    -0.215 C  
BRANCH   7   8
HETATM    8  C   UNL     1      -9.847   5.119  73.177  1.00  0.00    -0.174 C  
BRANCH   8   9
HETATM    9  C   UNL     1     -10.251   5.726  71.869  1.00  0.00    -0.246 C  
HETATM   10  C   UNL     1      -9.664   5.464  70.692  1.00  0.00    -0.241 C  
BRANCH  10  11
HETATM   11  C   UNL     1      -8.453   4.599  70.512  1.00  0.00    -0.104 C  
BRANCH  11  12
HETATM   12  C   UNL     1      -8.722   3.462  69.566  1.00  0.00    -0.129 C  
HETATM   13  C   UNL     1      -7.774   2.731  68.958  1.00  0.00    -0.048 C  
BRANCH  13  14
HETATM   14  C   UNL     1      -6.312   2.994  69.158  1.00  0.00    -0.029 C  
BRANCH  14  15
HETATM   15  C   UNL     1      -5.496   2.937  67.873  1.00  0.00    -0.017 C  
BRANCH  15  16
HETATM   16  C   UNL     1      -6.340   2.297  66.770  1.00  0.00    -0.024 C  
BRANCH  16  17
HETATM   17  C   UNL     1      -6.975   3.348  65.872  1.00  0.00    -0.061 C  
HETATM   18  C   UNL     1      -7.814   2.719  64.785  1.00  0.00    -0.078 C  
HETATM   19  O   UNL     1      -7.978   1.520  64.620  1.00  0.00    -0.067 OA 
HETATM   20  O   UNL     1      -8.385   3.645  63.980  1.00  0.00    -0.089 OA 
ENDBRANCH  16  17
ENDBRANCH  15  16
ENDBRANCH  14  15
ENDBRANCH  13  14
ENDBRANCH  11  12
ENDBRANCH  10  11
ENDBRANCH   8   9
ENDBRANCH   7   8
ENDBRANCH   5   6
ENDBRANCH   4   5
ENDBRANCH   3   4
ENDBRANCH   2   3
TORSDOF 12
ENDMDL
MODEL      477
REMARK 921   NORMALIZED FREE ENERGY PREDICTED BY IDOCK:    0.38 KCAL/MOL
REMARK 922        TOTAL FREE ENERGY PREDICTED BY IDOCK:   -1.32 KCAL/MOL
REMARK 923 INTER-LIGAND FREE ENERGY PREDICTED BY IDOCK:   -2.28 KCAL/MOL
REMARK 924 INTRA-LIGAND FREE ENERGY PREDICTED BY IDOCK:    0.96 KCAL/MOL
REMARK 927      BINDING AFFINITY PREDICTED BY RF-SCORE:    0.00 PKD
ROOT
HETATM    1  C   UNL     1      -8.622   3.557  68.902  1.00  0.00    -0.121 C  
HETATM    2  C   UNL     1      -9.861   3.508  69.778  1.00  0.00     0.052 C  
ENDROOT
BRANCH   2   3
HETATM    3  C   UNL     1     -10.277   4.906  70.219  1.00  0.00    -0.299 C  
BRANCH   3   4
HETATM    4  C   UNL     1      -9.102   5.663  70.837  1.00  0.00    -0.160 C  
BRANCH   4   5
HETATM    5  C   UNL     1      -8.568   4.887  72.033  1.00  0.00    -0.127 C  
BRANCH   5   6
HETATM    6  C   UNL     1      -7.485   5.610  72.777  1.00  0.00    -0.096 C  
HETATM    7  C   UNL     1      -6.187   5.485  72.459  1.00  0.00    -0.043 C  
BRANCH   7   8
HETATM    8  C   UNL     1      -5.672   4.605  71.360  1.00  0.00    -0.012 C  
BRANCH   8   9
HETATM    9  C   UNL     1      -5.284   5.393  70.148  1.00  0.00    -0.004 C  
HETATM   10  C   UNL     1      -5.649   6.662  69.913  1.00  0.00    -0.015 C  
BRANCH  10  11
HETATM   11  C   UNL     1      -6.578   7.460  70.776  1.00  0.00    -0.043 C  
BRANCH  11  12
HETATM   12  C   UNL     1      -6.245   8.925  70.742  1.00  0.00    -0.043 C  
HETATM   13  C   UNL     1      -6.155   9.664  69.625  1.00  0.00    -0.043 C  
BRANCH  13  14
HETATM   14  C   UNL     1      -6.370   9.082  68.262  1.00  0.00    -0.055 C  
BRANCH  14  15
HETATM   15  C   UNL     1      -7.519   9.723  67.494  1.00  0.00    -0.091 C  
BRANCH  15  16
HETATM   16  C   UNL     1      -8.029  10.935  68.273  1.00  0.00    -0.121 C  
BRANCH  16  17
HETATM   17  C   UNL     1      -9.413  11.358  67.804  1.00  0.00    -0.167 C  
HETATM   18  C   UNL     1     -10.502  10.692  68.610  1.00  0.00    -0.191 C  
HETATM   19  O   UNL     1     -10.326   9.905  69.528  1.00  0.00    -0.199 OA 
HETATM   20  O   UNL     1     -11.739  11.061  68.202  1.00  0.00    -0.497 OA 
ENDBRANCH  16  17
ENDBRANCH  15  16
ENDBRANCH  14  15
ENDBRANCH  13  14
ENDBRANCH  11  12
ENDBRANCH  10  11
ENDBRANCH   8   9
ENDBRANCH   7   8
ENDBRANCH   5   6
ENDBRANCH   4   5
ENDBRANCH   3   4
ENDBRANCH   2   3
TORSDOF 12
ENDMDL
MODEL      478
REMARK 921   NORMALIZED FREE ENERGY PREDICTED BY IDOCK:    0.51 KCAL/MOL
REMARK 922        TOTAL FREE ENERGY PREDICTED BY IDOCK:   -1.09 KCAL/MOL
REMARK 923 INTER-LIGAND FREE ENERGY PREDICTED BY IDOCK:   -1.90 KCAL/MOL
REMARK 924 INTRA-LIGAND FREE ENERGY PREDICTED BY IDOCK:    0.81 KCAL/MOL
REMARK 927      BINDING AFFINITY PREDICTED BY RF-SCORE:    0.00 PKD
ROOT
HETATM    1  C   UNL     1      -8.691   3.524  68.952  1.00  0.00    -0.138 C  
HETATM    2  C   UNL     1      -9.928   3.627  69.826  1.00  0.00     0.202 C  
ENDROOT
BRANCH   2   3
HETATM    3  C   UNL     1      -9.746   4.677  70.915  1.00  0.00    -0.262 C  
BRANCH   3   4
HETATM    4  C   UNL     1      -8.419   4.486  71.649  1.00  0.00    -0.113 C  
BRANCH   4   5
HETATM    5  C   UNL     1      -8.043   3.011  71.646  1.00  0.00    -0.057 C  
BRANCH   5   6
HETATM    6  C   UNL     1      -8.568   2.260  72.834  1.00  0.00    -0.067 C  
HETATM    7  C   UNL     1      -8.157   2.516  74.086  1.00  0.00    -0.059 C  
BRANCH   7   8
HETATM    8  C   UNL     1      -7.125   3.546  74.437  1.00  0.00    -0.051 C  
BRANCH   8   9
HETATM    9  C   UNL     1      -7.700   4.928  74.466  1.00  0.00    -0.089 C  
HETATM   10  C   UNL     1      -7.021   6.045  74.166  1.00  0.00    -0.080 C  
BRANCH  10  11
HETATM   11  C   UNL     1      -5.558   6.097  73.848  1.00  0.00    -0.049 C  
BRANCH  11  12
HETATM   12  C   UNL     1      -5.301   6.787  72.537  1.00  0.00    -0.037 C  
HETATM   13  C   UNL     1      -5.975   7.859  72.091  1.00  0.00    -0.041 C  
BRANCH  13  14
HETATM   14  C   UNL     1      -7.091   8.483  72.871  1.00  0.00    -0.060 C  
BRANCH  14  15
HETATM   15  C   UNL     1      -8.431   8.468  72.148  1.00  0.00    -0.221 C  
BRANCH  15  16
HETATM   16  C   UNL     1      -8.186   8.434  70.639  1.00  0.00    -0.117 C  
BRANCH  16  17
HETATM   17  C   UNL     1      -9.467   8.699  69.861  1.00  0.00    -0.168 C  
HETATM   18  C   UNL     1      -9.329   8.302  68.410  1.00  0.00    -0.135 C  
HETATM   19  O   UNL     1      -8.327   7.827  67.896  1.00  0.00    -0.121 OA 
HETATM   20  O   UNL     1     -10.462   8.532  67.707  1.00  0.00    -0.237 OA 
ENDBRANCH  16  17
ENDBRANCH  15  16
ENDBRANCH  14  15
ENDBRANCH  13  14
ENDBRANCH  11  12
ENDBRANCH  10  11
ENDBRANCH   8   9
ENDBRANCH   7   8
ENDBRANCH   5   6
ENDBRANCH   4   5
ENDBRANCH   3   4
ENDBRANCH   2   3
TORSDOF 12
ENDMDL
MODEL      479
REMARK 921   NORMALIZED FREE ENERGY PREDICTED BY IDOCK:    6.37 KCAL/MOL
REMARK 922        TOTAL FREE ENERGY PREDICTED BY IDOCK:    8.88 KCAL/MOL
REMARK 923 INTER-LIGAND FREE ENERGY PREDICTED BY IDOCK:   -1.85 KCAL/MOL
REMARK 924 INTRA-LIGAND FREE ENERGY PREDICTED BY IDOCK:   10.74 KCAL/MOL
REMARK 927      BINDING AFFINITY PREDICTED BY RF-SCORE:    0.00 PKD
ROOT
HETATM    1  C   UNL     1     -12.304   9.242  70.333  1.00  0.00     0.190 C  
HETATM    2  C   UNL     1     -10.981   9.468  69.623  1.00  0.00    -0.233 C  
ENDROOT
BRANCH   2   3
HETATM    3  C   UNL     1      -9.835   9.589  70.620  1.00  0.00    -0.328 C  
BRANCH   3   4
HETATM    4  C   UNL     1     -10.147   8.835  71.912  1.00  0.00    -0.409 C  
BRANCH   4   5
HETATM    5  C   UNL     1      -8.856   8.585  72.680  1.00  0.00    -0.225 C  
BRANCH   5   6
HETATM    6  C   UNL     1      -9.079   8.243  74.124  1.00  0.00     0.476 C  
HETATM    7  C   UNL     1      -9.299   6.986  74.539  1.00  0.00    -0.182 C  
BRANCH   7   8
HETATM    8  C   UNL     1      -9.373   5.800  73.625  1.00  0.00    -0.137 C  
BRANCH   8   9
HETATM    9  C   UNL     1      -9.762   6.190  72.232  1.00  0.00    -0.168 C  
HETATM   10  C   UNL     1      -9.067   5.878  71.129  1.00  0.00    -0.152 C  
BRANCH  10  11
HETATM   11  C   UNL     1      -7.744   5.174  71.121  1.00  0.00    -0.096 C  
BRANCH  11  12
HETATM   12  C   UNL     1      -7.782   3.933  70.274  1.00  0.00    -0.048 C  
HETATM   13  C   UNL     1      -6.711   3.366  69.697  1.00  0.00    -0.034 C  
BRANCH  13  14
HETATM   14  C   UNL     1      -5.333   3.938  69.834  1.00  0.00    -0.008 C  
BRANCH  14  15
HETATM   15  C   UNL     1      -5.229   5.398  69.413  1.00  0.00    -0.004 C  
BRANCH  15  16
HETATM   16  C   UNL     1      -6.634   5.990  69.302  1.00  0.00    -0.051 C  
BRANCH  16  17
HETATM   17  C   UNL     1      -7.424   5.344  68.173  1.00  0.00    -0.076 C  
HETATM   18  C   UNL     1      -8.833   5.881  68.101  1.00  0.00    -0.110 C  
HETATM   19  O   UNL     1      -9.310   6.726  68.844  1.00  0.00    -0.132 OA 
HETATM   20  O   UNL     1      -9.546   5.314  67.100  1.00  0.00    -0.127 OA 
ENDBRANCH  16  17
ENDBRANCH  15  16
ENDBRANCH  14  15
ENDBRANCH  13  14
ENDBRANCH  11  12
ENDBRANCH  10  11
ENDBRANCH   8   9
ENDBRANCH   7   8
ENDBRANCH   5   6
ENDBRANCH   4   5
ENDBRANCH   3   4
ENDBRANCH   2   3
TORSDOF 12
ENDMDL
MODEL      480
REMARK 921   NORMALIZED FREE ENERGY PREDICTED BY IDOCK:   17.85 KCAL/MOL
REMARK 922        TOTAL FREE ENERGY PREDICTED BY IDOCK:   28.41 KCAL/MOL
REMARK 923 INTER-LIGAND FREE ENERGY PREDICTED BY IDOCK:   15.18 KCAL/MOL
REMARK 924 INTRA-LIGAND FREE ENERGY PREDICTED BY IDOCK:   13.23 KCAL/MOL
REMARK 927      BINDING AFFINITY PREDICTED BY RF-SCORE:    0.00 PKD
ROOT
HETATM    1  C   UNL     1     -13.366   8.657  68.972  1.00  0.00     8.054 C  
HETATM    2  C   UNL     1     -12.582   8.819  67.681  1.00  0.00     9.221 C  
ENDROOT
BRANCH   2   3
HETATM    3  C   UNL     1     -11.085   8.908  67.955  1.00  0.00     0.200 C  
BRANCH   3   4
HETATM    4  C   UNL     1     -10.740   8.331  69.327  1.00  0.00    -0.140 C  
BRANCH   4   5
HETATM    5  C   UNL     1      -9.227   8.278  69.491  1.00  0.00    -0.158 C  
BRANCH   5   6
HETATM    6  C   UNL     1      -8.761   8.686  70.857  1.00  0.00    -0.216 C  
HETATM    7  C   UNL     1      -9.101   8.008  71.964  1.00  0.00    -0.217 C  
BRANCH   7   8
HETATM    8  C   UNL     1      -9.990   6.800  71.970  1.00  0.00    -0.183 C  
BRANCH   8   9
HETATM    9  C   UNL     1     -10.718   6.635  70.673  1.00  0.00    -0.286 C  
HETATM   10  C   UNL     1     -10.450   5.687  69.762  1.00  0.00    -0.377 C  
BRANCH  10  11
HETATM   11  C   UNL     1      -9.321   4.706  69.854  1.00  0.00    -0.214 C  
BRANCH  11  12
HETATM   12  C   UNL     1      -9.778   3.307  69.549  1.00  0.00     0.005 C  
HETATM   13  C   UNL     1      -9.624   2.255  70.368  1.00  0.00    -0.107 C  
BRANCH  13  14
HETATM   14  C   UNL     1      -8.950   2.373  71.701  1.00  0.00    -0.138 C  
BRANCH  14  15
HETATM   15  C   UNL     1      -7.507   2.852  71.620  1.00  0.00    -0.040 C  
BRANCH  15  16
HETATM   16  C   UNL     1      -7.346   3.754  70.396  1.00  0.00    -0.041 C  
BRANCH  16  17
HETATM   17  C   UNL     1      -7.759   3.040  69.118  1.00  0.00    -0.048 C  
HETATM   18  C   UNL     1      -6.825   3.357  67.975  1.00  0.00    -0.050 C  
HETATM   19  O   UNL     1      -5.851   4.093  68.037  1.00  0.00    -0.024 OA 
HETATM   20  O   UNL     1      -7.182   2.726  66.832  1.00  0.00    -0.059 OA 
ENDBRANCH  16  17
ENDBRANCH  15  16
ENDBRANCH  14  15
ENDBRANCH  13  14
ENDBRANCH  11  12
ENDBRANCH  10  11
ENDBRANCH   8   9
ENDBRANCH   7   8
ENDBRANCH   5   6
ENDBRANCH   4   5
ENDBRANCH   3   4
ENDBRANCH   2   3
TORSDOF 12
ENDMDL
MODEL      481
REMARK 921   NORMALIZED FREE ENERGY PREDICTED BY IDOCK:   19.09 KCAL/MOL
REMARK 922        TOTAL FREE ENERGY PREDICTED BY IDOCK:   30.52 KCAL/MOL
REMARK 923 INTER-LIGAND FREE ENERGY PREDICTED BY IDOCK:   16.10 KCAL/MOL
REMARK 924 INTRA-LIGAND FREE ENERGY PREDICTED BY IDOCK:   14.42 KCAL/MOL
REMARK 927      BINDING AFFINITY PREDICTED BY RF-SCORE:    0.00 PKD
ROOT
HETATM    1  C   UNL     1     -13.393   8.651  68.958  1.00  0.00     8.054 C  
HETATM    2  C   UNL     1     -12.619   8.776  67.658  1.00  0.00     9.221 C  
ENDROOT
BRANCH   2   3
HETATM    3  C   UNL     1     -11.116   8.764  67.910  1.00  0.00     0.256 C  
BRANCH   3   4
HETATM    4  C   UNL     1     -10.807   8.726  69.406  1.00  0.00    -0.123 C  
BRANCH   4   5
HETATM    5  C   UNL     1      -9.320   8.475  69.613  1.00  0.00    -0.157 C  
BRANCH   5   6
HETATM    6  C   UNL     1      -8.727   9.294  70.721  1.00  0.00    -0.272 C  
HETATM    7  C   UNL     1      -9.165   9.216  71.987  1.00  0.00     0.235 C  
BRANCH   7   8
HETATM    8  C   UNL     1     -10.295   8.336  72.432  1.00  0.00    -0.402 C  
BRANCH   8   9
HETATM    9  C   UNL     1     -11.108   7.842  71.275  1.00  0.00    -0.278 C  
HETATM   10  C   UNL     1     -11.124   6.574  70.839  1.00  0.00    -0.345 C  
BRANCH  10  11
HETATM   11  C   UNL     1     -10.261   5.473  71.376  1.00  0.00    -0.275 C  
BRANCH  11  12
HETATM   12  C   UNL     1     -11.056   4.223  71.634  1.00  0.00     0.892 C  
HETATM   13  C   UNL     1     -11.122   3.588  72.814  1.00  0.00     0.097 C  
BRANCH  13  14
HETATM   14  C   UNL     1     -10.378   4.068  74.023  1.00  0.00    -0.249 C  
BRANCH  14  15
HETATM   15  C   UNL     1      -8.869   4.137  73.828  1.00  0.00    -0.093 C  
BRANCH  15  16
HETATM   16  C   UNL     1      -8.565   4.438  72.360  1.00  0.00    -0.113 C  
BRANCH  16  17
HETATM   17  C   UNL     1      -9.204   3.410  71.437  1.00  0.00    -0.193 C  
HETATM   18  C   UNL     1      -8.283   3.036  70.300  1.00  0.00    -0.044 C  
HETATM   19  O   UNL     1      -7.162   3.486  70.116  1.00  0.00    -0.041 OA 
HETATM   20  O   UNL     1      -8.839   2.121  69.472  1.00  0.00    -0.069 OA 
ENDBRANCH  16  17
ENDBRANCH  15  16
ENDBRANCH  14  15
ENDBRANCH  13  14
ENDBRANCH  11  12
ENDBRANCH  10  11
ENDBRANCH   8   9
ENDBRANCH   7   8
ENDBRANCH   5   6
ENDBRANCH   4   5
ENDBRANCH   3   4
ENDBRANCH   2   3
TORSDOF 12
ENDMDL
