MODEL        1
REMARK 921   NORMALIZED FREE ENERGY PREDICTED BY IDOCK:   -6.89 KCAL/MOL
REMARK 922        TOTAL FREE ENERGY PREDICTED BY IDOCK:   -9.39 KCAL/MOL
REMARK 923 INTER-LIGAND FREE ENERGY PREDICTED BY IDOCK:   -8.90 KCAL/MOL
REMARK 924 INTRA-LIGAND FREE ENERGY PREDICTED BY IDOCK:   -0.48 KCAL/MOL
REMARK 927      BINDING AFFINITY PREDICTED BY RF-SCORE:    0.00 PKD
ROOT
HETATM    1  N   UNL     1     -11.613  16.470  63.845  1.00  0.00    -1.578 NA 
HETATM    2  C   UNL     1     -11.768  15.313  64.536  1.00  0.00    -0.305 C  
HETATM    3  H1  UNL     1     -11.832  16.503  62.849  1.00  0.00     0.000 HD 
HETATM    4  H2  UNL     1     -11.279  17.308  64.321  1.00  0.00     0.000 HD 
HETATM    5  N   UNL     1     -11.489  15.272  65.811  1.00  0.00    -0.181 NA 
HETATM    6  C   UNL     1     -11.673  14.047  66.361  1.00  0.00    -0.391 A  
HETATM    7  C   UNL     1     -12.107  12.893  65.747  1.00  0.00    -0.457 A  
HETATM    8  N   UNL     1     -12.152  11.844  66.631  1.00  0.00    -0.485 NA 
HETATM    9  C   UNL     1     -12.427  12.958  64.338  1.00  0.00    -0.375 C  
HETATM   10  N   UNL     1     -12.229  14.229  63.814  1.00  0.00    -1.019 N  
HETATM   11  O   UNL     1     -12.826  12.028  63.644  1.00  0.00    -0.713 OA 
HETATM   12  C   UNL     1     -11.746  12.358  67.773  1.00  0.00    -0.350 A  
HETATM   13  N   UNL     1     -11.453  13.693  67.660  1.00  0.00    -0.307 NA 
HETATM   14  H   UNL     1     -12.439  14.372  62.826  1.00  0.00     0.000 HD 
ENDROOT
BRANCH  13  15
HETATM   15  C   UNL     1     -11.052  14.574  68.734  1.00  0.00    -0.251 C  
BRANCH  15  16
HETATM   16  O   UNL     1     -12.099  15.474  69.118  1.00  0.00    -0.326 OA 
BRANCH  16  17
HETATM   17  C   UNL     1     -12.568  15.357  70.481  1.00  0.00    -0.423 C  
BRANCH  17  18
HETATM   18  C   UNL     1     -12.640  13.903  70.970  1.00  0.00    -0.371 C  
HETATM   19  H   UNL     1     -13.331  12.910  72.540  1.00  0.00     0.000 HD 
HETATM   20  O   UNL     1     -13.287  13.810  72.238  1.00  0.00    -0.433 OA 
ENDBRANCH  17  18
BRANCH  17  21
HETATM   21  C   UNL     1     -11.588  16.156  71.358  1.00  0.00    -0.431 C  
HETATM   22  O   UNL     1     -12.075  16.234  72.699  1.00  0.00    -0.509 OA 
HETATM   23  H   UNL     1     -11.469  16.727  73.240  1.00  0.00     0.000 HD 
ENDBRANCH  17  21
ENDBRANCH  16  17
ENDBRANCH  15  16
ENDBRANCH  13  15
TORSDOF 5
ENDMDL
MODEL        2
REMARK 921   NORMALIZED FREE ENERGY PREDICTED BY IDOCK:   -6.56 KCAL/MOL
REMARK 922        TOTAL FREE ENERGY PREDICTED BY IDOCK:   -8.96 KCAL/MOL
REMARK 923 INTER-LIGAND FREE ENERGY PREDICTED BY IDOCK:   -8.43 KCAL/MOL
REMARK 924 INTRA-LIGAND FREE ENERGY PREDICTED BY IDOCK:   -0.53 KCAL/MOL
REMARK 927      BINDING AFFINITY PREDICTED BY RF-SCORE:    0.00 PKD
ROOT
HETATM    1  N   UNL     1     -12.546  11.530  62.863  1.00  0.00    -0.874 NA 
HETATM    2  C   UNL     1     -12.287  12.456  63.819  1.00  0.00    -0.528 C  
HETATM    3  H1  UNL     1     -12.767  11.826  61.912  1.00  0.00     0.000 HD 
HETATM    4  H2  UNL     1     -12.519  10.536  63.094  1.00  0.00     0.000 HD 
HETATM    5  N   UNL     1     -12.004  12.076  65.036  1.00  0.00    -0.299 NA 
HETATM    6  C   UNL     1     -11.789  13.111  65.884  1.00  0.00    -0.406 A  
HETATM    7  C   UNL     1     -11.832  14.460  65.612  1.00  0.00    -0.355 A  
HETATM    8  N   UNL     1     -11.574  15.205  66.735  1.00  0.00    -0.210 NA 
HETATM    9  C   UNL     1     -12.133  14.865  64.256  1.00  0.00    -0.353 C  
HETATM   10  N   UNL     1     -12.342  13.777  63.418  1.00  0.00    -1.100 N  
HETATM   11  O   UNL     1     -12.208  16.019  63.847  1.00  0.00    -0.883 OA 
HETATM   12  C   UNL     1     -11.378  14.313  67.684  1.00  0.00    -0.324 A  
HETATM   13  N   UNL     1     -11.489  13.030  67.213  1.00  0.00    -0.312 NA 
HETATM   14  H   UNL     1     -12.551  13.967  62.438  1.00  0.00     0.000 HD 
ENDROOT
BRANCH  13  15
HETATM   15  C   UNL     1     -11.262  11.818  67.970  1.00  0.00    -0.263 C  
BRANCH  15  16
HETATM   16  O   UNL     1     -12.283  11.589  68.948  1.00  0.00    -0.415 OA 
BRANCH  16  17
HETATM   17  C   UNL     1     -11.896  11.783  70.327  1.00  0.00    -0.295 C  
BRANCH  17  18
HETATM   18  C   UNL     1     -12.605  12.974  70.989  1.00  0.00    -0.299 C  
HETATM   19  H   UNL     1     -13.973  13.280  72.390  1.00  0.00     0.000 HD 
HETATM   20  O   UNL     1     -13.534  12.543  71.981  1.00  0.00    -0.493 OA 
ENDBRANCH  17  18
BRANCH  17  21
HETATM   21  C   UNL     1     -12.249  10.484  71.074  1.00  0.00    -0.400 C  
HETATM   22  O   UNL     1     -13.393   9.868  70.481  1.00  0.00    -0.620 OA 
HETATM   23  H   UNL     1     -13.611   9.066  70.942  1.00  0.00     0.000 HD 
ENDBRANCH  17  21
ENDBRANCH  16  17
ENDBRANCH  15  16
ENDBRANCH  13  15
TORSDOF 5
ENDMDL
MODEL        3
REMARK 921   NORMALIZED FREE ENERGY PREDICTED BY IDOCK:   -6.55 KCAL/MOL
REMARK 922        TOTAL FREE ENERGY PREDICTED BY IDOCK:   -8.95 KCAL/MOL
REMARK 923 INTER-LIGAND FREE ENERGY PREDICTED BY IDOCK:   -8.32 KCAL/MOL
REMARK 924 INTRA-LIGAND FREE ENERGY PREDICTED BY IDOCK:   -0.63 KCAL/MOL
REMARK 927      BINDING AFFINITY PREDICTED BY RF-SCORE:    0.00 PKD
ROOT
HETATM    1  N   UNL     1     -11.661  16.435  63.727  1.00  0.00    -1.498 NA 
HETATM    2  C   UNL     1     -11.769  15.289  64.445  1.00  0.00    -0.285 C  
HETATM    3  H1  UNL     1     -12.003  16.469  62.766  1.00  0.00     0.000 HD 
HETATM    4  H2  UNL     1     -11.239  17.262  64.148  1.00  0.00     0.000 HD 
HETATM    5  N   UNL     1     -11.331  15.245  65.675  1.00  0.00    -0.257 NA 
HETATM    6  C   UNL     1     -11.489  14.032  66.257  1.00  0.00    -0.351 A  
HETATM    7  C   UNL     1     -12.038  12.891  65.716  1.00  0.00    -0.457 A  
HETATM    8  N   UNL     1     -12.009  11.850  66.610  1.00  0.00    -0.564 NA 
HETATM    9  C   UNL     1     -12.532  12.958  64.358  1.00  0.00    -0.375 C  
HETATM   10  N   UNL     1     -12.357  14.218  63.799  1.00  0.00    -1.063 N  
HETATM   11  O   UNL     1     -13.050  12.040  63.731  1.00  0.00    -0.730 OA 
HETATM   12  C   UNL     1     -11.442  12.356  67.686  1.00  0.00    -0.337 A  
HETATM   13  N   UNL     1     -11.118  13.678  67.522  1.00  0.00    -0.271 NA 
HETATM   14  H   UNL     1     -12.685  14.362  62.844  1.00  0.00     0.000 HD 
ENDROOT
BRANCH  13  15
HETATM   15  C   UNL     1     -10.552  14.551  68.527  1.00  0.00    -0.252 C  
BRANCH  15  16
HETATM   16  O   UNL     1     -11.142  15.857  68.505  1.00  0.00    -0.302 OA 
BRANCH  16  17
HETATM   17  C   UNL     1     -10.252  16.960  68.796  1.00  0.00    -0.311 C  
BRANCH  17  18
HETATM   18  C   UNL     1      -8.769  16.593  68.637  1.00  0.00    -0.250 C  
HETATM   19  H   UNL     1      -7.026  17.530  68.524  1.00  0.00     0.000 HD 
HETATM   20  O   UNL     1      -7.944  17.757  68.623  1.00  0.00    -0.282 OA 
ENDBRANCH  17  18
BRANCH  17  21
HETATM   21  C   UNL     1     -10.618  18.093  67.822  1.00  0.00    -0.389 C  
HETATM   22  O   UNL     1     -10.342  17.699  66.477  1.00  0.00    -0.343 OA 
HETATM   23  H   UNL     1     -10.568  18.399  65.876  1.00  0.00     0.000 HD 
ENDBRANCH  17  21
ENDBRANCH  16  17
ENDBRANCH  15  16
ENDBRANCH  13  15
TORSDOF 5
ENDMDL
MODEL        4
REMARK 921   NORMALIZED FREE ENERGY PREDICTED BY IDOCK:   -6.45 KCAL/MOL
REMARK 922        TOTAL FREE ENERGY PREDICTED BY IDOCK:   -8.82 KCAL/MOL
REMARK 923 INTER-LIGAND FREE ENERGY PREDICTED BY IDOCK:   -8.42 KCAL/MOL
REMARK 924 INTRA-LIGAND FREE ENERGY PREDICTED BY IDOCK:   -0.41 KCAL/MOL
REMARK 927      BINDING AFFINITY PREDICTED BY RF-SCORE:    0.00 PKD
ROOT
HETATM    1  N   UNL     1     -11.646  16.424  63.845  1.00  0.00    -1.602 NA 
HETATM    2  C   UNL     1     -11.685  15.250  64.524  1.00  0.00    -0.305 C  
HETATM    3  H1  UNL     1     -12.132  16.513  62.953  1.00  0.00     0.000 HD 
HETATM    4  H2  UNL     1     -11.131  17.217  64.227  1.00  0.00     0.000 HD 
HETATM    5  N   UNL     1     -11.062  15.136  65.667  1.00  0.00    -0.341 NA 
HETATM    6  C   UNL     1     -11.174  13.903  66.217  1.00  0.00    -0.309 A  
HETATM    7  C   UNL     1     -11.846  12.806  65.723  1.00  0.00    -0.434 A  
HETATM    8  N   UNL     1     -11.718  11.725  66.559  1.00  0.00    -0.528 NA 
HETATM    9  C   UNL     1     -12.543  12.952  64.464  1.00  0.00    -0.350 C  
HETATM   10  N   UNL     1     -12.408  14.230  63.936  1.00  0.00    -0.986 N  
HETATM   11  O   UNL     1     -13.187  12.080  63.890  1.00  0.00    -0.705 OA 
HETATM   12  C   UNL     1     -10.971  12.162  67.552  1.00  0.00    -0.257 A  
HETATM   13  N   UNL     1     -10.625  13.479  67.392  1.00  0.00    -0.251 NA 
HETATM   14  H   UNL     1     -12.875  14.428  63.052  1.00  0.00     0.000 HD 
ENDROOT
BRANCH  13  15
HETATM   15  C   UNL     1      -9.875  14.286  68.329  1.00  0.00    -0.235 C  
BRANCH  15  16
HETATM   16  O   UNL     1     -10.576  14.475  69.565  1.00  0.00    -0.204 OA 
BRANCH  16  17
HETATM   17  C   UNL     1     -10.785  15.846  69.973  1.00  0.00    -0.339 C  
BRANCH  17  18
HETATM   18  C   UNL     1     -11.253  16.751  68.823  1.00  0.00    -0.148 C  
HETATM   19  H   UNL     1     -10.687  18.441  67.958  1.00  0.00     0.000 HD 
HETATM   20  O   UNL     1     -10.397  17.882  68.670  1.00  0.00    -0.367 OA 
ENDBRANCH  17  18
BRANCH  17  21
HETATM   21  C   UNL     1     -11.849  15.821  71.085  1.00  0.00    -0.425 C  
HETATM   22  O   UNL     1     -13.092  15.342  70.569  1.00  0.00    -0.631 OA 
HETATM   23  H   UNL     1     -13.748  15.327  71.256  1.00  0.00     0.000 HD 
ENDBRANCH  17  21
ENDBRANCH  16  17
ENDBRANCH  15  16
ENDBRANCH  13  15
TORSDOF 5
ENDMDL
MODEL        5
REMARK 921   NORMALIZED FREE ENERGY PREDICTED BY IDOCK:   -6.39 KCAL/MOL
REMARK 922        TOTAL FREE ENERGY PREDICTED BY IDOCK:   -8.74 KCAL/MOL
REMARK 923 INTER-LIGAND FREE ENERGY PREDICTED BY IDOCK:   -8.19 KCAL/MOL
REMARK 924 INTRA-LIGAND FREE ENERGY PREDICTED BY IDOCK:   -0.55 KCAL/MOL
REMARK 927      BINDING AFFINITY PREDICTED BY RF-SCORE:    0.00 PKD
ROOT
HETATM    1  N   UNL     1     -12.505   9.540  70.705  1.00  0.00    -0.482 NA 
HETATM    2  C   UNL     1     -12.485  10.889  70.567  1.00  0.00    -0.351 C  
HETATM    3  H1  UNL     1     -12.897   9.119  71.548  1.00  0.00     0.000 HD 
HETATM    4  H2  UNL     1     -12.128   8.946  69.967  1.00  0.00     0.000 HD 
HETATM    5  N   UNL     1     -11.982  11.427  69.488  1.00  0.00    -0.332 NA 
HETATM    6  C   UNL     1     -12.014  12.782  69.501  1.00  0.00    -0.276 A  
HETATM    7  C   UNL     1     -12.499  13.615  70.485  1.00  0.00    -0.324 A  
HETATM    8  N   UNL     1     -12.341  14.935  70.144  1.00  0.00    -0.328 NA 
HETATM    9  C   UNL     1     -13.065  13.004  71.667  1.00  0.00    -0.347 C  
HETATM   10  N   UNL     1     -13.019  11.616  71.614  1.00  0.00    -0.427 N  
HETATM   11  O   UNL     1     -13.540  13.598  72.630  1.00  0.00    -0.615 OA 
HETATM   12  C   UNL     1     -11.762  14.903  68.961  1.00  0.00    -0.319 A  
HETATM   13  N   UNL     1     -11.552  13.619  68.528  1.00  0.00    -0.312 NA 
HETATM   14  H   UNL     1     -13.406  11.099  72.402  1.00  0.00     0.000 HD 
ENDROOT
BRANCH  13  15
HETATM   15  C   UNL     1     -11.006  13.228  67.246  1.00  0.00    -0.268 C  
BRANCH  15  16
HETATM   16  O   UNL     1     -10.443  14.337  66.534  1.00  0.00    -0.280 OA 
BRANCH  16  17
HETATM   17  C   UNL     1     -10.952  14.558  65.199  1.00  0.00    -0.379 C  
BRANCH  17  18
HETATM   18  C   UNL     1     -12.363  13.986  64.991  1.00  0.00    -0.441 C  
HETATM   19  H   UNL     1     -13.409  13.146  63.534  1.00  0.00     0.000 HD 
HETATM   20  O   UNL     1     -12.536  13.499  63.662  1.00  0.00    -0.722 OA 
ENDBRANCH  17  18
BRANCH  17  21
HETATM   21  C   UNL     1     -10.967  16.080  64.976  1.00  0.00    -0.380 C  
HETATM   22  O   UNL     1     -11.554  16.390  63.712  1.00  0.00    -1.605 OA 
HETATM   23  H   UNL     1     -11.562  17.330  63.574  1.00  0.00     0.000 HD 
ENDBRANCH  17  21
ENDBRANCH  16  17
ENDBRANCH  15  16
ENDBRANCH  13  15
TORSDOF 5
ENDMDL
MODEL        6
REMARK 921   NORMALIZED FREE ENERGY PREDICTED BY IDOCK:   -6.39 KCAL/MOL
REMARK 922        TOTAL FREE ENERGY PREDICTED BY IDOCK:   -8.74 KCAL/MOL
REMARK 923 INTER-LIGAND FREE ENERGY PREDICTED BY IDOCK:   -8.30 KCAL/MOL
REMARK 924 INTRA-LIGAND FREE ENERGY PREDICTED BY IDOCK:   -0.44 KCAL/MOL
REMARK 927      BINDING AFFINITY PREDICTED BY RF-SCORE:    0.00 PKD
ROOT
HETATM    1  N   UNL     1     -12.700  11.531  62.832  1.00  0.00    -0.839 NA 
HETATM    2  C   UNL     1     -12.420  12.425  63.813  1.00  0.00    -0.492 C  
HETATM    3  H1  UNL     1     -12.887  11.857  61.884  1.00  0.00     0.000 HD 
HETATM    4  H2  UNL     1     -12.723  10.534  63.042  1.00  0.00     0.000 HD 
HETATM    5  N   UNL     1     -12.180  12.007  65.027  1.00  0.00    -0.358 NA 
HETATM    6  C   UNL     1     -11.936  13.014  65.901  1.00  0.00    -0.435 A  
HETATM    7  C   UNL     1     -11.912  14.369  65.657  1.00  0.00    -0.354 A  
HETATM    8  N   UNL     1     -11.644  15.077  66.802  1.00  0.00    -0.267 NA 
HETATM    9  C   UNL     1     -12.166  14.815  64.305  1.00  0.00    -0.379 C  
HETATM   10  N   UNL     1     -12.406  13.755  63.440  1.00  0.00    -1.100 N  
HETATM   11  O   UNL     1     -12.179  15.980  63.920  1.00  0.00    -0.883 OA 
HETATM   12  C   UNL     1     -11.509  14.158  67.735  1.00  0.00    -0.325 A  
HETATM   13  N   UNL     1     -11.668  12.892  67.234  1.00  0.00    -0.362 NA 
HETATM   14  H   UNL     1     -12.585  13.975  62.460  1.00  0.00     0.000 HD 
ENDROOT
BRANCH  13  15
HETATM   15  C   UNL     1     -11.512  11.655  67.968  1.00  0.00    -0.315 C  
BRANCH  15  16
HETATM   16  O   UNL     1     -11.632  11.846  69.384  1.00  0.00    -0.279 OA 
BRANCH  16  17
HETATM   17  C   UNL     1     -12.169  10.730  70.131  1.00  0.00    -0.346 C  
BRANCH  17  18
HETATM   18  C   UNL     1     -11.088   9.749  70.608  1.00  0.00    -0.332 C  
HETATM   19  H   UNL     1     -10.906   7.802  70.929  1.00  0.00     0.000 HD 
HETATM   20  O   UNL     1     -11.575   8.409  70.634  1.00  0.00    -0.270 OA 
ENDBRANCH  17  18
BRANCH  17  21
HETATM   21  C   UNL     1     -12.909  11.323  71.343  1.00  0.00    -0.410 C  
HETATM   22  O   UNL     1     -13.213  10.296  72.288  1.00  0.00    -0.554 OA 
HETATM   23  H   UNL     1     -13.670  10.662  73.036  1.00  0.00     0.000 HD 
ENDBRANCH  17  21
ENDBRANCH  16  17
ENDBRANCH  15  16
ENDBRANCH  13  15
TORSDOF 5
ENDMDL
MODEL        7
REMARK 921   NORMALIZED FREE ENERGY PREDICTED BY IDOCK:   -6.31 KCAL/MOL
REMARK 922        TOTAL FREE ENERGY PREDICTED BY IDOCK:   -8.64 KCAL/MOL
REMARK 923 INTER-LIGAND FREE ENERGY PREDICTED BY IDOCK:   -7.96 KCAL/MOL
REMARK 924 INTRA-LIGAND FREE ENERGY PREDICTED BY IDOCK:   -0.67 KCAL/MOL
REMARK 927      BINDING AFFINITY PREDICTED BY RF-SCORE:    0.00 PKD
ROOT
HETATM    1  N   UNL     1     -11.778  16.351  63.740  1.00  0.00    -1.498 NA 
HETATM    2  C   UNL     1     -11.844  15.176  64.415  1.00  0.00    -0.305 C  
HETATM    3  H1  UNL     1     -12.052  16.391  62.759  1.00  0.00     0.000 HD 
HETATM    4  H2  UNL     1     -11.454  17.194  64.214  1.00  0.00     0.000 HD 
HETATM    5  N   UNL     1     -11.492  15.125  65.673  1.00  0.00    -0.255 NA 
HETATM    6  C   UNL     1     -11.593  13.884  66.207  1.00  0.00    -0.365 A  
HETATM    7  C   UNL     1     -12.009  12.723  65.595  1.00  0.00    -0.452 A  
HETATM    8  N   UNL     1     -11.960  11.658  66.458  1.00  0.00    -0.376 NA 
HETATM    9  C   UNL     1     -12.410  12.798  64.207  1.00  0.00    -0.416 C  
HETATM   10  N   UNL     1     -12.297  14.086  63.698  1.00  0.00    -1.059 N  
HETATM   11  O   UNL     1     -12.806  11.864  63.518  1.00  0.00    -0.691 OA 
HETATM   12  C   UNL     1     -11.513  12.168  67.587  1.00  0.00    -0.331 A  
HETATM   13  N   UNL     1     -11.285  13.517  67.484  1.00  0.00    -0.274 NA 
HETATM   14  H   UNL     1     -12.567  14.237  62.726  1.00  0.00     0.000 HD 
ENDROOT
BRANCH  13  15
HETATM   15  C   UNL     1     -10.864  14.396  68.553  1.00  0.00    -0.251 C  
BRANCH  15  16
HETATM   16  O   UNL     1      -9.455  14.656  68.519  1.00  0.00    -0.205 OA 
BRANCH  16  17
HETATM   17  C   UNL     1      -9.060  15.951  68.012  1.00  0.00    -0.184 C  
BRANCH  17  18
HETATM   18  C   UNL     1      -8.072  16.682  68.934  1.00  0.00    -0.235 C  
HETATM   19  H   UNL     1      -7.228  18.470  69.063  1.00  0.00     0.000 HD 
HETATM   20  O   UNL     1      -7.839  18.018  68.493  1.00  0.00    -0.288 OA 
ENDBRANCH  17  18
BRANCH  17  21
HETATM   21  C   UNL     1      -8.412  15.712  66.637  1.00  0.00    -0.288 C  
HETATM   22  O   UNL     1      -8.843  16.706  65.707  1.00  0.00    -0.493 OA 
HETATM   23  H   UNL     1      -8.443  16.558  64.858  1.00  0.00     0.000 HD 
ENDBRANCH  17  21
ENDBRANCH  16  17
ENDBRANCH  15  16
ENDBRANCH  13  15
TORSDOF 5
ENDMDL
MODEL        8
REMARK 921   NORMALIZED FREE ENERGY PREDICTED BY IDOCK:   -6.27 KCAL/MOL
REMARK 922        TOTAL FREE ENERGY PREDICTED BY IDOCK:   -8.58 KCAL/MOL
REMARK 923 INTER-LIGAND FREE ENERGY PREDICTED BY IDOCK:   -8.06 KCAL/MOL
REMARK 924 INTRA-LIGAND FREE ENERGY PREDICTED BY IDOCK:   -0.53 KCAL/MOL
REMARK 927      BINDING AFFINITY PREDICTED BY RF-SCORE:    0.00 PKD
ROOT
HETATM    1  N   UNL     1     -13.693  15.585  72.310  1.00  0.00    -0.505 NA 
HETATM    2  C   UNL     1     -13.235  14.556  71.554  1.00  0.00    -0.358 C  
HETATM    3  H1  UNL     1     -14.063  15.406  73.243  1.00  0.00     0.000 HD 
HETATM    4  H2  UNL     1     -13.667  16.537  71.945  1.00  0.00     0.000 HD 
HETATM    5  N   UNL     1     -12.761  14.785  70.358  1.00  0.00    -0.339 NA 
HETATM    6  C   UNL     1     -12.360  13.660  69.717  1.00  0.00    -0.228 A  
HETATM    7  C   UNL     1     -12.394  12.361  70.171  1.00  0.00    -0.136 A  
HETATM    8  N   UNL     1     -11.915  11.489  69.226  1.00  0.00    -0.336 NA 
HETATM    9  C   UNL     1     -12.907  12.125  71.503  1.00  0.00    -0.289 C  
HETATM   10  N   UNL     1     -13.303  13.301  72.128  1.00  0.00    -0.504 N  
HETATM   11  O   UNL     1     -13.004  11.035  72.057  1.00  0.00    -0.452 OA 
HETATM   12  C   UNL     1     -11.594  12.254  68.203  1.00  0.00    -0.339 A  
HETATM   13  N   UNL     1     -11.838  13.579  68.458  1.00  0.00    -0.348 NA 
HETATM   14  H   UNL     1     -13.670  13.232  73.077  1.00  0.00     0.000 HD 
ENDROOT
BRANCH  13  15
HETATM   15  C   UNL     1     -11.534  14.689  67.582  1.00  0.00    -0.346 C  
BRANCH  15  16
HETATM   16  O   UNL     1     -10.539  14.355  66.607  1.00  0.00    -0.277 OA 
BRANCH  16  17
HETATM   17  C   UNL     1     -10.900  14.587  65.226  1.00  0.00    -0.367 C  
BRANCH  17  18
HETATM   18  C   UNL     1     -12.349  14.190  64.909  1.00  0.00    -0.430 C  
HETATM   19  H   UNL     1     -13.426  13.697  63.320  1.00  0.00     0.000 HD 
HETATM   20  O   UNL     1     -12.529  13.942  63.516  1.00  0.00    -0.810 OA 
ENDBRANCH  17  18
BRANCH  17  21
HETATM   21  C   UNL     1     -10.698  16.089  64.961  1.00  0.00    -0.378 C  
HETATM   22  O   UNL     1     -11.452  16.495  63.818  1.00  0.00    -1.615 OA 
HETATM   23  H   UNL     1     -11.328  17.423  63.655  1.00  0.00     0.000 HD 
ENDBRANCH  17  21
ENDBRANCH  16  17
ENDBRANCH  15  16
ENDBRANCH  13  15
TORSDOF 5
ENDMDL
MODEL        9
REMARK 921   NORMALIZED FREE ENERGY PREDICTED BY IDOCK:   -6.23 KCAL/MOL
REMARK 922        TOTAL FREE ENERGY PREDICTED BY IDOCK:   -8.53 KCAL/MOL
REMARK 923 INTER-LIGAND FREE ENERGY PREDICTED BY IDOCK:   -7.93 KCAL/MOL
REMARK 924 INTRA-LIGAND FREE ENERGY PREDICTED BY IDOCK:   -0.60 KCAL/MOL
REMARK 927      BINDING AFFINITY PREDICTED BY RF-SCORE:    0.00 PKD
ROOT
HETATM    1  N   UNL     1     -12.969   9.474  71.759  1.00  0.00    -0.380 NA 
HETATM    2  C   UNL     1     -12.854  10.774  71.392  1.00  0.00    -0.452 C  
HETATM    3  H1  UNL     1     -13.415   9.231  72.644  1.00  0.00     0.000 HD 
HETATM    4  H2  UNL     1     -12.611   8.738  71.151  1.00  0.00     0.000 HD 
HETATM    5  N   UNL     1     -12.283  11.085  70.259  1.00  0.00    -0.340 NA 
HETATM    6  C   UNL     1     -12.223  12.420  70.037  1.00  0.00    -0.194 A  
HETATM    7  C   UNL     1     -12.681  13.440  70.841  1.00  0.00    -0.272 A  
HETATM    8  N   UNL     1     -12.424  14.668  70.285  1.00  0.00    -0.348 NA 
HETATM    9  C   UNL     1     -13.324  13.080  72.086  1.00  0.00    -0.524 C  
HETATM   10  N   UNL     1     -13.370  11.705  72.274  1.00  0.00    -0.546 N  
HETATM   11  O   UNL     1     -13.787  13.861  72.911  1.00  0.00    -0.662 OA 
HETATM   12  C   UNL     1     -11.812  14.395  69.151  1.00  0.00    -0.323 A  
HETATM   13  N   UNL     1     -11.675  13.045  68.954  1.00  0.00    -0.309 NA 
HETATM   14  H   UNL     1     -13.815  11.357  73.123  1.00  0.00     0.000 HD 
ENDROOT
BRANCH  13  15
HETATM   15  C   UNL     1     -11.118  12.403  67.784  1.00  0.00    -0.247 C  
BRANCH  15  16
HETATM   16  O   UNL     1     -12.120  12.082  66.812  1.00  0.00    -0.613 OA 
BRANCH  16  17
HETATM   17  C   UNL     1     -11.940  12.661  65.499  1.00  0.00    -0.456 C  
BRANCH  17  18
HETATM   18  C   UNL     1     -12.625  14.028  65.347  1.00  0.00    -0.505 C  
HETATM   19  H   UNL     1     -13.117  15.273  63.886  1.00  0.00     0.000 HD 
HETATM   20  O   UNL     1     -12.693  14.427  63.979  1.00  0.00    -0.739 OA 
ENDBRANCH  17  18
BRANCH  17  21
HETATM   21  C   UNL     1     -10.424  12.809  65.283  1.00  0.00    -0.292 C  
HETATM   22  O   UNL     1     -10.150  13.164  63.927  1.00  0.00    -0.733 OA 
HETATM   23  H   UNL     1      -9.214  13.255  63.793  1.00  0.00     0.000 HD 
ENDBRANCH  17  21
ENDBRANCH  16  17
ENDBRANCH  15  16
ENDBRANCH  13  15
TORSDOF 5
ENDMDL
MODEL       10
REMARK 921   NORMALIZED FREE ENERGY PREDICTED BY IDOCK:   -6.03 KCAL/MOL
REMARK 922        TOTAL FREE ENERGY PREDICTED BY IDOCK:   -8.28 KCAL/MOL
REMARK 923 INTER-LIGAND FREE ENERGY PREDICTED BY IDOCK:   -7.82 KCAL/MOL
REMARK 924 INTRA-LIGAND FREE ENERGY PREDICTED BY IDOCK:   -0.46 KCAL/MOL
REMARK 927      BINDING AFFINITY PREDICTED BY RF-SCORE:    0.00 PKD
ROOT
HETATM    1  N   UNL     1     -13.075  16.093  73.866  1.00  0.00    -0.917 NA 
HETATM    2  C   UNL     1     -12.696  15.466  72.725  1.00  0.00    -0.410 C  
HETATM    3  H1  UNL     1     -12.949  17.101  73.960  1.00  0.00     0.000 HD 
HETATM    4  H2  UNL     1     -13.487  15.558  74.630  1.00  0.00     0.000 HD 
HETATM    5  N   UNL     1     -12.858  14.175  72.604  1.00  0.00    -0.373 NA 
HETATM    6  C   UNL     1     -12.415  13.688  71.420  1.00  0.00    -0.285 A  
HETATM    7  C   UNL     1     -11.841  14.377  70.375  1.00  0.00    -0.312 A  
HETATM    8  N   UNL     1     -11.506  13.535  69.345  1.00  0.00    -0.284 NA 
HETATM    9  C   UNL     1     -11.681  15.808  70.517  1.00  0.00    -0.377 C  
HETATM   10  N   UNL     1     -12.150  16.269  71.741  1.00  0.00    -0.637 N  
HETATM   11  O   UNL     1     -11.194  16.567  69.686  1.00  0.00    -0.284 OA 
HETATM   12  C   UNL     1     -11.873  12.341  69.763  1.00  0.00    -0.318 A  
HETATM   13  N   UNL     1     -12.437  12.386  71.013  1.00  0.00    -0.332 NA 
HETATM   14  H   UNL     1     -12.088  17.270  71.926  1.00  0.00     0.000 HD 
ENDROOT
BRANCH  13  15
HETATM   15  C   UNL     1     -13.011  11.271  71.733  1.00  0.00    -0.414 C  
BRANCH  15  16
HETATM   16  O   UNL     1     -13.364  10.187  70.864  1.00  0.00    -0.388 OA 
BRANCH  16  17
HETATM   17  C   UNL     1     -13.060   8.860  71.349  1.00  0.00    -0.269 C  
BRANCH  17  18
HETATM   18  C   UNL     1     -11.853   8.829  72.299  1.00  0.00    -0.333 C  
HETATM   19  H   UNL     1     -10.903   7.506  73.428  1.00  0.00     0.000 HD 
HETATM   20  O   UNL     1     -11.650   7.525  72.841  1.00  0.00    -0.290 OA 
ENDBRANCH  17  18
BRANCH  17  21
HETATM   21  C   UNL     1     -14.315   8.357  72.083  1.00  0.00    -0.427 C  
HETATM   22  O   UNL     1     -14.284   8.764  73.452  1.00  0.00    -1.173 OA 
HETATM   23  H   UNL     1     -15.060   8.453  73.905  1.00  0.00     0.000 HD 
ENDBRANCH  17  21
ENDBRANCH  16  17
ENDBRANCH  15  16
ENDBRANCH  13  15
TORSDOF 5
ENDMDL
MODEL       11
REMARK 921   NORMALIZED FREE ENERGY PREDICTED BY IDOCK:   -6.03 KCAL/MOL
REMARK 922        TOTAL FREE ENERGY PREDICTED BY IDOCK:   -8.28 KCAL/MOL
REMARK 923 INTER-LIGAND FREE ENERGY PREDICTED BY IDOCK:   -7.51 KCAL/MOL
REMARK 924 INTRA-LIGAND FREE ENERGY PREDICTED BY IDOCK:   -0.77 KCAL/MOL
REMARK 927      BINDING AFFINITY PREDICTED BY RF-SCORE:    0.00 PKD
ROOT
HETATM    1  N   UNL     1     -12.890  12.302  63.249  1.00  0.00    -0.784 NA 
HETATM    2  C   UNL     1     -12.043  13.128  63.913  1.00  0.00    -0.470 C  
HETATM    3  H1  UNL     1     -13.596  12.691  62.624  1.00  0.00     0.000 HD 
HETATM    4  H2  UNL     1     -12.821  11.293  63.374  1.00  0.00     0.000 HD 
HETATM    5  N   UNL     1     -11.139  12.630  64.713  1.00  0.00    -0.289 NA 
HETATM    6  C   UNL     1     -10.380  13.575  65.319  1.00  0.00    -0.331 A  
HETATM    7  C   UNL     1     -10.456  14.943  65.187  1.00  0.00    -0.417 A  
HETATM    8  N   UNL     1      -9.528  15.574  65.977  1.00  0.00    -0.335 NA 
HETATM    9  C   UNL     1     -11.453  15.480  64.286  1.00  0.00    -0.180 C  
HETATM   10  N   UNL     1     -12.205  14.481  63.682  1.00  0.00    -1.062 N  
HETATM   11  O   UNL     1     -11.650  16.668  64.052  1.00  0.00    -1.197 OA 
HETATM   12  C   UNL     1      -8.895  14.593  66.588  1.00  0.00    -0.209 A  
HETATM   13  N   UNL     1      -9.372  13.363  66.214  1.00  0.00    -0.180 NA 
HETATM   14  H   UNL     1     -12.927  14.766  63.021  1.00  0.00     0.000 HD 
ENDROOT
BRANCH  13  15
HETATM   15  C   UNL     1      -8.854  12.080  66.636  1.00  0.00    -0.191 C  
BRANCH  15  16
HETATM   16  O   UNL     1      -8.854  11.938  68.062  1.00  0.00    -0.163 OA 
BRANCH  16  17
HETATM   17  C   UNL     1      -9.831  11.023  68.609  1.00  0.00    -0.193 C  
BRANCH  17  18
HETATM   18  C   UNL     1     -11.123  11.722  69.058  1.00  0.00    -0.246 C  
HETATM   19  H   UNL     1     -12.858  12.258  68.266  1.00  0.00     0.000 HD 
HETATM   20  O   UNL     1     -12.059  11.826  67.987  1.00  0.00    -0.572 OA 
ENDBRANCH  17  18
BRANCH  17  21
HETATM   21  C   UNL     1     -10.148  10.000  67.504  1.00  0.00    -0.198 C  
HETATM   22  O   UNL     1     -11.197   9.127  67.924  1.00  0.00    -0.494 OA 
HETATM   23  H   UNL     1     -11.393   8.495  67.242  1.00  0.00     0.000 HD 
ENDBRANCH  17  21
ENDBRANCH  16  17
ENDBRANCH  15  16
ENDBRANCH  13  15
TORSDOF 5
ENDMDL
MODEL       12
REMARK 921   NORMALIZED FREE ENERGY PREDICTED BY IDOCK:   -5.98 KCAL/MOL
REMARK 922        TOTAL FREE ENERGY PREDICTED BY IDOCK:   -8.21 KCAL/MOL
REMARK 923 INTER-LIGAND FREE ENERGY PREDICTED BY IDOCK:   -7.73 KCAL/MOL
REMARK 924 INTRA-LIGAND FREE ENERGY PREDICTED BY IDOCK:   -0.48 KCAL/MOL
REMARK 927      BINDING AFFINITY PREDICTED BY RF-SCORE:    0.00 PKD
ROOT
HETATM    1  N   UNL     1     -13.488  16.231  73.888  1.00  0.00    -0.867 NA 
HETATM    2  C   UNL     1     -13.131  15.446  72.841  1.00  0.00    -0.492 C  
HETATM    3  H1  UNL     1     -13.973  15.824  74.688  1.00  0.00     0.000 HD 
HETATM    4  H2  UNL     1     -13.271  17.227  73.876  1.00  0.00     0.000 HD 
HETATM    5  N   UNL     1     -12.509  15.967  71.817  1.00  0.00    -0.451 NA 
HETATM    6  C   UNL     1     -12.234  15.067  70.842  1.00  0.00    -0.329 A  
HETATM    7  C   UNL     1     -12.525  13.721  70.817  1.00  0.00    -0.370 A  
HETATM    8  N   UNL     1     -12.103  13.141  69.648  1.00  0.00    -0.287 NA 
HETATM    9  C   UNL     1     -13.200  13.155  71.965  1.00  0.00    -0.446 C  
HETATM   10  N   UNL     1     -13.459  14.108  72.942  1.00  0.00    -0.478 N  
HETATM   11  O   UNL     1     -13.528  11.982  72.104  1.00  0.00    -0.476 OA 
HETATM   12  C   UNL     1     -11.561  14.129  68.966  1.00  0.00    -0.304 A  
HETATM   13  N   UNL     1     -11.611  15.314  69.654  1.00  0.00    -0.298 NA 
HETATM   14  H   UNL     1     -13.926  13.797  73.795  1.00  0.00     0.000 HD 
ENDROOT
BRANCH  13  15
HETATM   15  C   UNL     1     -11.044  16.575  69.228  1.00  0.00    -0.260 C  
BRANCH  15  16
HETATM   16  O   UNL     1     -10.131  16.418  68.134  1.00  0.00    -0.239 OA 
BRANCH  16  17
HETATM   17  C   UNL     1     -10.315  17.321  67.020  1.00  0.00    -0.318 C  
BRANCH  17  18
HETATM   18  C   UNL     1      -9.073  18.175  66.727  1.00  0.00    -0.282 C  
HETATM   19  H   UNL     1      -7.578  18.200  65.425  1.00  0.00     0.000 HD 
HETATM   20  O   UNL     1      -8.347  17.672  65.607  1.00  0.00    -0.467 OA 
ENDBRANCH  17  18
BRANCH  17  21
HETATM   21  C   UNL     1     -10.654  16.453  65.795  1.00  0.00    -0.315 C  
HETATM   22  O   UNL     1     -11.042  17.277  64.696  1.00  0.00    -1.052 OA 
HETATM   23  H   UNL     1     -11.251  16.741  63.940  1.00  0.00     0.000 HD 
ENDBRANCH  17  21
ENDBRANCH  16  17
ENDBRANCH  15  16
ENDBRANCH  13  15
TORSDOF 5
ENDMDL
MODEL       13
REMARK 921   NORMALIZED FREE ENERGY PREDICTED BY IDOCK:   -5.93 KCAL/MOL
REMARK 922        TOTAL FREE ENERGY PREDICTED BY IDOCK:   -8.15 KCAL/MOL
REMARK 923 INTER-LIGAND FREE ENERGY PREDICTED BY IDOCK:   -7.59 KCAL/MOL
REMARK 924 INTRA-LIGAND FREE ENERGY PREDICTED BY IDOCK:   -0.56 KCAL/MOL
REMARK 927      BINDING AFFINITY PREDICTED BY RF-SCORE:    0.00 PKD
ROOT
HETATM    1  N   UNL     1     -12.762  11.500  62.897  1.00  0.00    -0.839 NA 
HETATM    2  C   UNL     1     -12.497  12.430  63.848  1.00  0.00    -0.476 C  
HETATM    3  H1  UNL     1     -12.907  11.788  61.929  1.00  0.00     0.000 HD 
HETATM    4  H2  UNL     1     -12.814  10.513  63.149  1.00  0.00     0.000 HD 
HETATM    5  N   UNL     1     -12.311  12.061  65.088  1.00  0.00    -0.374 NA 
HETATM    6  C   UNL     1     -12.076  13.100  65.926  1.00  0.00    -0.444 A  
HETATM    7  C   UNL     1     -12.014  14.442  65.625  1.00  0.00    -0.354 A  
HETATM    8  N   UNL     1     -11.772  15.195  66.747  1.00  0.00    -0.155 NA 
HETATM    9  C   UNL     1     -12.208  14.834  64.246  1.00  0.00    -0.379 C  
HETATM   10  N   UNL     1     -12.441  13.742  63.419  1.00  0.00    -1.072 N  
HETATM   11  O   UNL     1     -12.182  15.980  63.811  1.00  0.00    -0.895 OA 
HETATM   12  C   UNL     1     -11.690  14.314  67.723  1.00  0.00    -0.374 A  
HETATM   13  N   UNL     1     -11.860  13.031  67.272  1.00  0.00    -0.372 NA 
HETATM   14  H   UNL     1     -12.579  13.922  62.425  1.00  0.00     0.000 HD 
ENDROOT
BRANCH  13  15
HETATM   15  C   UNL     1     -11.758  11.825  68.064  1.00  0.00    -0.293 C  
BRANCH  15  16
HETATM   16  O   UNL     1     -10.409  11.547  68.460  1.00  0.00    -0.197 OA 
BRANCH  16  17
HETATM   17  C   UNL     1     -10.092  10.158  68.702  1.00  0.00    -0.172 C  
BRANCH  17  18
HETATM   18  C   UNL     1     -10.951   9.529  69.810  1.00  0.00    -0.223 C  
HETATM   19  H   UNL     1     -10.830   8.018  71.086  1.00  0.00     0.000 HD 
HETATM   20  O   UNL     1     -10.299   8.407  70.401  1.00  0.00    -0.198 OA 
ENDBRANCH  17  18
BRANCH  17  21
HETATM   21  C   UNL     1     -10.322   9.412  67.376  1.00  0.00    -0.263 C  
HETATM   22  O   UNL     1     -10.934   8.145  67.620  1.00  0.00    -0.508 OA 
HETATM   23  H   UNL     1     -11.076   7.685  66.801  1.00  0.00     0.000 HD 
ENDBRANCH  17  21
ENDBRANCH  16  17
ENDBRANCH  15  16
ENDBRANCH  13  15
TORSDOF 5
ENDMDL
MODEL       14
REMARK 921   NORMALIZED FREE ENERGY PREDICTED BY IDOCK:   -5.91 KCAL/MOL
REMARK 922        TOTAL FREE ENERGY PREDICTED BY IDOCK:   -8.12 KCAL/MOL
REMARK 923 INTER-LIGAND FREE ENERGY PREDICTED BY IDOCK:   -7.35 KCAL/MOL
REMARK 924 INTRA-LIGAND FREE ENERGY PREDICTED BY IDOCK:   -0.77 KCAL/MOL
REMARK 927      BINDING AFFINITY PREDICTED BY RF-SCORE:    0.00 PKD
ROOT
HETATM    1  N   UNL     1     -12.772  11.682  62.834  1.00  0.00    -0.816 NA 
HETATM    2  C   UNL     1     -12.450  12.577  63.801  1.00  0.00    -0.455 C  
HETATM    3  H1  UNL     1     -12.977  12.005  61.888  1.00  0.00     0.000 HD 
HETATM    4  H2  UNL     1     -12.809  10.686  63.052  1.00  0.00     0.000 HD 
HETATM    5  N   UNL     1     -12.187  12.164  65.012  1.00  0.00    -0.426 NA 
HETATM    6  C   UNL     1     -11.901  13.171  65.872  1.00  0.00    -0.406 A  
HETATM    7  C   UNL     1     -11.858  14.524  65.617  1.00  0.00    -0.326 A  
HETATM    8  N   UNL     1     -11.547  15.235  66.748  1.00  0.00    -0.141 NA 
HETATM    9  C   UNL     1     -12.136  14.965  64.268  1.00  0.00    -0.353 C  
HETATM   10  N   UNL     1     -12.419  13.904  63.417  1.00  0.00    -1.110 N  
HETATM   11  O   UNL     1     -12.136  16.127  63.874  1.00  0.00    -0.956 OA 
HETATM   12  C   UNL     1     -11.406  14.320  67.685  1.00  0.00    -0.324 A  
HETATM   13  N   UNL     1     -11.603  13.053  67.198  1.00  0.00    -0.337 NA 
HETATM   14  H   UNL     1     -12.619  14.120  62.440  1.00  0.00     0.000 HD 
ENDROOT
BRANCH  13  15
HETATM   15  C   UNL     1     -11.453  11.820  67.938  1.00  0.00    -0.317 C  
BRANCH  15  16
HETATM   16  O   UNL     1     -10.111  11.623  68.400  1.00  0.00    -0.195 OA 
BRANCH  16  17
HETATM   17  C   UNL     1      -9.324  10.654  67.670  1.00  0.00    -0.146 C  
BRANCH  17  18
HETATM   18  C   UNL     1     -10.148   9.858  66.648  1.00  0.00    -0.233 C  
HETATM   19  H   UNL     1     -10.159   9.545  64.691  1.00  0.00     0.000 HD 
HETATM   20  O   UNL     1      -9.649  10.037  65.324  1.00  0.00    -0.247 OA 
ENDBRANCH  17  18
BRANCH  17  21
HETATM   21  C   UNL     1      -8.212  11.437  66.950  1.00  0.00    -0.157 C  
HETATM   22  O   UNL     1      -8.682  12.732  66.575  1.00  0.00    -0.404 OA 
HETATM   23  H   UNL     1      -7.995  13.215  66.130  1.00  0.00     0.000 HD 
ENDBRANCH  17  21
ENDBRANCH  16  17
ENDBRANCH  15  16
ENDBRANCH  13  15
TORSDOF 5
ENDMDL
MODEL       15
REMARK 921   NORMALIZED FREE ENERGY PREDICTED BY IDOCK:   -5.83 KCAL/MOL
REMARK 922        TOTAL FREE ENERGY PREDICTED BY IDOCK:   -8.02 KCAL/MOL
REMARK 923 INTER-LIGAND FREE ENERGY PREDICTED BY IDOCK:   -7.56 KCAL/MOL
REMARK 924 INTRA-LIGAND FREE ENERGY PREDICTED BY IDOCK:   -0.46 KCAL/MOL
REMARK 927      BINDING AFFINITY PREDICTED BY RF-SCORE:    0.00 PKD
ROOT
HETATM    1  N   UNL     1     -10.997   8.950  68.487  1.00  0.00    -0.454 NA 
HETATM    2  C   UNL     1     -11.380  10.117  69.060  1.00  0.00    -0.133 C  
HETATM    3  H1  UNL     1     -11.294   8.062  68.890  1.00  0.00     0.000 HD 
HETATM    4  H2  UNL     1     -10.410   8.960  67.652  1.00  0.00     0.000 HD 
HETATM    5  N   UNL     1     -10.998  11.255  68.544  1.00  0.00    -0.202 NA 
HETATM    6  C   UNL     1     -11.442  12.333  69.235  1.00  0.00    -0.292 A  
HETATM    7  C   UNL     1     -12.219  12.357  70.371  1.00  0.00    -0.287 A  
HETATM    8  N   UNL     1     -12.451  13.643  70.791  1.00  0.00    -0.359 NA 
HETATM    9  C   UNL     1     -12.646  11.090  70.924  1.00  0.00    -0.391 C  
HETATM   10  N   UNL     1     -12.176  10.011  70.185  1.00  0.00    -0.488 N  
HETATM   11  O   UNL     1     -13.340  10.935  71.923  1.00  0.00    -0.421 OA 
HETATM   12  C   UNL     1     -11.815  14.395  69.916  1.00  0.00    -0.323 A  
HETATM   13  N   UNL     1     -11.196  13.644  68.949  1.00  0.00    -0.258 NA 
HETATM   14  H   UNL     1     -12.436   9.075  70.495  1.00  0.00     0.000 HD 
ENDROOT
BRANCH  13  15
HETATM   15  C   UNL     1     -10.477  14.153  67.802  1.00  0.00    -0.246 C  
BRANCH  15  16
HETATM   16  O   UNL     1     -11.353  14.714  66.817  1.00  0.00    -0.339 OA 
BRANCH  16  17
HETATM   17  C   UNL     1     -10.829  14.791  65.471  1.00  0.00    -0.351 C  
BRANCH  17  18
HETATM   18  C   UNL     1     -11.656  13.988  64.457  1.00  0.00    -0.391 C  
HETATM   19  H   UNL     1     -13.519  13.342  64.261  1.00  0.00     0.000 HD 
HETATM   20  O   UNL     1     -13.007  13.839  64.888  1.00  0.00    -0.712 OA 
ENDBRANCH  17  18
BRANCH  17  21
HETATM   21  C   UNL     1     -10.824  16.279  65.081  1.00  0.00    -0.318 C  
HETATM   22  O   UNL     1     -11.633  16.490  63.923  1.00  0.00    -1.598 OA 
HETATM   23  H   UNL     1     -11.630  17.409  63.682  1.00  0.00     0.000 HD 
ENDBRANCH  17  21
ENDBRANCH  16  17
ENDBRANCH  15  16
ENDBRANCH  13  15
TORSDOF 5
ENDMDL
MODEL       16
REMARK 921   NORMALIZED FREE ENERGY PREDICTED BY IDOCK:   -5.83 KCAL/MOL
REMARK 922        TOTAL FREE ENERGY PREDICTED BY IDOCK:   -8.02 KCAL/MOL
REMARK 923 INTER-LIGAND FREE ENERGY PREDICTED BY IDOCK:   -7.57 KCAL/MOL
REMARK 924 INTRA-LIGAND FREE ENERGY PREDICTED BY IDOCK:   -0.45 KCAL/MOL
REMARK 927      BINDING AFFINITY PREDICTED BY RF-SCORE:    0.00 PKD
ROOT
HETATM    1  N   UNL     1     -12.411  14.339  63.344  1.00  0.00    -1.126 NA 
HETATM    2  C   UNL     1     -11.788  13.289  63.934  1.00  0.00    -0.465 C  
HETATM    3  H1  UNL     1     -12.304  14.498  62.342  1.00  0.00     0.000 HD 
HETATM    4  H2  UNL     1     -12.986  14.970  63.901  1.00  0.00     0.000 HD 
HETATM    5  N   UNL     1     -11.925  13.086  65.217  1.00  0.00    -0.380 NA 
HETATM    6  C   UNL     1     -11.230  12.013  65.667  1.00  0.00    -0.327 A  
HETATM    7  C   UNL     1     -10.433  11.151  64.948  1.00  0.00    -0.308 A  
HETATM    8  N   UNL     1      -9.880  10.190  65.758  1.00  0.00    -0.248 NA 
HETATM    9  C   UNL     1     -10.302  11.380  63.526  1.00  0.00    -0.423 C  
HETATM   10  N   UNL     1     -11.032  12.484  63.104  1.00  0.00    -0.682 N  
HETATM   11  O   UNL     1      -9.637  10.708  62.745  1.00  0.00    -0.303 OA 
HETATM   12  C   UNL     1     -10.337  10.470  66.961  1.00  0.00    -0.237 A  
HETATM   13  N   UNL     1     -11.166  11.562  66.953  1.00  0.00    -0.332 NA 
HETATM   14  H   UNL     1     -11.007  12.716  62.111  1.00  0.00     0.000 HD 
ENDROOT
BRANCH  13  15
HETATM   15  C   UNL     1     -11.893  12.092  68.086  1.00  0.00    -0.286 C  
BRANCH  15  16
HETATM   16  O   UNL     1     -12.381  11.058  68.950  1.00  0.00    -0.516 OA 
BRANCH  16  17
HETATM   17  C   UNL     1     -11.834  11.038  70.288  1.00  0.00    -0.367 C  
BRANCH  17  18
HETATM   18  C   UNL     1     -12.904  10.848  71.373  1.00  0.00    -0.449 C  
HETATM   19  H   UNL     1     -14.230   9.475  71.907  1.00  0.00     0.000 HD 
HETATM   20  O   UNL     1     -13.568   9.592  71.236  1.00  0.00    -0.355 OA 
ENDBRANCH  17  18
BRANCH  17  21
HETATM   21  C   UNL     1     -10.827   9.875  70.338  1.00  0.00    -0.319 C  
HETATM   22  O   UNL     1     -11.423   8.682  69.827  1.00  0.00    -0.450 OA 
HETATM   23  H   UNL     1     -10.801   7.964  69.858  1.00  0.00     0.000 HD 
ENDBRANCH  17  21
ENDBRANCH  16  17
ENDBRANCH  15  16
ENDBRANCH  13  15
TORSDOF 5
ENDMDL
MODEL       17
REMARK 921   NORMALIZED FREE ENERGY PREDICTED BY IDOCK:   -5.83 KCAL/MOL
REMARK 922        TOTAL FREE ENERGY PREDICTED BY IDOCK:   -8.01 KCAL/MOL
REMARK 923 INTER-LIGAND FREE ENERGY PREDICTED BY IDOCK:   -7.60 KCAL/MOL
REMARK 924 INTRA-LIGAND FREE ENERGY PREDICTED BY IDOCK:   -0.42 KCAL/MOL
REMARK 927      BINDING AFFINITY PREDICTED BY RF-SCORE:    0.00 PKD
ROOT
HETATM    1  N   UNL     1     -14.126  15.434  72.381  1.00  0.00    -0.555 NA 
HETATM    2  C   UNL     1     -13.521  14.400  71.746  1.00  0.00    -0.373 C  
HETATM    3  H1  UNL     1     -14.611  15.276  73.264  1.00  0.00     0.000 HD 
HETATM    4  H2  UNL     1     -14.096  16.370  71.976  1.00  0.00     0.000 HD 
HETATM    5  N   UNL     1     -12.899  14.602  70.615  1.00  0.00    -0.351 NA 
HETATM    6  C   UNL     1     -12.361  13.475  70.090  1.00  0.00    -0.275 A  
HETATM    7  C   UNL     1     -12.396  12.196  70.599  1.00  0.00    -0.295 A  
HETATM    8  N   UNL     1     -11.751  11.311  69.772  1.00  0.00    -0.317 NA 
HETATM    9  C   UNL     1     -13.075  11.990  71.860  1.00  0.00    -0.370 C  
HETATM   10  N   UNL     1     -13.608  13.168  72.367  1.00  0.00    -0.596 N  
HETATM   11  O   UNL     1     -13.195  10.921  72.449  1.00  0.00    -0.265 OA 
HETATM   12  C   UNL     1     -11.330  12.048  68.764  1.00  0.00    -0.278 A  
HETATM   13  N   UNL     1     -11.669  13.368  68.918  1.00  0.00    -0.307 NA 
HETATM   14  H   UNL     1     -14.097  13.121  73.260  1.00  0.00     0.000 HD 
ENDROOT
BRANCH  13  15
HETATM   15  C   UNL     1     -11.301  14.454  68.037  1.00  0.00    -0.294 C  
BRANCH  15  16
HETATM   16  O   UNL     1     -11.164  14.027  66.676  1.00  0.00    -0.310 OA 
BRANCH  16  17
HETATM   17  C   UNL     1     -11.908  14.785  65.695  1.00  0.00    -0.212 C  
BRANCH  17  18
HETATM   18  C   UNL     1     -11.007  15.593  64.750  1.00  0.00    -0.400 C  
HETATM   19  H   UNL     1     -11.212  16.989  63.358  1.00  0.00     0.000 HD 
HETATM   20  O   UNL     1     -11.770  16.489  63.943  1.00  0.00    -1.148 OA 
ENDBRANCH  17  18
BRANCH  17  21
HETATM   21  C   UNL     1     -12.738  13.771  64.887  1.00  0.00    -0.271 C  
HETATM   22  O   UNL     1     -12.487  13.929  63.490  1.00  0.00    -0.981 OA 
HETATM   23  H   UNL     1     -13.000  13.303  62.991  1.00  0.00     0.000 HD 
ENDBRANCH  17  21
ENDBRANCH  16  17
ENDBRANCH  15  16
ENDBRANCH  13  15
TORSDOF 5
ENDMDL
MODEL       18
REMARK 921   NORMALIZED FREE ENERGY PREDICTED BY IDOCK:   -5.77 KCAL/MOL
REMARK 922        TOTAL FREE ENERGY PREDICTED BY IDOCK:   -7.94 KCAL/MOL
REMARK 923 INTER-LIGAND FREE ENERGY PREDICTED BY IDOCK:   -7.50 KCAL/MOL
REMARK 924 INTRA-LIGAND FREE ENERGY PREDICTED BY IDOCK:   -0.43 KCAL/MOL
REMARK 927      BINDING AFFINITY PREDICTED BY RF-SCORE:    0.00 PKD
ROOT
HETATM    1  N   UNL     1     -11.995  11.845  67.105  1.00  0.00    -0.603 NA 
HETATM    2  C   UNL     1     -11.800  12.979  66.385  1.00  0.00    -0.405 C  
HETATM    3  H1  UNL     1     -12.464  11.046  66.679  1.00  0.00     0.000 HD 
HETATM    4  H2  UNL     1     -11.671  11.793  68.070  1.00  0.00     0.000 HD 
HETATM    5  N   UNL     1     -11.198  14.003  66.930  1.00  0.00    -0.304 NA 
HETATM    6  C   UNL     1     -11.093  15.067  66.098  1.00  0.00    -0.329 A  
HETATM    7  C   UNL     1     -11.531  15.179  64.797  1.00  0.00    -0.383 A  
HETATM    8  N   UNL     1     -11.257  16.423  64.284  1.00  0.00    -0.917 NA 
HETATM    9  C   UNL     1     -12.182  14.033  64.203  1.00  0.00    -0.396 C  
HETATM   10  N   UNL     1     -12.266  12.962  65.085  1.00  0.00    -0.444 N  
HETATM   11  O   UNL     1     -12.625  13.965  63.061  1.00  0.00    -0.694 OA 
HETATM   12  C   UNL     1     -10.660  17.062  65.269  1.00  0.00    -0.080 A  
HETATM   13  N   UNL     1     -10.531  16.277  66.386  1.00  0.00    -0.306 NA 
HETATM   14  H   UNL     1     -12.702  12.105  64.748  1.00  0.00     0.000 HD 
ENDROOT
BRANCH  13  15
HETATM   15  C   UNL     1      -9.860  16.641  67.614  1.00  0.00    -0.256 C  
BRANCH  15  16
HETATM   16  O   UNL     1     -10.517  17.719  68.292  1.00  0.00    -0.369 OA 
BRANCH  16  17
HETATM   17  C   UNL     1      -9.797  18.973  68.336  1.00  0.00    -0.392 C  
BRANCH  17  18
HETATM   18  C   UNL     1      -8.336  18.844  67.880  1.00  0.00    -0.281 C  
HETATM   19  H   UNL     1      -6.527  19.044  68.664  1.00  0.00     0.000 HD 
HETATM   20  O   UNL     1      -7.431  19.124  68.947  1.00  0.00    -0.335 OA 
ENDBRANCH  17  18
BRANCH  17  21
HETATM   21  C   UNL     1     -10.549  19.949  67.414  1.00  0.00    -0.369 C  
HETATM   22  O   UNL     1      -9.632  20.609  66.540  1.00  0.00    -0.639 OA 
HETATM   23  H   UNL     1     -10.097  21.211  65.971  1.00  0.00     0.000 HD 
ENDBRANCH  17  21
ENDBRANCH  16  17
ENDBRANCH  15  16
ENDBRANCH  13  15
TORSDOF 5
ENDMDL
MODEL       19
REMARK 921   NORMALIZED FREE ENERGY PREDICTED BY IDOCK:   -5.76 KCAL/MOL
REMARK 922        TOTAL FREE ENERGY PREDICTED BY IDOCK:   -7.93 KCAL/MOL
REMARK 923 INTER-LIGAND FREE ENERGY PREDICTED BY IDOCK:   -7.42 KCAL/MOL
REMARK 924 INTRA-LIGAND FREE ENERGY PREDICTED BY IDOCK:   -0.51 KCAL/MOL
REMARK 927      BINDING AFFINITY PREDICTED BY RF-SCORE:    0.00 PKD
ROOT
HETATM    1  N   UNL     1     -13.894  14.323  72.588  1.00  0.00    -0.613 NA 
HETATM    2  C   UNL     1     -13.318  13.387  71.793  1.00  0.00    -0.394 C  
HETATM    3  H1  UNL     1     -14.324  14.047  73.470  1.00  0.00     0.000 HD 
HETATM    4  H2  UNL     1     -13.897  15.302  72.303  1.00  0.00     0.000 HD 
HETATM    5  N   UNL     1     -12.768  13.740  70.662  1.00  0.00    -0.293 NA 
HETATM    6  C   UNL     1     -12.252  12.696  69.968  1.00  0.00    -0.197 A  
HETATM    7  C   UNL     1     -12.244  11.363  70.313  1.00  0.00    -0.349 A  
HETATM    8  N   UNL     1     -11.642  10.600  69.344  1.00  0.00    -0.275 NA 
HETATM    9  C   UNL     1     -12.845  10.989  71.575  1.00  0.00    -0.450 C  
HETATM   10  N   UNL     1     -13.357  12.086  72.257  1.00  0.00    -0.546 N  
HETATM   11  O   UNL     1     -12.919   9.853  72.031  1.00  0.00    -0.413 OA 
HETATM   12  C   UNL     1     -11.289  11.464  68.415  1.00  0.00    -0.281 A  
HETATM   13  N   UNL     1     -11.631  12.749  68.754  1.00  0.00    -0.290 NA 
HETATM   14  H   UNL     1     -13.792  11.919  73.164  1.00  0.00     0.000 HD 
ENDROOT
BRANCH  13  15
HETATM   15  C   UNL     1     -11.325  13.943  67.997  1.00  0.00    -0.288 C  
BRANCH  15  16
HETATM   16  O   UNL     1     -12.205  14.117  66.880  1.00  0.00    -0.439 OA 
BRANCH  16  17
HETATM   17  C   UNL     1     -11.670  13.751  65.587  1.00  0.00    -0.347 C  
BRANCH  17  18
HETATM   18  C   UNL     1     -12.271  12.450  65.035  1.00  0.00    -0.399 C  
HETATM   19  H   UNL     1     -11.704  10.941  63.883  1.00  0.00     0.000 HD 
HETATM   20  O   UNL     1     -11.332  11.746  64.224  1.00  0.00    -0.340 OA 
ENDBRANCH  17  18
BRANCH  17  21
HETATM   21  C   UNL     1     -11.980  14.917  64.632  1.00  0.00    -0.401 C  
HETATM   22  O   UNL     1     -12.470  14.419  63.386  1.00  0.00    -1.109 OA 
HETATM   23  H   UNL     1     -12.661  15.139  62.796  1.00  0.00     0.000 HD 
ENDBRANCH  17  21
ENDBRANCH  16  17
ENDBRANCH  15  16
ENDBRANCH  13  15
TORSDOF 5
ENDMDL
MODEL       20
REMARK 921   NORMALIZED FREE ENERGY PREDICTED BY IDOCK:   -5.75 KCAL/MOL
REMARK 922        TOTAL FREE ENERGY PREDICTED BY IDOCK:   -7.92 KCAL/MOL
REMARK 923 INTER-LIGAND FREE ENERGY PREDICTED BY IDOCK:   -7.39 KCAL/MOL
REMARK 924 INTRA-LIGAND FREE ENERGY PREDICTED BY IDOCK:   -0.53 KCAL/MOL
REMARK 927      BINDING AFFINITY PREDICTED BY RF-SCORE:    0.00 PKD
ROOT
HETATM    1  N   UNL     1     -12.447  13.754  63.248  1.00  0.00    -1.092 NA 
HETATM    2  C   UNL     1     -11.852  13.741  64.466  1.00  0.00    -0.417 C  
HETATM    3  H1  UNL     1     -13.114  13.024  62.998  1.00  0.00     0.000 HD 
HETATM    4  H2  UNL     1     -12.229  14.495  62.581  1.00  0.00     0.000 HD 
HETATM    5  N   UNL     1     -10.997  14.676  64.786  1.00  0.00    -0.397 NA 
HETATM    6  C   UNL     1     -10.471  14.521  66.025  1.00  0.00    -0.308 A  
HETATM    7  C   UNL     1     -10.730  13.528  66.943  1.00  0.00    -0.274 A  
HETATM    8  N   UNL     1      -9.990  13.699  68.086  1.00  0.00    -0.240 NA 
HETATM    9  C   UNL     1     -11.689  12.508  66.581  1.00  0.00    -0.387 C  
HETATM   10  N   UNL     1     -12.209  12.705  65.308  1.00  0.00    -0.472 N  
HETATM   11  O   UNL     1     -12.034  11.560  67.280  1.00  0.00    -0.605 OA 
HETATM   12  C   UNL     1      -9.283  14.788  67.861  1.00  0.00    -0.191 A  
HETATM   13  N   UNL     1      -9.548  15.325  66.627  1.00  0.00    -0.242 NA 
HETATM   14  H   UNL     1     -12.902  12.037  64.970  1.00  0.00     0.000 HD 
ENDROOT
BRANCH  13  15
HETATM   15  C   UNL     1      -9.003  16.555  66.095  1.00  0.00    -0.309 C  
BRANCH  15  16
HETATM   16  O   UNL     1      -8.864  17.568  67.099  1.00  0.00    -0.229 OA 
BRANCH  16  17
HETATM   17  C   UNL     1     -10.056  18.329  67.401  1.00  0.00    -0.352 C  
BRANCH  17  18
HETATM   18  C   UNL     1      -9.929  19.158  68.688  1.00  0.00    -0.419 C  
HETATM   19  H   UNL     1      -8.494  20.024  69.745  1.00  0.00     0.000 HD 
HETATM   20  O   UNL     1      -8.572  19.511  68.949  1.00  0.00    -0.359 OA 
ENDBRANCH  17  18
BRANCH  17  21
HETATM   21  C   UNL     1     -10.303  19.260  66.201  1.00  0.00    -0.494 C  
HETATM   22  O   UNL     1      -9.808  20.570  66.481  1.00  0.00    -0.601 OA 
HETATM   23  H   UNL     1      -9.960  21.145  65.740  1.00  0.00     0.000 HD 
ENDBRANCH  17  21
ENDBRANCH  16  17
ENDBRANCH  15  16
ENDBRANCH  13  15
TORSDOF 5
ENDMDL
MODEL       21
REMARK 921   NORMALIZED FREE ENERGY PREDICTED BY IDOCK:   -5.73 KCAL/MOL
REMARK 922        TOTAL FREE ENERGY PREDICTED BY IDOCK:   -7.89 KCAL/MOL
REMARK 923 INTER-LIGAND FREE ENERGY PREDICTED BY IDOCK:   -7.54 KCAL/MOL
REMARK 924 INTRA-LIGAND FREE ENERGY PREDICTED BY IDOCK:   -0.35 KCAL/MOL
REMARK 927      BINDING AFFINITY PREDICTED BY RF-SCORE:    0.00 PKD
ROOT
HETATM    1  N   UNL     1     -12.880  11.639  62.950  1.00  0.00    -0.827 NA 
HETATM    2  C   UNL     1     -12.196  12.562  63.671  1.00  0.00    -0.550 C  
HETATM    3  H1  UNL     1     -13.587  11.938  62.279  1.00  0.00     0.000 HD 
HETATM    4  H2  UNL     1     -12.686  10.645  63.078  1.00  0.00     0.000 HD 
HETATM    5  N   UNL     1     -11.290  12.178  64.531  1.00  0.00    -0.322 NA 
HETATM    6  C   UNL     1     -10.706  13.208  65.190  1.00  0.00    -0.315 A  
HETATM    7  C   UNL     1     -10.952  14.556  65.054  1.00  0.00    -0.398 A  
HETATM    8  N   UNL     1     -10.171  15.295  65.908  1.00  0.00    -0.307 NA 
HETATM    9  C   UNL     1     -11.947  14.967  64.088  1.00  0.00    -0.235 C  
HETATM   10  N   UNL     1     -12.518  13.883  63.432  1.00  0.00    -1.110 N  
HETATM   11  O   UNL     1     -12.283  16.121  63.843  1.00  0.00    -0.935 OA 
HETATM   12  C   UNL     1      -9.457  14.400  66.559  1.00  0.00    -0.289 A  
HETATM   13  N   UNL     1      -9.741  13.122  66.151  1.00  0.00    -0.271 NA 
HETATM   14  H   UNL     1     -13.226  14.078  62.723  1.00  0.00     0.000 HD 
ENDROOT
BRANCH  13  15
HETATM   15  C   UNL     1      -9.089  11.914  66.606  1.00  0.00    -0.203 C  
BRANCH  15  16
HETATM   16  O   UNL     1      -9.185  11.746  68.026  1.00  0.00    -0.168 OA 
BRANCH  16  17
HETATM   17  C   UNL     1      -9.987  10.632  68.481  1.00  0.00    -0.167 C  
BRANCH  17  18
HETATM   18  C   UNL     1      -9.217   9.673  69.401  1.00  0.00    -0.189 C  
HETATM   19  H   UNL     1      -9.575   8.021  70.435  1.00  0.00     0.000 HD 
HETATM   20  O   UNL     1     -10.052   8.614  69.866  1.00  0.00    -0.186 OA 
ENDBRANCH  17  18
BRANCH  17  21
HETATM   21  C   UNL     1     -11.188  11.228  69.235  1.00  0.00    -0.272 C  
HETATM   22  O   UNL     1     -12.412  10.763  68.663  1.00  0.00    -0.793 OA 
HETATM   23  H   UNL     1     -13.154  11.131  69.128  1.00  0.00     0.000 HD 
ENDBRANCH  17  21
ENDBRANCH  16  17
ENDBRANCH  15  16
ENDBRANCH  13  15
TORSDOF 5
ENDMDL
MODEL       22
REMARK 921   NORMALIZED FREE ENERGY PREDICTED BY IDOCK:   -5.68 KCAL/MOL
REMARK 922        TOTAL FREE ENERGY PREDICTED BY IDOCK:   -7.82 KCAL/MOL
REMARK 923 INTER-LIGAND FREE ENERGY PREDICTED BY IDOCK:   -7.43 KCAL/MOL
REMARK 924 INTRA-LIGAND FREE ENERGY PREDICTED BY IDOCK:   -0.39 KCAL/MOL
REMARK 927      BINDING AFFINITY PREDICTED BY RF-SCORE:    0.00 PKD
ROOT
HETATM    1  N   UNL     1     -14.144   8.892  73.123  1.00  0.00    -1.225 NA 
HETATM    2  C   UNL     1     -13.321   9.457  72.205  1.00  0.00    -0.468 C  
HETATM    3  H1  UNL     1     -14.086   7.891  73.312  1.00  0.00     0.000 HD 
HETATM    4  H2  UNL     1     -14.821   9.467  73.624  1.00  0.00     0.000 HD 
HETATM    5  N   UNL     1     -13.396  10.739  71.962  1.00  0.00    -0.401 NA 
HETATM    6  C   UNL     1     -12.528  11.156  71.010  1.00  0.00    -0.403 A  
HETATM    7  C   UNL     1     -11.613  10.407  70.302  1.00  0.00    -0.327 A  
HETATM    8  N   UNL     1     -10.920  11.182  69.407  1.00  0.00    -0.248 NA 
HETATM    9  C   UNL     1     -11.532   8.992  70.592  1.00  0.00    -0.248 C  
HETATM   10  N   UNL     1     -12.433   8.606  71.576  1.00  0.00    -0.314 N  
HETATM   11  O   UNL     1     -10.775   8.188  70.058  1.00  0.00    -0.240 OA 
HETATM   12  C   UNL     1     -11.412  12.393  69.568  1.00  0.00    -0.240 A  
HETATM   13  N   UNL     1     -12.383  12.427  70.536  1.00  0.00    -0.306 NA 
HETATM   14  H   UNL     1     -12.440   7.624  71.853  1.00  0.00     0.000 HD 
ENDROOT
BRANCH  13  15
HETATM   15  C   UNL     1     -13.075  13.605  71.012  1.00  0.00    -0.180 C  
BRANCH  15  16
HETATM   16  O   UNL     1     -12.670  13.974  72.336  1.00  0.00    -0.309 OA 
BRANCH  16  17
HETATM   17  C   UNL     1     -11.925  15.208  72.451  1.00  0.00    -0.393 C  
BRANCH  17  18
HETATM   18  C   UNL     1     -12.012  16.082  71.191  1.00  0.00    -0.398 C  
HETATM   19  H   UNL     1     -10.847  16.591  69.671  1.00  0.00     0.000 HD 
HETATM   20  O   UNL     1     -10.793  16.050  70.451  1.00  0.00    -0.323 OA 
ENDBRANCH  17  18
BRANCH  17  21
HETATM   21  C   UNL     1     -12.509  15.968  73.655  1.00  0.00    -0.589 C  
HETATM   22  O   UNL     1     -13.863  16.340  73.397  1.00  0.00    -0.815 OA 
HETATM   23  H   UNL     1     -14.223  16.809  74.140  1.00  0.00     0.000 HD 
ENDBRANCH  17  21
ENDBRANCH  16  17
ENDBRANCH  15  16
ENDBRANCH  13  15
TORSDOF 5
ENDMDL
MODEL       23
REMARK 921   NORMALIZED FREE ENERGY PREDICTED BY IDOCK:   -5.67 KCAL/MOL
REMARK 922        TOTAL FREE ENERGY PREDICTED BY IDOCK:   -7.81 KCAL/MOL
REMARK 923 INTER-LIGAND FREE ENERGY PREDICTED BY IDOCK:   -7.29 KCAL/MOL
REMARK 924 INTRA-LIGAND FREE ENERGY PREDICTED BY IDOCK:   -0.52 KCAL/MOL
REMARK 927      BINDING AFFINITY PREDICTED BY RF-SCORE:    0.00 PKD
ROOT
HETATM    1  N   UNL     1     -14.391   8.928  73.134  1.00  0.00    -1.145 NA 
HETATM    2  C   UNL     1     -13.186   8.969  72.513  1.00  0.00    -0.406 C  
HETATM    3  H1  UNL     1     -14.573   8.221  73.847  1.00  0.00     0.000 HD 
HETATM    4  H2  UNL     1     -15.115   9.604  72.890  1.00  0.00     0.000 HD 
HETATM    5  N   UNL     1     -12.953   9.875  71.600  1.00  0.00    -0.400 NA 
HETATM    6  C   UNL     1     -11.716   9.780  71.055  1.00  0.00    -0.370 A  
HETATM    7  C   UNL     1     -10.722   8.874  71.348  1.00  0.00    -0.312 A  
HETATM    8  N   UNL     1      -9.610   9.084  70.573  1.00  0.00    -0.201 NA 
HETATM    9  C   UNL     1     -10.990   7.886  72.371  1.00  0.00    -0.325 C  
HETATM   10  N   UNL     1     -12.264   8.020  72.908  1.00  0.00    -0.598 N  
HETATM   11  O   UNL     1     -10.216   7.014  72.752  1.00  0.00    -0.181 OA 
HETATM   12  C   UNL     1      -9.928  10.111  69.812  1.00  0.00    -0.220 A  
HETATM   13  N   UNL     1     -11.192  10.572  70.075  1.00  0.00    -0.295 NA 
HETATM   14  H   UNL     1     -12.538   7.370  73.645  1.00  0.00     0.000 HD 
ENDROOT
BRANCH  13  15
HETATM   15  C   UNL     1     -11.824  11.726  69.474  1.00  0.00    -0.337 C  
BRANCH  15  16
HETATM   16  O   UNL     1     -12.119  11.523  68.086  1.00  0.00    -0.604 OA 
BRANCH  16  17
HETATM   17  C   UNL     1     -11.334  12.297  67.151  1.00  0.00    -0.335 C  
BRANCH  17  18
HETATM   18  C   UNL     1     -11.892  12.258  65.720  1.00  0.00    -0.352 C  
HETATM   19  H   UNL     1     -11.631  13.227  64.012  1.00  0.00     0.000 HD 
HETATM   20  O   UNL     1     -11.285  13.252  64.897  1.00  0.00    -0.302 OA 
ENDBRANCH  17  18
BRANCH  17  21
HETATM   21  C   UNL     1     -11.328  13.746  67.670  1.00  0.00    -0.304 C  
HETATM   22  O   UNL     1     -12.523  14.419  67.272  1.00  0.00    -0.601 OA 
HETATM   23  H   UNL     1     -12.520  15.313  67.592  1.00  0.00     0.000 HD 
ENDBRANCH  17  21
ENDBRANCH  16  17
ENDBRANCH  15  16
ENDBRANCH  13  15
TORSDOF 5
ENDMDL
MODEL       24
REMARK 921   NORMALIZED FREE ENERGY PREDICTED BY IDOCK:   -5.66 KCAL/MOL
REMARK 922        TOTAL FREE ENERGY PREDICTED BY IDOCK:   -7.79 KCAL/MOL
REMARK 923 INTER-LIGAND FREE ENERGY PREDICTED BY IDOCK:   -7.13 KCAL/MOL
REMARK 924 INTRA-LIGAND FREE ENERGY PREDICTED BY IDOCK:   -0.66 KCAL/MOL
REMARK 927      BINDING AFFINITY PREDICTED BY RF-SCORE:    0.00 PKD
ROOT
HETATM    1  N   UNL     1     -10.451  17.468  67.665  1.00  0.00    -0.362 NA 
HETATM    2  C   UNL     1     -10.854  16.407  68.407  1.00  0.00    -0.342 C  
HETATM    3  H1  UNL     1     -10.436  18.401  68.076  1.00  0.00     0.000 HD 
HETATM    4  H2  UNL     1     -10.164  17.333  66.696  1.00  0.00     0.000 HD 
HETATM    5  N   UNL     1     -10.873  15.211  67.881  1.00  0.00    -0.282 NA 
HETATM    6  C   UNL     1     -11.315  14.257  68.735  1.00  0.00    -0.275 A  
HETATM    7  C   UNL     1     -11.726  14.405  70.041  1.00  0.00    -0.298 A  
HETATM    8  N   UNL     1     -12.121  13.206  70.579  1.00  0.00    -0.346 NA 
HETATM    9  C   UNL     1     -11.685  15.732  70.615  1.00  0.00    -0.385 C  
HETATM   10  N   UNL     1     -11.222  16.680  69.711  1.00  0.00    -0.367 N  
HETATM   11  O   UNL     1     -12.011  16.035  71.758  1.00  0.00    -0.447 OA 
HETATM   12  C   UNL     1     -11.954  12.336  69.604  1.00  0.00    -0.279 A  
HETATM   13  N   UNL     1     -11.459  12.926  68.470  1.00  0.00    -0.286 NA 
HETATM   14  H   UNL     1     -11.150  17.645  70.032  1.00  0.00     0.000 HD 
ENDROOT
BRANCH  13  15
HETATM   15  C   UNL     1     -11.093  12.250  67.244  1.00  0.00    -0.275 C  
BRANCH  15  16
HETATM   16  O   UNL     1     -12.074  12.423  66.214  1.00  0.00    -0.612 OA 
BRANCH  16  17
HETATM   17  C   UNL     1     -11.600  13.005  64.978  1.00  0.00    -0.325 C  
BRANCH  17  18
HETATM   18  C   UNL     1     -11.883  12.125  63.752  1.00  0.00    -0.500 C  
HETATM   19  H   UNL     1     -13.455  11.506  62.716  1.00  0.00     0.000 HD 
HETATM   20  O   UNL     1     -13.280  12.051  63.475  1.00  0.00    -0.724 OA 
ENDBRANCH  17  18
BRANCH  17  21
HETATM   21  C   UNL     1     -12.312  14.361  64.824  1.00  0.00    -0.414 C  
HETATM   22  O   UNL     1     -13.529  14.368  65.571  1.00  0.00    -0.609 OA 
HETATM   23  H   UNL     1     -13.969  15.205  65.476  1.00  0.00     0.000 HD 
ENDBRANCH  17  21
ENDBRANCH  16  17
ENDBRANCH  15  16
ENDBRANCH  13  15
TORSDOF 5
ENDMDL
MODEL       25
REMARK 921   NORMALIZED FREE ENERGY PREDICTED BY IDOCK:   -5.62 KCAL/MOL
REMARK 922        TOTAL FREE ENERGY PREDICTED BY IDOCK:   -7.75 KCAL/MOL
REMARK 923 INTER-LIGAND FREE ENERGY PREDICTED BY IDOCK:   -7.09 KCAL/MOL
REMARK 924 INTRA-LIGAND FREE ENERGY PREDICTED BY IDOCK:   -0.65 KCAL/MOL
REMARK 927      BINDING AFFINITY PREDICTED BY RF-SCORE:    0.00 PKD
ROOT
HETATM    1  N   UNL     1     -10.938  16.780  69.726  1.00  0.00    -0.392 NA 
HETATM    2  C   UNL     1     -11.595  15.833  70.441  1.00  0.00    -0.360 C  
HETATM    3  H1  UNL     1     -10.991  17.759  70.006  1.00  0.00     0.000 HD 
HETATM    4  H2  UNL     1     -10.390  16.513  68.908  1.00  0.00     0.000 HD 
HETATM    5  N   UNL     1     -11.526  14.579  70.082  1.00  0.00    -0.261 NA 
HETATM    6  C   UNL     1     -12.248  13.754  70.879  1.00  0.00    -0.349 A  
HETATM    7  C   UNL     1     -13.010  14.080  71.979  1.00  0.00    -0.363 A  
HETATM    8  N   UNL     1     -13.608  12.970  72.519  1.00  0.00    -0.594 NA 
HETATM    9  C   UNL     1     -13.064  15.471  72.372  1.00  0.00    -0.437 C  
HETATM   10  N   UNL     1     -12.309  16.283  71.535  1.00  0.00    -0.550 N  
HETATM   11  O   UNL     1     -13.690  15.928  73.323  1.00  0.00    -0.541 OA 
HETATM   12  C   UNL     1     -13.214  11.976  71.750  1.00  0.00    -0.317 A  
HETATM   13  N   UNL     1     -12.381  12.402  70.748  1.00  0.00    -0.356 NA 
HETATM   14  H   UNL     1     -12.281  17.281  71.743  1.00  0.00     0.000 HD 
ENDROOT
BRANCH  13  15
HETATM   15  C   UNL     1     -11.713  11.564  69.776  1.00  0.00    -0.353 C  
BRANCH  15  16
HETATM   16  O   UNL     1     -12.217  11.762  68.450  1.00  0.00    -0.467 OA 
BRANCH  16  17
HETATM   17  C   UNL     1     -11.229  12.034  67.430  1.00  0.00    -0.307 C  
BRANCH  17  18
HETATM   18  C   UNL     1     -10.772  10.771  66.684  1.00  0.00    -0.207 C  
HETATM   19  H   UNL     1     -10.372  10.227  64.821  1.00  0.00     0.000 HD 
HETATM   20  O   UNL     1     -10.655  11.008  65.282  1.00  0.00    -0.268 OA 
ENDBRANCH  17  18
BRANCH  17  21
HETATM   21  C   UNL     1     -11.872  13.022  66.440  1.00  0.00    -0.405 C  
HETATM   22  O   UNL     1     -12.473  14.108  67.147  1.00  0.00    -0.566 OA 
HETATM   23  H   UNL     1     -12.870  14.718  66.536  1.00  0.00     0.000 HD 
ENDBRANCH  17  21
ENDBRANCH  16  17
ENDBRANCH  15  16
ENDBRANCH  13  15
TORSDOF 5
ENDMDL
MODEL       26
REMARK 921   NORMALIZED FREE ENERGY PREDICTED BY IDOCK:   -5.56 KCAL/MOL
REMARK 922        TOTAL FREE ENERGY PREDICTED BY IDOCK:   -7.67 KCAL/MOL
REMARK 923 INTER-LIGAND FREE ENERGY PREDICTED BY IDOCK:   -7.15 KCAL/MOL
REMARK 924 INTRA-LIGAND FREE ENERGY PREDICTED BY IDOCK:   -0.52 KCAL/MOL
REMARK 927      BINDING AFFINITY PREDICTED BY RF-SCORE:    0.00 PKD
ROOT
HETATM    1  N   UNL     1      -8.929  11.503  62.706  1.00  0.00    -0.603 NA 
HETATM    2  C   UNL     1      -9.989  12.037  63.363  1.00  0.00    -0.357 C  
HETATM    3  H1  UNL     1      -9.078  10.796  61.987  1.00  0.00     0.000 HD 
HETATM    4  H2  UNL     1      -7.982  11.810  62.931  1.00  0.00     0.000 HD 
HETATM    5  N   UNL     1      -9.797  12.943  64.285  1.00  0.00    -0.101 NA 
HETATM    6  C   UNL     1     -10.945  13.368  64.866  1.00  0.00    -0.342 A  
HETATM    7  C   UNL     1     -12.235  12.966  64.599  1.00  0.00    -0.435 A  
HETATM    8  N   UNL     1     -13.136  13.613  65.408  1.00  0.00    -0.678 NA 
HETATM    9  C   UNL     1     -12.433  11.973  63.566  1.00  0.00    -0.540 C  
HETATM   10  N   UNL     1     -11.234  11.568  62.993  1.00  0.00    -0.823 N  
HETATM   11  O   UNL     1     -13.511  11.511  63.205  1.00  0.00    -0.231 OA 
HETATM   12  C   UNL     1     -12.397  14.400  66.162  1.00  0.00    -0.314 A  
HETATM   13  N   UNL     1     -11.063  14.291  65.863  1.00  0.00    -0.305 NA 
HETATM   14  H   UNL     1     -11.277  10.875  62.246  1.00  0.00     0.000 HD 
ENDROOT
BRANCH  13  15
HETATM   15  C   UNL     1      -9.990  15.065  66.449  1.00  0.00    -0.279 C  
BRANCH  15  16
HETATM   16  O   UNL     1      -9.865  16.360  65.850  1.00  0.00    -0.333 OA 
BRANCH  16  17
HETATM   17  C   UNL     1     -10.532  17.444  66.535  1.00  0.00    -0.264 C  
BRANCH  17  18
HETATM   18  C   UNL     1     -10.612  17.236  68.055  1.00  0.00    -0.394 C  
HETATM   19  H   UNL     1     -10.349  18.305  69.702  1.00  0.00     0.000 HD 
HETATM   20  O   UNL     1     -10.299  18.434  68.762  1.00  0.00    -0.349 OA 
ENDBRANCH  17  18
BRANCH  17  21
HETATM   21  C   UNL     1      -9.736  18.724  66.224  1.00  0.00    -0.330 C  
HETATM   22  O   UNL     1     -10.613  19.850  66.165  1.00  0.00    -0.467 OA 
HETATM   23  H   UNL     1     -10.122  20.640  65.973  1.00  0.00     0.000 HD 
ENDBRANCH  17  21
ENDBRANCH  16  17
ENDBRANCH  15  16
ENDBRANCH  13  15
TORSDOF 5
ENDMDL
MODEL       27
REMARK 921   NORMALIZED FREE ENERGY PREDICTED BY IDOCK:   -5.55 KCAL/MOL
REMARK 922        TOTAL FREE ENERGY PREDICTED BY IDOCK:   -7.65 KCAL/MOL
REMARK 923 INTER-LIGAND FREE ENERGY PREDICTED BY IDOCK:   -7.13 KCAL/MOL
REMARK 924 INTRA-LIGAND FREE ENERGY PREDICTED BY IDOCK:   -0.53 KCAL/MOL
REMARK 927      BINDING AFFINITY PREDICTED BY RF-SCORE:    0.00 PKD
ROOT
HETATM    1  N   UNL     1     -11.648  16.246  63.835  1.00  0.00    -1.573 NA 
HETATM    2  C   UNL     1     -11.196  15.323  64.720  1.00  0.00    -0.396 C  
HETATM    3  H1  UNL     1     -11.895  15.964  62.886  1.00  0.00     0.000 HD 
HETATM    4  H2  UNL     1     -11.741  17.221  64.118  1.00  0.00     0.000 HD 
HETATM    5  N   UNL     1     -10.879  15.684  65.935  1.00  0.00    -0.318 NA 
HETATM    6  C   UNL     1     -10.427  14.660  66.698  1.00  0.00    -0.278 A  
HETATM    7  C   UNL     1     -10.273  13.337  66.346  1.00  0.00    -0.292 A  
HETATM    8  N   UNL     1      -9.770  12.598  67.387  1.00  0.00    -0.196 NA 
HETATM    9  C   UNL     1     -10.641  12.950  65.002  1.00  0.00    -0.315 C  
HETATM   10  N   UNL     1     -11.104  14.025  64.255  1.00  0.00    -0.597 N  
HETATM   11  O   UNL     1     -10.569  11.819  64.531  1.00  0.00    -0.278 OA 
HETATM   12  C   UNL     1      -9.616  13.468  68.365  1.00  0.00    -0.196 A  
HETATM   13  N   UNL     1     -10.009  14.729  67.995  1.00  0.00    -0.216 NA 
HETATM   14  H   UNL     1     -11.397  13.844  63.295  1.00  0.00     0.000 HD 
ENDROOT
BRANCH  13  15
HETATM   15  C   UNL     1     -10.041  15.898  68.846  1.00  0.00    -0.225 C  
BRANCH  15  16
HETATM   16  O   UNL     1     -11.296  16.043  69.523  1.00  0.00    -0.318 OA 
BRANCH  16  17
HETATM   17  C   UNL     1     -11.418  15.356  70.789  1.00  0.00    -0.355 C  
BRANCH  17  18
HETATM   18  C   UNL     1     -11.790  16.292  71.948  1.00  0.00    -0.462 C  
HETATM   19  H   UNL     1     -12.255  16.143  73.869  1.00  0.00     0.000 HD 
HETATM   20  O   UNL     1     -12.025  15.564  73.152  1.00  0.00    -0.427 OA 
ENDBRANCH  17  18
BRANCH  17  21
HETATM   21  C   UNL     1     -12.509  14.286  70.610  1.00  0.00    -0.358 C  
HETATM   22  O   UNL     1     -12.804  14.107  69.224  1.00  0.00    -0.327 OA 
HETATM   23  H   UNL     1     -13.478  13.446  69.114  1.00  0.00     0.000 HD 
ENDBRANCH  17  21
ENDBRANCH  16  17
ENDBRANCH  15  16
ENDBRANCH  13  15
TORSDOF 5
ENDMDL
MODEL       28
REMARK 921   NORMALIZED FREE ENERGY PREDICTED BY IDOCK:   -5.54 KCAL/MOL
REMARK 922        TOTAL FREE ENERGY PREDICTED BY IDOCK:   -7.64 KCAL/MOL
REMARK 923 INTER-LIGAND FREE ENERGY PREDICTED BY IDOCK:   -7.24 KCAL/MOL
REMARK 924 INTRA-LIGAND FREE ENERGY PREDICTED BY IDOCK:   -0.40 KCAL/MOL
REMARK 927      BINDING AFFINITY PREDICTED BY RF-SCORE:    0.00 PKD
ROOT
HETATM    1  N   UNL     1     -12.441  13.946  63.119  1.00  0.00    -1.079 NA 
HETATM    2  C   UNL     1     -11.942  13.234  64.160  1.00  0.00    -0.447 C  
HETATM    3  H1  UNL     1     -12.302  13.618  62.163  1.00  0.00     0.000 HD 
HETATM    4  H2  UNL     1     -12.957  14.809  63.292  1.00  0.00     0.000 HD 
HETATM    5  N   UNL     1     -12.121  13.654  65.384  1.00  0.00    -0.378 NA 
HETATM    6  C   UNL     1     -11.551  12.852  66.315  1.00  0.00    -0.372 A  
HETATM    7  C   UNL     1     -10.836  11.691  66.118  1.00  0.00    -0.294 A  
HETATM    8  N   UNL     1     -10.401  11.165  67.309  1.00  0.00    -0.199 NA 
HETATM    9  C   UNL     1     -10.659  11.230  64.759  1.00  0.00    -0.312 C  
HETATM   10  N   UNL     1     -11.261  12.076  63.836  1.00  0.00    -0.381 N  
HETATM   11  O   UNL     1     -10.055  10.221  64.411  1.00  0.00    -0.324 OA 
HETATM   12  C   UNL     1     -10.846  12.003  68.222  1.00  0.00    -0.229 A  
HETATM   13  N   UNL     1     -11.556  13.037  67.667  1.00  0.00    -0.333 NA 
HETATM   14  H   UNL     1     -11.196  11.825  62.850  1.00  0.00     0.000 HD 
ENDROOT
BRANCH  13  15
HETATM   15  C   UNL     1     -12.242  14.087  68.387  1.00  0.00    -0.167 C  
BRANCH  15  16
HETATM   16  O   UNL     1     -12.174  13.906  69.807  1.00  0.00    -0.330 OA 
BRANCH  16  17
HETATM   17  C   UNL     1     -12.734  14.970  70.610  1.00  0.00    -0.376 C  
BRANCH  17  18
HETATM   18  C   UNL     1     -13.998  14.547  71.372  1.00  0.00    -0.359 C  
HETATM   19  H   UNL     1     -14.493  13.998  73.211  1.00  0.00     0.000 HD 
HETATM   20  O   UNL     1     -13.711  14.260  72.739  1.00  0.00    -0.596 OA 
ENDBRANCH  17  18
BRANCH  17  21
HETATM   21  C   UNL     1     -11.641  15.396  71.606  1.00  0.00    -0.423 C  
HETATM   22  O   UNL     1     -11.897  16.716  72.087  1.00  0.00    -0.641 OA 
HETATM   23  H   UNL     1     -11.222  16.979  72.702  1.00  0.00     0.000 HD 
ENDBRANCH  17  21
ENDBRANCH  16  17
ENDBRANCH  15  16
ENDBRANCH  13  15
TORSDOF 5
ENDMDL
MODEL       29
REMARK 921   NORMALIZED FREE ENERGY PREDICTED BY IDOCK:   -5.52 KCAL/MOL
REMARK 922        TOTAL FREE ENERGY PREDICTED BY IDOCK:   -7.62 KCAL/MOL
REMARK 923 INTER-LIGAND FREE ENERGY PREDICTED BY IDOCK:   -7.03 KCAL/MOL
REMARK 924 INTRA-LIGAND FREE ENERGY PREDICTED BY IDOCK:   -0.59 KCAL/MOL
REMARK 927      BINDING AFFINITY PREDICTED BY RF-SCORE:    0.00 PKD
ROOT
HETATM    1  N   UNL     1     -11.086   9.291  67.867  1.00  0.00    -0.493 NA 
HETATM    2  C   UNL     1     -11.447  10.385  68.584  1.00  0.00    -0.172 C  
HETATM    3  H1  UNL     1     -11.147   8.364  68.287  1.00  0.00     0.000 HD 
HETATM    4  H2  UNL     1     -10.754   9.396  66.908  1.00  0.00     0.000 HD 
HETATM    5  N   UNL     1     -11.369  11.573  68.046  1.00  0.00    -0.273 NA 
HETATM    6  C   UNL     1     -11.743  12.567  68.886  1.00  0.00    -0.322 A  
HETATM    7  C   UNL     1     -12.180  12.465  70.188  1.00  0.00    -0.229 A  
HETATM    8  N   UNL     1     -12.453  13.699  70.722  1.00  0.00    -0.359 NA 
HETATM    9  C   UNL     1     -12.275  11.142  70.766  1.00  0.00    -0.385 C  
HETATM   10  N   UNL     1     -11.888  10.151  69.872  1.00  0.00    -0.436 N  
HETATM   11  O   UNL     1     -12.646  10.876  71.904  1.00  0.00    -0.308 OA 
HETATM   12  C   UNL     1     -12.180  14.546  69.751  1.00  0.00    -0.312 A  
HETATM   13  N   UNL     1     -11.755  13.905  68.616  1.00  0.00    -0.339 NA 
HETATM   14  H   UNL     1     -11.931   9.183  70.190  1.00  0.00     0.000 HD 
ENDROOT
BRANCH  13  15
HETATM   15  C   UNL     1     -11.445  14.527  67.347  1.00  0.00    -0.368 C  
BRANCH  15  16
HETATM   16  O   UNL     1     -12.307  14.076  66.295  1.00  0.00    -0.456 OA 
BRANCH  16  17
HETATM   17  C   UNL     1     -11.826  14.282  64.948  1.00  0.00    -0.410 C  
BRANCH  17  18
HETATM   18  C   UNL     1     -10.802  15.422  64.843  1.00  0.00    -0.425 C  
HETATM   19  H   UNL     1     -10.761  17.315  64.259  1.00  0.00     0.000 HD 
HETATM   20  O   UNL     1     -11.395  16.610  64.324  1.00  0.00    -1.116 OA 
ENDBRANCH  17  18
BRANCH  17  21
HETATM   21  C   UNL     1     -11.184  12.958  64.498  1.00  0.00    -0.336 C  
HETATM   22  O   UNL     1     -11.756  11.863  65.215  1.00  0.00    -0.289 OA 
HETATM   23  H   UNL     1     -11.359  11.045  64.937  1.00  0.00     0.000 HD 
ENDBRANCH  17  21
ENDBRANCH  16  17
ENDBRANCH  15  16
ENDBRANCH  13  15
TORSDOF 5
ENDMDL
MODEL       30
REMARK 921   NORMALIZED FREE ENERGY PREDICTED BY IDOCK:   -5.50 KCAL/MOL
REMARK 922        TOTAL FREE ENERGY PREDICTED BY IDOCK:   -7.60 KCAL/MOL
REMARK 923 INTER-LIGAND FREE ENERGY PREDICTED BY IDOCK:   -7.26 KCAL/MOL
REMARK 924 INTRA-LIGAND FREE ENERGY PREDICTED BY IDOCK:   -0.34 KCAL/MOL
REMARK 927      BINDING AFFINITY PREDICTED BY RF-SCORE:    0.00 PKD
ROOT
HETATM    1  N   UNL     1     -11.835  10.226  68.560  1.00  0.00    -0.710 NA 
HETATM    2  C   UNL     1     -12.021  11.411  69.193  1.00  0.00    -0.328 C  
HETATM    3  H1  UNL     1     -12.096   9.355  69.022  1.00  0.00     0.000 HD 
HETATM    4  H2  UNL     1     -11.434  10.207  67.622  1.00  0.00     0.000 HD 
HETATM    5  N   UNL     1     -11.686  12.527  68.602  1.00  0.00    -0.311 NA 
HETATM    6  C   UNL     1     -11.912  13.625  69.363  1.00  0.00    -0.342 A  
HETATM    7  C   UNL     1     -12.435  13.689  70.636  1.00  0.00    -0.347 A  
HETATM    8  N   UNL     1     -12.497  14.984  71.086  1.00  0.00    -0.306 NA 
HETATM    9  C   UNL     1     -12.814  12.446  71.272  1.00  0.00    -0.240 C  
HETATM   10  N   UNL     1     -12.572  11.346  70.459  1.00  0.00    -0.258 N  
HETATM   11  O   UNL     1     -13.295  12.327  72.394  1.00  0.00    -0.453 OA 
HETATM   12  C   UNL     1     -12.012  15.702  70.094  1.00  0.00    -0.367 A  
HETATM   13  N   UNL     1     -11.652  14.922  69.025  1.00  0.00    -0.289 NA 
HETATM   14  H   UNL     1     -12.819  10.426  70.822  1.00  0.00     0.000 HD 
ENDROOT
BRANCH  13  15
HETATM   15  C   UNL     1     -11.156  15.393  67.751  1.00  0.00    -0.320 C  
BRANCH  15  16
HETATM   16  O   UNL     1     -10.823  16.787  67.780  1.00  0.00    -0.341 OA 
BRANCH  16  17
HETATM   17  C   UNL     1     -10.534  17.397  66.501  1.00  0.00    -0.264 C  
BRANCH  17  18
HETATM   18  C   UNL     1      -9.111  17.969  66.416  1.00  0.00    -0.235 C  
HETATM   19  H   UNL     1      -7.304  17.346  65.891  1.00  0.00     0.000 HD 
HETATM   20  O   UNL     1      -8.185  16.992  65.943  1.00  0.00    -0.505 OA 
ENDBRANCH  17  18
BRANCH  17  21
HETATM   21  C   UNL     1     -10.723  16.304  65.435  1.00  0.00    -0.327 C  
HETATM   22  O   UNL     1     -11.383  16.842  64.287  1.00  0.00    -1.313 OA 
HETATM   23  H   UNL     1     -11.500  16.167  63.629  1.00  0.00     0.000 HD 
ENDBRANCH  17  21
ENDBRANCH  16  17
ENDBRANCH  15  16
ENDBRANCH  13  15
TORSDOF 5
ENDMDL
MODEL       31
REMARK 921   NORMALIZED FREE ENERGY PREDICTED BY IDOCK:   -5.50 KCAL/MOL
REMARK 922        TOTAL FREE ENERGY PREDICTED BY IDOCK:   -7.59 KCAL/MOL
REMARK 923 INTER-LIGAND FREE ENERGY PREDICTED BY IDOCK:   -6.92 KCAL/MOL
REMARK 924 INTRA-LIGAND FREE ENERGY PREDICTED BY IDOCK:   -0.67 KCAL/MOL
REMARK 927      BINDING AFFINITY PREDICTED BY RF-SCORE:    0.00 PKD
ROOT
HETATM    1  N   UNL     1     -12.463  14.360  63.661  1.00  0.00    -1.086 NA 
HETATM    2  C   UNL     1     -11.863  13.254  64.169  1.00  0.00    -0.443 C  
HETATM    3  H1  UNL     1     -12.407  14.557  62.662  1.00  0.00     0.000 HD 
HETATM    4  H2  UNL     1     -12.972  14.993  64.279  1.00  0.00     0.000 HD 
HETATM    5  N   UNL     1     -11.935  13.001  65.449  1.00  0.00    -0.387 NA 
HETATM    6  C   UNL     1     -11.272  11.876  65.811  1.00  0.00    -0.312 A  
HETATM    7  C   UNL     1     -10.564  11.008  65.010  1.00  0.00    -0.244 A  
HETATM    8  N   UNL     1     -10.016   9.987  65.744  1.00  0.00    -0.275 NA 
HETATM    9  C   UNL     1     -10.505  11.293  63.593  1.00  0.00    -0.405 C  
HETATM   10  N   UNL     1     -11.200  12.450  63.262  1.00  0.00    -0.673 N  
HETATM   11  O   UNL     1      -9.923  10.625  62.745  1.00  0.00    -0.266 OA 
HETATM   12  C   UNL     1     -10.386  10.235  66.983  1.00  0.00    -0.243 A  
HETATM   13  N   UNL     1     -11.157  11.366  67.071  1.00  0.00    -0.295 NA 
HETATM   14  H   UNL     1     -11.221  12.725  62.280  1.00  0.00     0.000 HD 
ENDROOT
BRANCH  13  15
HETATM   15  C   UNL     1     -11.787  11.880  68.267  1.00  0.00    -0.277 C  
BRANCH  15  16
HETATM   16  O   UNL     1     -11.203  13.115  68.700  1.00  0.00    -0.245 OA 
BRANCH  16  17
HETATM   17  C   UNL     1     -12.121  14.215  68.900  1.00  0.00    -0.304 C  
BRANCH  17  18
HETATM   18  C   UNL     1     -12.503  14.419  70.373  1.00  0.00    -0.357 C  
HETATM   19  H   UNL     1     -13.491  15.744  71.467  1.00  0.00     0.000 HD 
HETATM   20  O   UNL     1     -13.254  15.618  70.555  1.00  0.00    -0.434 OA 
ENDBRANCH  17  18
BRANCH  17  21
HETATM   21  C   UNL     1     -11.425  15.477  68.360  1.00  0.00    -0.363 C  
HETATM   22  O   UNL     1     -11.266  15.386  66.943  1.00  0.00    -0.307 OA 
HETATM   23  H   UNL     1     -10.836  16.165  66.610  1.00  0.00     0.000 HD 
ENDBRANCH  17  21
ENDBRANCH  16  17
ENDBRANCH  15  16
ENDBRANCH  13  15
TORSDOF 5
ENDMDL
MODEL       32
REMARK 921   NORMALIZED FREE ENERGY PREDICTED BY IDOCK:   -5.46 KCAL/MOL
REMARK 922        TOTAL FREE ENERGY PREDICTED BY IDOCK:   -7.54 KCAL/MOL
REMARK 923 INTER-LIGAND FREE ENERGY PREDICTED BY IDOCK:   -6.99 KCAL/MOL
REMARK 924 INTRA-LIGAND FREE ENERGY PREDICTED BY IDOCK:   -0.55 KCAL/MOL
REMARK 927      BINDING AFFINITY PREDICTED BY RF-SCORE:    0.00 PKD
ROOT
HETATM    1  N   UNL     1      -9.834  20.450  66.920  1.00  0.00    -0.532 NA 
HETATM    2  C   UNL     1      -9.330  19.317  67.469  1.00  0.00    -0.306 C  
HETATM    3  H1  UNL     1      -9.263  21.293  66.876  1.00  0.00     0.000 HD 
HETATM    4  H2  UNL     1     -10.785  20.458  66.551  1.00  0.00     0.000 HD 
HETATM    5  N   UNL     1     -10.063  18.236  67.525  1.00  0.00    -0.333 NA 
HETATM    6  C   UNL     1      -9.433  17.192  68.116  1.00  0.00    -0.269 A  
HETATM    7  C   UNL     1      -8.160  17.149  68.639  1.00  0.00    -0.264 A  
HETATM    8  N   UNL     1      -7.880  15.915  69.171  1.00  0.00    -0.216 NA 
HETATM    9  C   UNL     1      -7.355  18.348  68.556  1.00  0.00    -0.287 C  
HETATM   10  N   UNL     1      -8.034  19.393  67.941  1.00  0.00    -0.291 N  
HETATM   11  O   UNL     1      -6.207  18.478  68.968  1.00  0.00    -0.222 OA 
HETATM   12  C   UNL     1      -8.978  15.215  68.975  1.00  0.00    -0.219 A  
HETATM   13  N   UNL     1      -9.944  15.945  68.331  1.00  0.00    -0.219 NA 
HETATM   14  H   UNL     1      -7.540  20.278  67.829  1.00  0.00     0.000 HD 
ENDROOT
BRANCH  13  15
HETATM   15  C   UNL     1     -11.236  15.461  67.898  1.00  0.00    -0.329 C  
BRANCH  15  16
HETATM   16  O   UNL     1     -11.131  14.524  66.818  1.00  0.00    -0.309 OA 
BRANCH  16  17
HETATM   17  C   UNL     1     -11.712  14.938  65.560  1.00  0.00    -0.211 C  
BRANCH  17  18
HETATM   18  C   UNL     1     -10.886  16.015  64.843  1.00  0.00    -0.372 C  
HETATM   19  H   UNL     1     -11.092  17.243  63.300  1.00  0.00     0.000 HD 
HETATM   20  O   UNL     1     -11.603  16.576  63.744  1.00  0.00    -1.109 OA 
ENDBRANCH  17  18
BRANCH  17  21
HETATM   21  C   UNL     1     -11.808  13.679  64.680  1.00  0.00    -0.397 C  
HETATM   22  O   UNL     1     -12.363  14.008  63.406  1.00  0.00    -1.099 OA 
HETATM   23  H   UNL     1     -12.422  13.231  62.862  1.00  0.00     0.000 HD 
ENDBRANCH  17  21
ENDBRANCH  16  17
ENDBRANCH  15  16
ENDBRANCH  13  15
TORSDOF 5
ENDMDL
MODEL       33
REMARK 921   NORMALIZED FREE ENERGY PREDICTED BY IDOCK:   -5.43 KCAL/MOL
REMARK 922        TOTAL FREE ENERGY PREDICTED BY IDOCK:   -7.49 KCAL/MOL
REMARK 923 INTER-LIGAND FREE ENERGY PREDICTED BY IDOCK:   -6.79 KCAL/MOL
REMARK 924 INTRA-LIGAND FREE ENERGY PREDICTED BY IDOCK:   -0.70 KCAL/MOL
REMARK 927      BINDING AFFINITY PREDICTED BY RF-SCORE:    0.00 PKD
ROOT
HETATM    1  N   UNL     1     -10.719   8.553  69.104  1.00  0.00    -0.381 NA 
HETATM    2  C   UNL     1     -11.391   9.480  69.831  1.00  0.00    -0.126 C  
HETATM    3  H1  UNL     1     -10.809   7.563  69.333  1.00  0.00     0.000 HD 
HETATM    4  H2  UNL     1     -10.125   8.845  68.329  1.00  0.00     0.000 HD 
HETATM    5  N   UNL     1     -11.276  10.748  69.538  1.00  0.00    -0.259 NA 
HETATM    6  C   UNL     1     -11.988  11.555  70.360  1.00  0.00    -0.368 A  
HETATM    7  C   UNL     1     -12.786  11.199  71.424  1.00  0.00    -0.439 A  
HETATM    8  N   UNL     1     -13.334  12.302  72.030  1.00  0.00    -0.477 NA 
HETATM    9  C   UNL     1     -12.916   9.790  71.728  1.00  0.00    -0.438 C  
HETATM   10  N   UNL     1     -12.176   8.997  70.860  1.00  0.00    -0.460 N  
HETATM   11  O   UNL     1     -13.586   9.306  72.634  1.00  0.00    -0.455 OA 
HETATM   12  C   UNL     1     -12.867  13.322  71.340  1.00  0.00    -0.322 A  
HETATM   13  N   UNL     1     -12.054  12.918  70.312  1.00  0.00    -0.344 NA 
HETATM   14  H   UNL     1     -12.215   7.987  70.993  1.00  0.00     0.000 HD 
ENDROOT
BRANCH  13  15
HETATM   15  C   UNL     1     -11.439  13.773  69.321  1.00  0.00    -0.293 C  
BRANCH  15  16
HETATM   16  O   UNL     1     -12.286  13.983  68.184  1.00  0.00    -0.325 OA 
BRANCH  16  17
HETATM   17  C   UNL     1     -12.000  13.173  67.021  1.00  0.00    -0.355 C  
BRANCH  17  18
HETATM   18  C   UNL     1     -12.621  13.732  65.732  1.00  0.00    -0.480 C  
HETATM   19  H   UNL     1     -13.563  13.039  64.133  1.00  0.00     0.000 HD 
HETATM   20  O   UNL     1     -13.180  12.693  64.930  1.00  0.00    -0.819 OA 
ENDBRANCH  17  18
BRANCH  17  21
HETATM   21  C   UNL     1     -10.468  13.119  66.884  1.00  0.00    -0.256 C  
HETATM   22  O   UNL     1     -10.020  11.763  66.876  1.00  0.00    -0.196 OA 
HETATM   23  H   UNL     1      -9.075  11.729  66.791  1.00  0.00     0.000 HD 
ENDBRANCH  17  21
ENDBRANCH  16  17
ENDBRANCH  15  16
ENDBRANCH  13  15
TORSDOF 5
ENDMDL
MODEL       34
REMARK 921   NORMALIZED FREE ENERGY PREDICTED BY IDOCK:   -5.41 KCAL/MOL
REMARK 922        TOTAL FREE ENERGY PREDICTED BY IDOCK:   -7.48 KCAL/MOL
REMARK 923 INTER-LIGAND FREE ENERGY PREDICTED BY IDOCK:   -7.00 KCAL/MOL
REMARK 924 INTRA-LIGAND FREE ENERGY PREDICTED BY IDOCK:   -0.48 KCAL/MOL
REMARK 927      BINDING AFFINITY PREDICTED BY RF-SCORE:    0.00 PKD
ROOT
HETATM    1  N   UNL     1     -13.520  16.297  73.753  1.00  0.00    -0.884 NA 
HETATM    2  C   UNL     1     -13.081  15.524  72.729  1.00  0.00    -0.480 C  
HETATM    3  H1  UNL     1     -14.046  15.878  74.520  1.00  0.00     0.000 HD 
HETATM    4  H2  UNL     1     -13.324  17.298  73.757  1.00  0.00     0.000 HD 
HETATM    5  N   UNL     1     -12.407  16.061  71.747  1.00  0.00    -0.463 NA 
HETATM    6  C   UNL     1     -12.052  15.170  70.790  1.00  0.00    -0.336 A  
HETATM    7  C   UNL     1     -12.312  13.819  70.744  1.00  0.00    -0.379 A  
HETATM    8  N   UNL     1     -11.805  13.251  69.603  1.00  0.00    -0.317 NA 
HETATM    9  C   UNL     1     -13.047  13.235  71.845  1.00  0.00    -0.388 C  
HETATM   10  N   UNL     1     -13.387  14.179  72.807  1.00  0.00    -0.533 N  
HETATM   11  O   UNL     1     -13.358  12.054  71.961  1.00  0.00    -0.495 OA 
HETATM   12  C   UNL     1     -11.242  14.252  68.958  1.00  0.00    -0.266 A  
HETATM   13  N   UNL     1     -11.360  15.434  69.644  1.00  0.00    -0.282 NA 
HETATM   14  H   UNL     1     -13.900  13.855  73.627  1.00  0.00     0.000 HD 
ENDROOT
BRANCH  13  15
HETATM   15  C   UNL     1     -10.794  16.708  69.257  1.00  0.00    -0.310 C  
BRANCH  15  16
HETATM   16  O   UNL     1      -9.380  16.629  69.035  1.00  0.00    -0.260 OA 
BRANCH  16  17
HETATM   17  C   UNL     1      -8.770  17.784  68.416  1.00  0.00    -0.292 C  
BRANCH  17  18
HETATM   18  C   UNL     1      -9.504  19.095  68.734  1.00  0.00    -0.399 C  
HETATM   19  H   UNL     1      -9.757  20.878  67.906  1.00  0.00     0.000 HD 
HETATM   20  O   UNL     1      -9.303  20.066  67.709  1.00  0.00    -0.344 OA 
ENDBRANCH  17  18
BRANCH  17  21
HETATM   21  C   UNL     1      -7.323  17.854  68.937  1.00  0.00    -0.248 C  
HETATM   22  O   UNL     1      -6.995  19.195  69.305  1.00  0.00    -0.325 OA 
HETATM   23  H   UNL     1      -6.102  19.238  69.627  1.00  0.00     0.000 HD 
ENDBRANCH  17  21
ENDBRANCH  16  17
ENDBRANCH  15  16
ENDBRANCH  13  15
TORSDOF 5
ENDMDL
MODEL       35
REMARK 921   NORMALIZED FREE ENERGY PREDICTED BY IDOCK:   -5.41 KCAL/MOL
REMARK 922        TOTAL FREE ENERGY PREDICTED BY IDOCK:   -7.48 KCAL/MOL
REMARK 923 INTER-LIGAND FREE ENERGY PREDICTED BY IDOCK:   -6.82 KCAL/MOL
REMARK 924 INTRA-LIGAND FREE ENERGY PREDICTED BY IDOCK:   -0.65 KCAL/MOL
REMARK 927      BINDING AFFINITY PREDICTED BY RF-SCORE:    0.00 PKD
ROOT
HETATM    1  N   UNL     1     -11.133  14.818  70.661  1.00  0.00    -0.497 NA 
HETATM    2  C   UNL     1     -11.082  14.362  69.384  1.00  0.00    -0.261 C  
HETATM    3  H1  UNL     1     -11.523  14.229  71.397  1.00  0.00     0.000 HD 
HETATM    4  H2  UNL     1     -10.781  15.749  70.885  1.00  0.00     0.000 HD 
HETATM    5  N   UNL     1     -10.583  15.116  68.441  1.00  0.00    -0.234 NA 
HETATM    6  C   UNL     1     -10.617  14.536  67.217  1.00  0.00    -0.280 A  
HETATM    7  C   UNL     1     -11.097  13.292  66.876  1.00  0.00    -0.289 A  
HETATM    8  N   UNL     1     -10.976  13.062  65.528  1.00  0.00    -0.272 NA 
HETATM    9  C   UNL     1     -11.634  12.463  67.933  1.00  0.00    -0.356 C  
HETATM   10  N   UNL     1     -11.577  13.090  69.171  1.00  0.00    -0.298 N  
HETATM   11  O   UNL     1     -12.097  11.334  67.801  1.00  0.00    -0.631 OA 
HETATM   12  C   UNL     1     -10.427  14.162  65.054  1.00  0.00    -0.425 A  
HETATM   13  N   UNL     1     -10.183  15.080  66.043  1.00  0.00    -0.282 NA 
HETATM   14  H   UNL     1     -11.925  12.575  69.979  1.00  0.00     0.000 HD 
ENDROOT
BRANCH  13  15
HETATM   15  C   UNL     1      -9.525  16.358  65.880  1.00  0.00    -0.254 C  
BRANCH  15  16
HETATM   16  O   UNL     1     -10.455  17.421  65.640  1.00  0.00    -0.577 OA 
BRANCH  16  17
HETATM   17  C   UNL     1     -10.513  18.454  66.650  1.00  0.00    -0.385 C  
BRANCH  17  18
HETATM   18  C   UNL     1      -9.339  18.395  67.638  1.00  0.00    -0.267 C  
HETATM   19  H   UNL     1      -8.970  18.908  69.516  1.00  0.00     0.000 HD 
HETATM   20  O   UNL     1      -9.696  18.945  68.905  1.00  0.00    -0.382 OA 
ENDBRANCH  17  18
BRANCH  17  21
HETATM   21  C   UNL     1     -10.503  19.802  65.907  1.00  0.00    -0.486 C  
HETATM   22  O   UNL     1      -9.683  20.743  66.601  1.00  0.00    -0.647 OA 
HETATM   23  H   UNL     1      -9.677  21.575  66.142  1.00  0.00     0.000 HD 
ENDBRANCH  17  21
ENDBRANCH  16  17
ENDBRANCH  15  16
ENDBRANCH  13  15
TORSDOF 5
ENDMDL
MODEL       36
REMARK 921   NORMALIZED FREE ENERGY PREDICTED BY IDOCK:   -5.40 KCAL/MOL
REMARK 922        TOTAL FREE ENERGY PREDICTED BY IDOCK:   -7.47 KCAL/MOL
REMARK 923 INTER-LIGAND FREE ENERGY PREDICTED BY IDOCK:   -6.99 KCAL/MOL
REMARK 924 INTRA-LIGAND FREE ENERGY PREDICTED BY IDOCK:   -0.48 KCAL/MOL
REMARK 927      BINDING AFFINITY PREDICTED BY RF-SCORE:    0.00 PKD
ROOT
HETATM    1  N   UNL     1      -7.035  19.018  65.418  1.00  0.00    -0.484 NA 
HETATM    2  C   UNL     1      -8.036  18.492  66.167  1.00  0.00    -0.187 C  
HETATM    3  H1  UNL     1      -6.707  19.967  65.599  1.00  0.00     0.000 HD 
HETATM    4  H2  UNL     1      -6.610  18.465  64.674  1.00  0.00     0.000 HD 
HETATM    5  N   UNL     1      -8.456  17.277  65.934  1.00  0.00    -0.542 NA 
HETATM    6  C   UNL     1      -9.471  16.896  66.747  1.00  0.00    -0.255 A  
HETATM    7  C   UNL     1     -10.078  17.619  67.749  1.00  0.00    -0.338 A  
HETATM    8  N   UNL     1     -11.085  16.900  68.344  1.00  0.00    -0.297 NA 
HETATM    9  C   UNL     1      -9.593  18.958  68.005  1.00  0.00    -0.322 C  
HETATM   10  N   UNL     1      -8.551  19.308  67.155  1.00  0.00    -0.281 N  
HETATM   11  O   UNL     1     -10.019  19.730  68.857  1.00  0.00    -0.441 OA 
HETATM   12  C   UNL     1     -11.089  15.748  67.705  1.00  0.00    -0.313 A  
HETATM   13  N   UNL     1     -10.122  15.697  66.734  1.00  0.00    -0.265 NA 
HETATM   14  H   UNL     1      -8.138  20.234  67.269  1.00  0.00     0.000 HD 
ENDROOT
BRANCH  13  15
HETATM   15  C   UNL     1      -9.807  14.557  65.901  1.00  0.00    -0.321 C  
BRANCH  15  16
HETATM   16  O   UNL     1     -10.623  14.503  64.724  1.00  0.00    -0.425 OA 
BRANCH  16  17
HETATM   17  C   UNL     1     -11.720  13.561  64.756  1.00  0.00    -0.370 C  
BRANCH  17  18
HETATM   18  C   UNL     1     -12.104  13.039  63.364  1.00  0.00    -0.515 C  
HETATM   19  H   UNL     1     -13.292  11.655  62.587  1.00  0.00     0.000 HD 
HETATM   20  O   UNL     1     -13.054  11.978  63.449  1.00  0.00    -0.747 OA 
ENDBRANCH  17  18
BRANCH  17  21
HETATM   21  C   UNL     1     -11.274  12.390  65.649  1.00  0.00    -0.322 C  
HETATM   22  O   UNL     1     -12.251  12.138  66.659  1.00  0.00    -0.566 OA 
HETATM   23  H   UNL     1     -11.975  11.415  67.211  1.00  0.00     0.000 HD 
ENDBRANCH  17  21
ENDBRANCH  16  17
ENDBRANCH  15  16
ENDBRANCH  13  15
TORSDOF 5
ENDMDL
MODEL       37
REMARK 921   NORMALIZED FREE ENERGY PREDICTED BY IDOCK:   -5.40 KCAL/MOL
REMARK 922        TOTAL FREE ENERGY PREDICTED BY IDOCK:   -7.46 KCAL/MOL
REMARK 923 INTER-LIGAND FREE ENERGY PREDICTED BY IDOCK:   -7.20 KCAL/MOL
REMARK 924 INTRA-LIGAND FREE ENERGY PREDICTED BY IDOCK:   -0.25 KCAL/MOL
REMARK 927      BINDING AFFINITY PREDICTED BY RF-SCORE:    0.00 PKD
ROOT
HETATM    1  N   UNL     1     -12.279   9.899  70.630  1.00  0.00    -0.406 NA 
HETATM    2  C   UNL     1     -12.430  11.245  70.704  1.00  0.00    -0.348 C  
HETATM    3  H1  UNL     1     -12.750   9.296  71.304  1.00  0.00     0.000 HD 
HETATM    4  H2  UNL     1     -11.695   9.491  69.900  1.00  0.00     0.000 HD 
HETATM    5  N   UNL     1     -11.827  12.018  69.840  1.00  0.00    -0.337 NA 
HETATM    6  C   UNL     1     -12.056  13.337  70.051  1.00  0.00    -0.315 A  
HETATM    7  C   UNL     1     -12.824  13.924  71.032  1.00  0.00    -0.324 A  
HETATM    8  N   UNL     1     -12.801  15.292  70.932  1.00  0.00    -0.418 NA 
HETATM    9  C   UNL     1     -13.497  13.055  71.972  1.00  0.00    -0.492 C  
HETATM   10  N   UNL     1     -13.241  11.712  71.720  1.00  0.00    -0.421 N  
HETATM   11  O   UNL     1     -14.216  13.412  72.899  1.00  0.00    -0.529 OA 
HETATM   12  C   UNL     1     -12.022  15.535  69.898  1.00  0.00    -0.362 A  
HETATM   13  N   UNL     1     -11.555  14.379  69.327  1.00  0.00    -0.284 NA 
HETATM   14  H   UNL     1     -13.683  11.024  72.329  1.00  0.00     0.000 HD 
ENDROOT
BRANCH  13  15
HETATM   15  C   UNL     1     -10.739  14.283  68.136  1.00  0.00    -0.244 C  
BRANCH  15  16
HETATM   16  O   UNL     1     -11.164  15.191  67.112  1.00  0.00    -0.335 OA 
BRANCH  16  17
HETATM   17  C   UNL     1     -10.240  15.392  66.018  1.00  0.00    -0.324 C  
BRANCH  17  18
HETATM   18  C   UNL     1     -10.925  15.383  64.643  1.00  0.00    -0.314 C  
HETATM   19  H   UNL     1     -11.850  16.668  63.451  1.00  0.00     0.000 HD 
HETATM   20  O   UNL     1     -11.426  16.674  64.302  1.00  0.00    -1.075 OA 
ENDBRANCH  17  18
BRANCH  17  21
HETATM   21  C   UNL     1      -9.561  16.753  66.255  1.00  0.00    -0.289 C  
HETATM   22  O   UNL     1      -8.163  16.663  65.974  1.00  0.00    -0.386 OA 
HETATM   23  H   UNL     1      -7.744  17.503  66.120  1.00  0.00     0.000 HD 
ENDBRANCH  17  21
ENDBRANCH  16  17
ENDBRANCH  15  16
ENDBRANCH  13  15
TORSDOF 5
ENDMDL
MODEL       38
REMARK 921   NORMALIZED FREE ENERGY PREDICTED BY IDOCK:   -5.38 KCAL/MOL
REMARK 922        TOTAL FREE ENERGY PREDICTED BY IDOCK:   -7.43 KCAL/MOL
REMARK 923 INTER-LIGAND FREE ENERGY PREDICTED BY IDOCK:   -6.48 KCAL/MOL
REMARK 924 INTRA-LIGAND FREE ENERGY PREDICTED BY IDOCK:   -0.95 KCAL/MOL
REMARK 927      BINDING AFFINITY PREDICTED BY RF-SCORE:    0.00 PKD
ROOT
HETATM    1  N   UNL     1     -11.191   9.100  68.722  1.00  0.00    -0.427 NA 
HETATM    2  C   UNL     1     -11.770   9.972  69.585  1.00  0.00    -0.034 C  
HETATM    3  H1  UNL     1     -11.294   8.096  68.866  1.00  0.00     0.000 HD 
HETATM    4  H2  UNL     1     -10.652   9.450  67.929  1.00  0.00     0.000 HD 
HETATM    5  N   UNL     1     -11.638  11.259  69.401  1.00  0.00    -0.289 NA 
HETATM    6  C   UNL     1     -12.255  12.002  70.351  1.00  0.00    -0.294 A  
HETATM    7  C   UNL     1     -12.975  11.566  71.441  1.00  0.00    -0.348 A  
HETATM    8  N   UNL     1     -13.435  12.620  72.190  1.00  0.00    -0.531 NA 
HETATM    9  C   UNL     1     -13.125  10.139  71.624  1.00  0.00    -0.447 C  
HETATM   10  N   UNL     1     -12.484   9.413  70.628  1.00  0.00    -0.492 N  
HETATM   11  O   UNL     1     -13.734   9.588  72.535  1.00  0.00    -0.424 OA 
HETATM   12  C   UNL     1     -12.994  13.690  71.560  1.00  0.00    -0.360 A  
HETATM   13  N   UNL     1     -12.280  13.364  70.434  1.00  0.00    -0.356 NA 
HETATM   14  H   UNL     1     -12.544   8.396  70.670  1.00  0.00     0.000 HD 
ENDROOT
BRANCH  13  15
HETATM   15  C   UNL     1     -11.721  14.293  69.478  1.00  0.00    -0.316 C  
BRANCH  15  16
HETATM   16  O   UNL     1     -12.411  14.261  68.222  1.00  0.00    -0.224 OA 
BRANCH  16  17
HETATM   17  C   UNL     1     -11.586  14.388  67.041  1.00  0.00    -0.384 C  
BRANCH  17  18
HETATM   18  C   UNL     1     -10.087  14.232  67.336  1.00  0.00    -0.247 C  
HETATM   19  H   UNL     1      -8.542  13.223  66.612  1.00  0.00     0.000 HD 
HETATM   20  O   UNL     1      -9.470  13.320  66.429  1.00  0.00    -0.258 OA 
ENDBRANCH  17  18
BRANCH  17  21
HETATM   21  C   UNL     1     -12.043  13.294  66.061  1.00  0.00    -0.436 C  
HETATM   22  O   UNL     1     -12.067  12.023  66.714  1.00  0.00    -0.613 OA 
HETATM   23  H   UNL     1     -12.349  11.348  66.108  1.00  0.00     0.000 HD 
ENDBRANCH  17  21
ENDBRANCH  16  17
ENDBRANCH  15  16
ENDBRANCH  13  15
TORSDOF 5
ENDMDL
MODEL       39
REMARK 921   NORMALIZED FREE ENERGY PREDICTED BY IDOCK:   -5.37 KCAL/MOL
REMARK 922        TOTAL FREE ENERGY PREDICTED BY IDOCK:   -7.42 KCAL/MOL
REMARK 923 INTER-LIGAND FREE ENERGY PREDICTED BY IDOCK:   -7.03 KCAL/MOL
REMARK 924 INTRA-LIGAND FREE ENERGY PREDICTED BY IDOCK:   -0.39 KCAL/MOL
REMARK 927      BINDING AFFINITY PREDICTED BY RF-SCORE:    0.00 PKD
ROOT
HETATM    1  N   UNL     1     -11.564  13.256  69.866  1.00  0.00    -0.489 NA 
HETATM    2  C   UNL     1     -11.507  13.681  68.579  1.00  0.00    -0.312 C  
HETATM    3  H1  UNL     1     -11.983  12.353  70.087  1.00  0.00     0.000 HD 
HETATM    4  H2  UNL     1     -11.188  13.840  70.613  1.00  0.00     0.000 HD 
HETATM    5  N   UNL     1     -10.970  14.838  68.297  1.00  0.00    -0.250 NA 
HETATM    6  C   UNL     1     -11.001  15.135  66.975  1.00  0.00    -0.322 A  
HETATM    7  C   UNL     1     -11.513  14.380  65.943  1.00  0.00    -0.341 A  
HETATM    8  N   UNL     1     -11.377  15.024  64.739  1.00  0.00    -0.412 NA 
HETATM    9  C   UNL     1     -12.091  13.095  66.269  1.00  0.00    -0.397 C  
HETATM   10  N   UNL     1     -12.036  12.826  67.631  1.00  0.00    -0.331 N  
HETATM   11  O   UNL     1     -12.585  12.303  65.474  1.00  0.00    -0.548 OA 
HETATM   12  C   UNL     1     -10.788  16.163  65.038  1.00  0.00    -0.363 A  
HETATM   13  N   UNL     1     -10.533  16.271  66.382  1.00  0.00    -0.306 NA 
HETATM   14  H   UNL     1     -12.412  11.935  67.954  1.00  0.00     0.000 HD 
ENDROOT
BRANCH  13  15
HETATM   15  C   UNL     1      -9.835  17.356  67.035  1.00  0.00    -0.286 C  
BRANCH  15  16
HETATM   16  O   UNL     1      -9.048  18.126  66.118  1.00  0.00    -0.478 OA 
BRANCH  16  17
HETATM   17  C   UNL     1      -9.087  19.560  66.297  1.00  0.00    -0.360 C  
BRANCH  17  18
HETATM   18  C   UNL     1     -10.404  20.053  66.914  1.00  0.00    -0.436 C  
HETATM   19  H   UNL     1     -11.085  20.586  68.697  1.00  0.00     0.000 HD 
HETATM   20  O   UNL     1     -10.270  20.281  68.315  1.00  0.00    -0.384 OA 
ENDBRANCH  17  18
BRANCH  17  21
HETATM   21  C   UNL     1      -7.909  19.925  67.218  1.00  0.00    -0.284 C  
HETATM   22  O   UNL     1      -7.661  21.330  67.172  1.00  0.00    -0.732 OA 
HETATM   23  H   UNL     1      -6.934  21.555  67.740  1.00  0.00     0.000 HD 
ENDBRANCH  17  21
ENDBRANCH  16  17
ENDBRANCH  15  16
ENDBRANCH  13  15
TORSDOF 5
ENDMDL
MODEL       40
REMARK 921   NORMALIZED FREE ENERGY PREDICTED BY IDOCK:   -5.36 KCAL/MOL
REMARK 922        TOTAL FREE ENERGY PREDICTED BY IDOCK:   -7.42 KCAL/MOL
REMARK 923 INTER-LIGAND FREE ENERGY PREDICTED BY IDOCK:   -7.15 KCAL/MOL
REMARK 924 INTRA-LIGAND FREE ENERGY PREDICTED BY IDOCK:   -0.26 KCAL/MOL
REMARK 927      BINDING AFFINITY PREDICTED BY RF-SCORE:    0.00 PKD
ROOT
HETATM    1  N   UNL     1     -11.769  16.331  63.749  1.00  0.00    -1.488 NA 
HETATM    2  C   UNL     1     -11.562  15.055  64.159  1.00  0.00    -0.050 C  
HETATM    3  H1  UNL     1     -12.520  16.539  63.091  1.00  0.00     0.000 HD 
HETATM    4  H2  UNL     1     -11.174  17.082  64.099  1.00  0.00     0.000 HD 
HETATM    5  N   UNL     1     -10.600  14.788  65.002  1.00  0.00    -0.414 NA 
HETATM    6  C   UNL     1     -10.502  13.471  65.304  1.00  0.00    -0.336 A  
HETATM    7  C   UNL     1     -11.275  12.430  64.840  1.00  0.00    -0.311 A  
HETATM    8  N   UNL     1     -10.861  11.229  65.361  1.00  0.00    -0.231 NA 
HETATM    9  C   UNL     1     -12.345  12.742  63.918  1.00  0.00    -0.426 C  
HETATM   10  N   UNL     1     -12.415  14.101  63.638  1.00  0.00    -1.071 N  
HETATM   11  O   UNL     1     -13.123  11.938  63.416  1.00  0.00    -0.710 OA 
HETATM   12  C   UNL     1      -9.841  11.540  66.135  1.00  0.00    -0.221 A  
HETATM   13  N   UNL     1      -9.593  12.889  66.138  1.00  0.00    -0.244 NA 
HETATM   14  H   UNL     1     -13.148  14.417  63.004  1.00  0.00     0.000 HD 
ENDROOT
BRANCH  13  15
HETATM   15  C   UNL     1      -8.596  13.573  66.933  1.00  0.00    -0.099 C  
BRANCH  15  16
HETATM   16  O   UNL     1      -9.183  14.464  67.890  1.00  0.00    -0.184 OA 
BRANCH  16  17
HETATM   17  C   UNL     1      -8.766  15.847  67.807  1.00  0.00    -0.170 C  
BRANCH  17  18
HETATM   18  C   UNL     1      -9.914  16.799  67.441  1.00  0.00    -0.267 C  
HETATM   19  H   UNL     1     -11.867  16.937  67.747  1.00  0.00     0.000 HD 
HETATM   20  O   UNL     1     -11.157  16.347  67.974  1.00  0.00    -0.348 OA 
ENDBRANCH  17  18
BRANCH  17  21
HETATM   21  C   UNL     1      -8.195  16.221  69.186  1.00  0.00    -0.215 C  
HETATM   22  O   UNL     1      -8.213  15.087  70.054  1.00  0.00    -0.369 OA 
HETATM   23  H   UNL     1      -7.861  15.318  70.905  1.00  0.00     0.000 HD 
ENDBRANCH  17  21
ENDBRANCH  16  17
ENDBRANCH  15  16
ENDBRANCH  13  15
TORSDOF 5
ENDMDL
MODEL       41
REMARK 921   NORMALIZED FREE ENERGY PREDICTED BY IDOCK:   -5.33 KCAL/MOL
REMARK 922        TOTAL FREE ENERGY PREDICTED BY IDOCK:   -7.38 KCAL/MOL
REMARK 923 INTER-LIGAND FREE ENERGY PREDICTED BY IDOCK:   -6.83 KCAL/MOL
REMARK 924 INTRA-LIGAND FREE ENERGY PREDICTED BY IDOCK:   -0.55 KCAL/MOL
REMARK 927      BINDING AFFINITY PREDICTED BY RF-SCORE:    0.00 PKD
ROOT
HETATM    1  N   UNL     1     -11.478  16.091  68.725  1.00  0.00    -0.377 NA 
HETATM    2  C   UNL     1     -12.011  15.277  69.670  1.00  0.00    -0.338 C  
HETATM    3  H1  UNL     1     -11.625  17.099  68.778  1.00  0.00     0.000 HD 
HETATM    4  H2  UNL     1     -10.929  15.696  67.961  1.00  0.00     0.000 HD 
HETATM    5  N   UNL     1     -11.822  13.986  69.602  1.00  0.00    -0.309 NA 
HETATM    6  C   UNL     1     -12.429  13.303  70.602  1.00  0.00    -0.298 A  
HETATM    7  C   UNL     1     -13.188  13.800  71.637  1.00  0.00    -0.371 A  
HETATM    8  N   UNL     1     -13.651  12.793  72.446  1.00  0.00    -0.525 NA 
HETATM    9  C   UNL     1     -13.377  15.233  71.707  1.00  0.00    -0.448 C  
HETATM   10  N   UNL     1     -12.736  15.897  70.669  1.00  0.00    -0.540 N  
HETATM   11  O   UNL     1     -14.019  15.836  72.561  1.00  0.00    -0.545 OA 
HETATM   12  C   UNL     1     -13.178  11.690  71.903  1.00  0.00    -0.369 A  
HETATM   13  N   UNL     1     -12.424  11.951  70.788  1.00  0.00    -0.335 NA 
HETATM   14  H   UNL     1     -12.806  16.914  70.643  1.00  0.00     0.000 HD 
ENDROOT
BRANCH  13  15
HETATM   15  C   UNL     1     -11.700  10.978  69.998  1.00  0.00    -0.355 C  
BRANCH  15  16
HETATM   16  O   UNL     1     -11.869   9.644  70.492  1.00  0.00    -0.265 OA 
BRANCH  16  17
HETATM   17  C   UNL     1     -10.655   8.919  70.791  1.00  0.00    -0.226 C  
BRANCH  17  18
HETATM   18  C   UNL     1     -10.553   8.496  72.264  1.00  0.00    -0.338 C  
HETATM   19  H   UNL     1     -11.773   7.938  73.722  1.00  0.00     0.000 HD 
HETATM   20  O   UNL     1     -11.837   8.199  72.810  1.00  0.00    -0.389 OA 
ENDBRANCH  17  18
BRANCH  17  21
HETATM   21  C   UNL     1     -10.648   7.672  69.888  1.00  0.00    -0.235 C  
HETATM   22  O   UNL     1     -11.793   6.862  70.156  1.00  0.00    -0.563 OA 
HETATM   23  H   UNL     1     -11.789   6.092  69.598  1.00  0.00     0.000 HD 
ENDBRANCH  17  21
ENDBRANCH  16  17
ENDBRANCH  15  16
ENDBRANCH  13  15
TORSDOF 5
ENDMDL
MODEL       42
REMARK 921   NORMALIZED FREE ENERGY PREDICTED BY IDOCK:   -5.31 KCAL/MOL
REMARK 922        TOTAL FREE ENERGY PREDICTED BY IDOCK:   -7.35 KCAL/MOL
REMARK 923 INTER-LIGAND FREE ENERGY PREDICTED BY IDOCK:   -6.68 KCAL/MOL
REMARK 924 INTRA-LIGAND FREE ENERGY PREDICTED BY IDOCK:   -0.67 KCAL/MOL
REMARK 927      BINDING AFFINITY PREDICTED BY RF-SCORE:    0.00 PKD
ROOT
HETATM    1  N   UNL     1     -10.688  12.043  68.227  1.00  0.00    -0.215 NA 
HETATM    2  C   UNL     1     -11.097  12.770  67.158  1.00  0.00    -0.277 C  
HETATM    3  H1  UNL     1     -11.027  11.089  68.355  1.00  0.00     0.000 HD 
HETATM    4  H2  UNL     1     -10.041  12.449  68.903  1.00  0.00     0.000 HD 
HETATM    5  N   UNL     1     -10.663  13.991  66.994  1.00  0.00    -0.283 NA 
HETATM    6  C   UNL     1     -11.172  14.598  65.894  1.00  0.00    -0.336 A  
HETATM    7  C   UNL     1     -12.057  14.088  64.971  1.00  0.00    -0.415 A  
HETATM    8  N   UNL     1     -12.354  15.012  64.001  1.00  0.00    -0.732 NA 
HETATM    9  C   UNL     1     -12.518  12.730  65.158  1.00  0.00    -0.501 C  
HETATM   10  N   UNL     1     -11.971  12.142  66.291  1.00  0.00    -0.259 N  
HETATM   11  O   UNL     1     -13.300  12.126  64.430  1.00  0.00    -0.740 OA 
HETATM   12  C   UNL     1     -11.656  16.078  64.335  1.00  0.00    -0.212 A  
HETATM   13  N   UNL     1     -10.917  15.870  65.472  1.00  0.00    -0.283 NA 
HETATM   14  H   UNL     1     -12.232  11.178  66.497  1.00  0.00     0.000 HD 
ENDROOT
BRANCH  13  15
HETATM   15  C   UNL     1      -9.987  16.804  66.069  1.00  0.00    -0.313 C  
BRANCH  15  16
HETATM   16  O   UNL     1     -10.567  17.521  67.166  1.00  0.00    -0.330 OA 
BRANCH  16  17
HETATM   17  C   UNL     1      -9.760  17.612  68.362  1.00  0.00    -0.321 C  
BRANCH  17  18
HETATM   18  C   UNL     1      -9.637  19.046  68.897  1.00  0.00    -0.363 C  
HETATM   19  H   UNL     1     -10.391  20.835  68.497  1.00  0.00     0.000 HD 
HETATM   20  O   UNL     1     -10.467  19.947  68.166  1.00  0.00    -0.424 OA 
ENDBRANCH  17  18
BRANCH  17  21
HETATM   21  C   UNL     1     -10.430  16.716  69.419  1.00  0.00    -0.320 C  
HETATM   22  O   UNL     1     -11.665  16.200  68.919  1.00  0.00    -0.357 OA 
HETATM   23  H   UNL     1     -12.079  15.647  69.571  1.00  0.00     0.000 HD 
ENDBRANCH  17  21
ENDBRANCH  16  17
ENDBRANCH  15  16
ENDBRANCH  13  15
TORSDOF 5
ENDMDL
MODEL       43
REMARK 921   NORMALIZED FREE ENERGY PREDICTED BY IDOCK:   -5.31 KCAL/MOL
REMARK 922        TOTAL FREE ENERGY PREDICTED BY IDOCK:   -7.35 KCAL/MOL
REMARK 923 INTER-LIGAND FREE ENERGY PREDICTED BY IDOCK:   -6.86 KCAL/MOL
REMARK 924 INTRA-LIGAND FREE ENERGY PREDICTED BY IDOCK:   -0.49 KCAL/MOL
REMARK 927      BINDING AFFINITY PREDICTED BY RF-SCORE:    0.00 PKD
ROOT
HETATM    1  N   UNL     1      -9.371  16.402  67.716  1.00  0.00    -0.212 NA 
HETATM    2  C   UNL     1     -10.125  15.698  66.835  1.00  0.00    -0.263 C  
HETATM    3  H1  UNL     1      -9.151  17.381  67.530  1.00  0.00     0.000 HD 
HETATM    4  H2  UNL     1      -9.026  15.954  68.565  1.00  0.00     0.000 HD 
HETATM    5  N   UNL     1     -10.408  14.445  67.073  1.00  0.00    -0.262 NA 
HETATM    6  C   UNL     1     -11.150  13.869  66.096  1.00  0.00    -0.299 A  
HETATM    7  C   UNL     1     -11.619  14.437  64.933  1.00  0.00    -0.395 A  
HETATM    8  N   UNL     1     -12.323  13.530  64.182  1.00  0.00    -0.634 NA 
HETATM    9  C   UNL     1     -11.310  15.829  64.690  1.00  0.00    -0.337 C  
HETATM   10  N   UNL     1     -10.553  16.385  65.715  1.00  0.00    -0.341 N  
HETATM   11  O   UNL     1     -11.651  16.485  63.711  1.00  0.00    -1.109 OA 
HETATM   12  C   UNL     1     -12.279  12.416  64.884  1.00  0.00    -0.418 A  
HETATM   13  N   UNL     1     -11.586  12.576  66.057  1.00  0.00    -0.384 NA 
HETATM   14  H   UNL     1     -10.295  17.368  65.634  1.00  0.00     0.000 HD 
ENDROOT
BRANCH  13  15
HETATM   15  C   UNL     1     -11.411  11.579  67.090  1.00  0.00    -0.284 C  
BRANCH  15  16
HETATM   16  O   UNL     1     -12.067  11.941  68.311  1.00  0.00    -0.485 OA 
BRANCH  16  17
HETATM   17  C   UNL     1     -11.580  11.295  69.509  1.00  0.00    -0.328 C  
BRANCH  17  18
HETATM   18  C   UNL     1     -12.695  10.633  70.332  1.00  0.00    -0.265 C  
HETATM   19  H   UNL     1     -12.893   9.111  71.586  1.00  0.00     0.000 HD 
HETATM   20  O   UNL     1     -12.202   9.521  71.078  1.00  0.00    -0.301 OA 
ENDBRANCH  17  18
BRANCH  17  21
HETATM   21  C   UNL     1     -10.561  10.234  69.058  1.00  0.00    -0.224 C  
HETATM   22  O   UNL     1      -9.586  10.019  70.080  1.00  0.00    -0.314 OA 
HETATM   23  H   UNL     1      -8.957   9.363  69.801  1.00  0.00     0.000 HD 
ENDBRANCH  17  21
ENDBRANCH  16  17
ENDBRANCH  15  16
ENDBRANCH  13  15
TORSDOF 5
ENDMDL
MODEL       44
REMARK 921   NORMALIZED FREE ENERGY PREDICTED BY IDOCK:   -5.28 KCAL/MOL
REMARK 922        TOTAL FREE ENERGY PREDICTED BY IDOCK:   -7.31 KCAL/MOL
REMARK 923 INTER-LIGAND FREE ENERGY PREDICTED BY IDOCK:   -7.27 KCAL/MOL
REMARK 924 INTRA-LIGAND FREE ENERGY PREDICTED BY IDOCK:   -0.04 KCAL/MOL
REMARK 927      BINDING AFFINITY PREDICTED BY RF-SCORE:    0.00 PKD
ROOT
HETATM    1  N   UNL     1     -12.606  15.252  69.681  1.00  0.00    -0.612 NA 
HETATM    2  C   UNL     1     -12.213  13.965  69.518  1.00  0.00    -0.306 C  
HETATM    3  H1  UNL     1     -13.024  15.550  70.563  1.00  0.00     0.000 HD 
HETATM    4  H2  UNL     1     -12.483  15.923  68.923  1.00  0.00     0.000 HD 
HETATM    5  N   UNL     1     -11.677  13.584  68.389  1.00  0.00    -0.338 NA 
HETATM    6  C   UNL     1     -11.353  12.268  68.366  1.00  0.00    -0.292 A  
HETATM    7  C   UNL     1     -11.518  11.332  69.362  1.00  0.00    -0.301 A  
HETATM    8  N   UNL     1     -11.083  10.094  68.961  1.00  0.00    -0.222 NA 
HETATM    9  C   UNL     1     -12.099  11.771  70.612  1.00  0.00    -0.311 C  
HETATM   10  N   UNL     1     -12.413  13.125  70.597  1.00  0.00    -0.321 N  
HETATM   11  O   UNL     1     -12.312  11.070  71.596  1.00  0.00    -0.257 OA 
HETATM   12  C   UNL     1     -10.659  10.277  67.727  1.00  0.00    -0.250 A  
HETATM   13  N   UNL     1     -10.795  11.582  67.327  1.00  0.00    -0.241 NA 
HETATM   14  H   UNL     1     -12.819  13.526  71.441  1.00  0.00     0.000 HD 
ENDROOT
BRANCH  13  15
HETATM   15  C   UNL     1     -10.361  12.139  66.065  1.00  0.00    -0.237 C  
BRANCH  15  16
HETATM   16  O   UNL     1     -10.466  13.568  66.036  1.00  0.00    -0.288 OA 
BRANCH  16  17
HETATM   17  C   UNL     1     -10.973  14.143  64.811  1.00  0.00    -0.400 C  
BRANCH  17  18
HETATM   18  C   UNL     1     -12.344  13.581  64.406  1.00  0.00    -0.337 C  
HETATM   19  H   UNL     1     -14.247  13.857  64.885  1.00  0.00     0.000 HD 
HETATM   20  O   UNL     1     -13.399  14.205  65.136  1.00  0.00    -0.684 OA 
ENDBRANCH  17  18
BRANCH  17  21
HETATM   21  C   UNL     1     -11.078  15.661  65.043  1.00  0.00    -0.389 C  
HETATM   22  O   UNL     1     -11.523  16.314  63.853  1.00  0.00    -1.484 OA 
HETATM   23  H   UNL     1     -11.588  17.251  63.997  1.00  0.00     0.000 HD 
ENDBRANCH  17  21
ENDBRANCH  16  17
ENDBRANCH  15  16
ENDBRANCH  13  15
TORSDOF 5
ENDMDL
MODEL       45
REMARK 921   NORMALIZED FREE ENERGY PREDICTED BY IDOCK:   -5.28 KCAL/MOL
REMARK 922        TOTAL FREE ENERGY PREDICTED BY IDOCK:   -7.31 KCAL/MOL
REMARK 923 INTER-LIGAND FREE ENERGY PREDICTED BY IDOCK:   -7.02 KCAL/MOL
REMARK 924 INTRA-LIGAND FREE ENERGY PREDICTED BY IDOCK:   -0.28 KCAL/MOL
REMARK 927      BINDING AFFINITY PREDICTED BY RF-SCORE:    0.00 PKD
ROOT
HETATM    1  N   UNL     1     -12.064  13.114  70.549  1.00  0.00    -0.489 NA 
HETATM    2  C   UNL     1     -11.549  13.864  69.543  1.00  0.00    -0.301 C  
HETATM    3  H1  UNL     1     -11.707  13.220  71.498  1.00  0.00     0.000 HD 
HETATM    4  H2  UNL     1     -12.809  12.445  70.356  1.00  0.00     0.000 HD 
HETATM    5  N   UNL     1     -12.006  13.729  68.327  1.00  0.00    -0.370 NA 
HETATM    6  C   UNL     1     -11.383  14.528  67.428  1.00  0.00    -0.356 A  
HETATM    7  C   UNL     1     -10.366  15.430  67.648  1.00  0.00    -0.262 A  
HETATM    8  N   UNL     1      -9.982  16.045  66.483  1.00  0.00    -0.265 NA 
HETATM    9  C   UNL     1      -9.880  15.580  69.002  1.00  0.00    -0.235 C  
HETATM   10  N   UNL     1     -10.546  14.748  69.894  1.00  0.00    -0.448 N  
HETATM   11  O   UNL     1      -8.987  16.336  69.369  1.00  0.00    -0.207 OA 
HETATM   12  C   UNL     1     -10.760  15.517  65.560  1.00  0.00    -0.381 A  
HETATM   13  N   UNL     1     -11.631  14.599  66.088  1.00  0.00    -0.355 NA 
HETATM   14  H   UNL     1     -10.276  14.793  70.876  1.00  0.00     0.000 HD 
ENDROOT
BRANCH  13  15
HETATM   15  C   UNL     1     -12.667  13.891  65.367  1.00  0.00    -0.490 C  
BRANCH  15  16
HETATM   16  O   UNL     1     -12.423  12.480  65.312  1.00  0.00    -0.608 OA 
BRANCH  16  17
HETATM   17  C   UNL     1     -11.055  12.082  65.062  1.00  0.00    -0.316 C  
BRANCH  17  18
HETATM   18  C   UNL     1     -10.516  11.093  66.106  1.00  0.00    -0.253 C  
HETATM   19  H   UNL     1     -11.193  10.107  67.686  1.00  0.00     0.000 HD 
HETATM   20  O   UNL     1     -11.527  10.718  67.039  1.00  0.00    -0.349 OA 
ENDBRANCH  17  18
BRANCH  17  21
HETATM   21  C   UNL     1     -11.031  11.433  63.666  1.00  0.00    -0.363 C  
HETATM   22  O   UNL     1     -12.332  11.476  63.078  1.00  0.00    -0.975 OA 
HETATM   23  H   UNL     1     -12.316  11.076  62.216  1.00  0.00     0.000 HD 
ENDBRANCH  17  21
ENDBRANCH  16  17
ENDBRANCH  15  16
ENDBRANCH  13  15
TORSDOF 5
ENDMDL
MODEL       46
REMARK 921   NORMALIZED FREE ENERGY PREDICTED BY IDOCK:   -5.27 KCAL/MOL
REMARK 922        TOTAL FREE ENERGY PREDICTED BY IDOCK:   -7.30 KCAL/MOL
REMARK 923 INTER-LIGAND FREE ENERGY PREDICTED BY IDOCK:   -6.73 KCAL/MOL
REMARK 924 INTRA-LIGAND FREE ENERGY PREDICTED BY IDOCK:   -0.57 KCAL/MOL
REMARK 927      BINDING AFFINITY PREDICTED BY RF-SCORE:    0.00 PKD
ROOT
HETATM    1  N   UNL     1     -14.353   8.763  72.948  1.00  0.00    -1.104 NA 
HETATM    2  C   UNL     1     -13.114   8.897  72.413  1.00  0.00    -0.418 C  
HETATM    3  H1  UNL     1     -14.514   8.091  73.698  1.00  0.00     0.000 HD 
HETATM    4  H2  UNL     1     -15.123   9.334  72.600  1.00  0.00     0.000 HD 
HETATM    5  N   UNL     1     -12.907   9.757  71.451  1.00  0.00    -0.365 NA 
HETATM    6  C   UNL     1     -11.628   9.766  71.006  1.00  0.00    -0.376 A  
HETATM    7  C   UNL     1     -10.568   9.001  71.440  1.00  0.00    -0.323 A  
HETATM    8  N   UNL     1      -9.426   9.282  70.732  1.00  0.00    -0.267 NA 
HETATM    9  C   UNL     1     -10.809   8.063  72.514  1.00  0.00    -0.349 C  
HETATM   10  N   UNL     1     -12.129   8.088  72.946  1.00  0.00    -0.601 N  
HETATM   11  O   UNL     1      -9.979   7.312  73.017  1.00  0.00    -0.186 OA 
HETATM   12  C   UNL     1      -9.791  10.210  69.872  1.00  0.00    -0.177 A  
HETATM   13  N   UNL     1     -11.115  10.542  70.007  1.00  0.00    -0.297 NA 
HETATM   14  H   UNL     1     -12.389   7.465  73.710  1.00  0.00     0.000 HD 
ENDROOT
BRANCH  13  15
HETATM   15  C   UNL     1     -11.818  11.572  69.274  1.00  0.00    -0.348 C  
BRANCH  15  16
HETATM   16  O   UNL     1     -11.692  12.859  69.890  1.00  0.00    -0.304 OA 
BRANCH  16  17
HETATM   17  C   UNL     1     -11.763  13.998  69.001  1.00  0.00    -0.330 C  
BRANCH  17  18
HETATM   18  C   UNL     1     -11.936  15.331  69.745  1.00  0.00    -0.347 C  
HETATM   19  H   UNL     1     -11.166  17.156  69.692  1.00  0.00     0.000 HD 
HETATM   20  O   UNL     1     -11.059  16.331  69.232  1.00  0.00    -0.306 OA 
ENDBRANCH  17  18
BRANCH  17  21
HETATM   21  C   UNL     1     -10.451  14.015  68.197  1.00  0.00    -0.243 C  
HETATM   22  O   UNL     1      -9.330  14.078  69.080  1.00  0.00    -0.396 OA 
HETATM   23  H   UNL     1      -8.520  14.088  68.584  1.00  0.00     0.000 HD 
ENDBRANCH  17  21
ENDBRANCH  16  17
ENDBRANCH  15  16
ENDBRANCH  13  15
TORSDOF 5
ENDMDL
MODEL       47
REMARK 921   NORMALIZED FREE ENERGY PREDICTED BY IDOCK:   -5.26 KCAL/MOL
REMARK 922        TOTAL FREE ENERGY PREDICTED BY IDOCK:   -7.28 KCAL/MOL
REMARK 923 INTER-LIGAND FREE ENERGY PREDICTED BY IDOCK:   -6.66 KCAL/MOL
REMARK 924 INTRA-LIGAND FREE ENERGY PREDICTED BY IDOCK:   -0.61 KCAL/MOL
REMARK 927      BINDING AFFINITY PREDICTED BY RF-SCORE:    0.00 PKD
ROOT
HETATM    1  N   UNL     1     -12.514  13.599  62.609  1.00  0.00    -0.616 NA 
HETATM    2  C   UNL     1     -11.856  12.967  63.613  1.00  0.00    -0.532 C  
HETATM    3  H1  UNL     1     -12.436  13.255  61.653  1.00  0.00     0.000 HD 
HETATM    4  H2  UNL     1     -13.085  14.419  62.811  1.00  0.00     0.000 HD 
HETATM    5  N   UNL     1     -11.955  13.408  64.839  1.00  0.00    -0.360 NA 
HETATM    6  C   UNL     1     -11.229  12.688  65.728  1.00  0.00    -0.312 A  
HETATM    7  C   UNL     1     -10.436  11.588  65.489  1.00  0.00    -0.275 A  
HETATM    8  N   UNL     1      -9.844  11.140  66.644  1.00  0.00    -0.194 NA 
HETATM    9  C   UNL     1     -10.347  11.102  64.130  1.00  0.00    -0.361 C  
HETATM   10  N   UNL     1     -11.108  11.863  63.251  1.00  0.00    -0.674 N  
HETATM   11  O   UNL     1      -9.691  10.138  63.749  1.00  0.00    -0.291 OA 
HETATM   12  C   UNL     1     -10.273  11.965  67.577  1.00  0.00    -0.196 A  
HETATM   13  N   UNL     1     -11.123  12.915  67.069  1.00  0.00    -0.266 NA 
HETATM   14  H   UNL     1     -11.114  11.587  62.269  1.00  0.00     0.000 HD 
ENDROOT
BRANCH  13  15
HETATM   15  C   UNL     1     -11.828  13.924  67.828  1.00  0.00    -0.380 C  
BRANCH  15  16
HETATM   16  O   UNL     1     -11.605  15.244  67.317  1.00  0.00    -0.286 OA 
BRANCH  16  17
HETATM   17  C   UNL     1     -10.288  15.797  67.542  1.00  0.00    -0.280 C  
BRANCH  17  18
HETATM   18  C   UNL     1      -9.529  16.093  66.240  1.00  0.00    -0.316 C  
HETATM   19  H   UNL     1      -9.948  16.676  64.393  1.00  0.00     0.000 HD 
HETATM   20  O   UNL     1     -10.418  16.493  65.199  1.00  0.00    -0.637 OA 
ENDBRANCH  17  18
BRANCH  17  21
HETATM   21  C   UNL     1     -10.485  17.099  68.340  1.00  0.00    -0.376 C  
HETATM   22  O   UNL     1     -10.004  18.215  67.591  1.00  0.00    -0.310 OA 
HETATM   23  H   UNL     1     -10.126  19.019  68.083  1.00  0.00     0.000 HD 
ENDBRANCH  17  21
ENDBRANCH  16  17
ENDBRANCH  15  16
ENDBRANCH  13  15
TORSDOF 5
ENDMDL
MODEL       48
REMARK 921   NORMALIZED FREE ENERGY PREDICTED BY IDOCK:   -5.25 KCAL/MOL
REMARK 922        TOTAL FREE ENERGY PREDICTED BY IDOCK:   -7.27 KCAL/MOL
REMARK 923 INTER-LIGAND FREE ENERGY PREDICTED BY IDOCK:   -6.78 KCAL/MOL
REMARK 924 INTRA-LIGAND FREE ENERGY PREDICTED BY IDOCK:   -0.50 KCAL/MOL
REMARK 927      BINDING AFFINITY PREDICTED BY RF-SCORE:    0.00 PKD
ROOT
HETATM    1  N   UNL     1     -12.748  12.689  63.131  1.00  0.00    -0.677 NA 
HETATM    2  C   UNL     1     -12.286  13.494  64.120  1.00  0.00    -0.394 C  
HETATM    3  H1  UNL     1     -12.855  13.054  62.185  1.00  0.00     0.000 HD 
HETATM    4  H2  UNL     1     -12.990  11.719  63.334  1.00  0.00     0.000 HD 
HETATM    5  N   UNL     1     -12.150  13.026  65.333  1.00  0.00    -0.417 NA 
HETATM    6  C   UNL     1     -11.697  13.950  66.215  1.00  0.00    -0.383 A  
HETATM    7  C   UNL     1     -11.378  15.269  65.981  1.00  0.00    -0.162 A  
HETATM    8  N   UNL     1     -10.968  15.895  67.131  1.00  0.00    -0.267 NA 
HETATM    9  C   UNL     1     -11.519  15.768  64.631  1.00  0.00    -0.282 C  
HETATM   10  N   UNL     1     -11.980  14.791  63.757  1.00  0.00    -0.845 N  
HETATM   11  O   UNL     1     -11.276  16.910  64.254  1.00  0.00    -1.204 OA 
HETATM   12  C   UNL     1     -11.042  14.962  68.059  1.00  0.00    -0.295 A  
HETATM   13  N   UNL     1     -11.471  13.764  67.548  1.00  0.00    -0.312 NA 
HETATM   14  H   UNL     1     -12.102  15.051  62.778  1.00  0.00     0.000 HD 
ENDROOT
BRANCH  13  15
HETATM   15  C   UNL     1     -11.592  12.519  68.274  1.00  0.00    -0.328 C  
BRANCH  15  16
HETATM   16  O   UNL     1     -10.335  12.068  68.793  1.00  0.00    -0.218 OA 
BRANCH  16  17
HETATM   17  C   UNL     1      -9.538  11.250  67.905  1.00  0.00    -0.178 C  
BRANCH  17  18
HETATM   18  C   UNL     1      -8.197  11.899  67.533  1.00  0.00    -0.155 C  
HETATM   19  H   UNL     1      -7.290  13.645  67.770  1.00  0.00     0.000 HD 
HETATM   20  O   UNL     1      -8.121  13.244  68.001  1.00  0.00    -0.133 OA 
ENDBRANCH  17  18
BRANCH  17  21
HETATM   21  C   UNL     1      -9.291   9.917  68.632  1.00  0.00    -0.149 C  
HETATM   22  O   UNL     1      -9.263  10.122  70.046  1.00  0.00    -0.376 OA 
HETATM   23  H   UNL     1      -9.110   9.299  70.495  1.00  0.00     0.000 HD 
ENDBRANCH  17  21
ENDBRANCH  16  17
ENDBRANCH  15  16
ENDBRANCH  13  15
TORSDOF 5
ENDMDL
MODEL       49
REMARK 921   NORMALIZED FREE ENERGY PREDICTED BY IDOCK:   -5.24 KCAL/MOL
REMARK 922        TOTAL FREE ENERGY PREDICTED BY IDOCK:   -7.25 KCAL/MOL
REMARK 923 INTER-LIGAND FREE ENERGY PREDICTED BY IDOCK:   -6.68 KCAL/MOL
REMARK 924 INTRA-LIGAND FREE ENERGY PREDICTED BY IDOCK:   -0.57 KCAL/MOL
REMARK 927      BINDING AFFINITY PREDICTED BY RF-SCORE:    0.00 PKD
ROOT
HETATM    1  N   UNL     1     -13.289  15.252  70.636  1.00  0.00    -0.712 NA 
HETATM    2  C   UNL     1     -12.212  15.269  69.812  1.00  0.00    -0.294 C  
HETATM    3  H1  UNL     1     -13.487  16.056  71.232  1.00  0.00     0.000 HD 
HETATM    4  H2  UNL     1     -13.901  14.437  70.660  1.00  0.00     0.000 HD 
HETATM    5  N   UNL     1     -11.958  14.239  69.048  1.00  0.00    -0.331 NA 
HETATM    6  C   UNL     1     -10.842  14.392  68.296  1.00  0.00    -0.242 A  
HETATM    7  C   UNL     1      -9.986  15.469  68.249  1.00  0.00    -0.213 A  
HETATM    8  N   UNL     1      -8.952  15.248  67.374  1.00  0.00    -0.177 NA 
HETATM    9  C   UNL     1     -10.287  16.608  69.089  1.00  0.00    -0.326 C  
HETATM   10  N   UNL     1     -11.440  16.414  69.840  1.00  0.00    -0.359 N  
HETATM   11  O   UNL     1      -9.633  17.642  69.166  1.00  0.00    -0.171 OA 
HETATM   12  C   UNL     1      -9.178  14.042  66.895  1.00  0.00    -0.260 A  
HETATM   13  N   UNL     1     -10.318  13.488  67.418  1.00  0.00    -0.236 NA 
HETATM   14  H   UNL     1     -11.736  17.170  70.456  1.00  0.00     0.000 HD 
ENDROOT
BRANCH  13  15
HETATM   15  C   UNL     1     -10.894  12.212  67.054  1.00  0.00    -0.247 C  
BRANCH  15  16
HETATM   16  O   UNL     1     -12.144  12.356  66.368  1.00  0.00    -0.607 OA 
BRANCH  16  17
HETATM   17  C   UNL     1     -12.075  12.398  64.924  1.00  0.00    -0.407 C  
BRANCH  17  18
HETATM   18  C   UNL     1     -12.223  13.818  64.357  1.00  0.00    -0.399 C  
HETATM   19  H   UNL     1     -12.677  14.670  62.626  1.00  0.00     0.000 HD 
HETATM   20  O   UNL     1     -12.586  13.792  62.978  1.00  0.00    -0.721 OA 
ENDBRANCH  17  18
BRANCH  17  21
HETATM   21  C   UNL     1     -10.707  11.816  64.528  1.00  0.00    -0.315 C  
HETATM   22  O   UNL     1     -10.011  12.726  63.676  1.00  0.00    -0.661 OA 
HETATM   23  H   UNL     1      -9.166  12.367  63.431  1.00  0.00     0.000 HD 
ENDBRANCH  17  21
ENDBRANCH  16  17
ENDBRANCH  15  16
ENDBRANCH  13  15
TORSDOF 5
ENDMDL
MODEL       50
REMARK 921   NORMALIZED FREE ENERGY PREDICTED BY IDOCK:   -5.23 KCAL/MOL
REMARK 922        TOTAL FREE ENERGY PREDICTED BY IDOCK:   -7.24 KCAL/MOL
REMARK 923 INTER-LIGAND FREE ENERGY PREDICTED BY IDOCK:   -7.11 KCAL/MOL
REMARK 924 INTRA-LIGAND FREE ENERGY PREDICTED BY IDOCK:   -0.14 KCAL/MOL
REMARK 927      BINDING AFFINITY PREDICTED BY RF-SCORE:    0.00 PKD
ROOT
HETATM    1  N   UNL     1     -11.557  16.504  63.898  1.00  0.00    -1.578 NA 
HETATM    2  C   UNL     1     -11.053  16.045  65.070  1.00  0.00    -0.336 C  
HETATM    3  H1  UNL     1     -11.580  17.507  63.710  1.00  0.00     0.000 HD 
HETATM    4  H2  UNL     1     -11.914  15.848  63.203  1.00  0.00     0.000 HD 
HETATM    5  N   UNL     1     -11.025  14.761  65.311  1.00  0.00    -0.350 NA 
HETATM    6  C   UNL     1     -10.513  14.455  66.527  1.00  0.00    -0.289 A  
HETATM    7  C   UNL     1     -10.039  15.313  67.494  1.00  0.00    -0.232 A  
HETATM    8  N   UNL     1      -9.615  14.629  68.605  1.00  0.00    -0.216 NA 
HETATM    9  C   UNL     1     -10.063  16.731  67.208  1.00  0.00    -0.281 C  
HETATM   10  N   UNL     1     -10.590  17.003  65.951  1.00  0.00    -0.282 N  
HETATM   11  O   UNL     1      -9.678  17.625  67.954  1.00  0.00    -0.278 OA 
HETATM   12  C   UNL     1      -9.833  13.362  68.316  1.00  0.00    -0.235 A  
HETATM   13  N   UNL     1     -10.369  13.208  67.063  1.00  0.00    -0.247 NA 
HETATM   14  H   UNL     1     -10.637  17.979  65.659  1.00  0.00     0.000 HD 
ENDROOT
BRANCH  13  15
HETATM   15  C   UNL     1     -10.661  11.953  66.406  1.00  0.00    -0.248 C  
BRANCH  15  16
HETATM   16  O   UNL     1      -9.998  11.834  65.141  1.00  0.00    -0.244 OA 
BRANCH  16  17
HETATM   17  C   UNL     1     -10.778  11.261  64.067  1.00  0.00    -0.377 C  
BRANCH  17  18
HETATM   18  C   UNL     1     -11.719  12.275  63.400  1.00  0.00    -0.457 C  
HETATM   19  H   UNL     1     -13.666  12.508  63.114  1.00  0.00     0.000 HD 
HETATM   20  O   UNL     1     -13.084  11.880  63.527  1.00  0.00    -0.715 OA 
ENDBRANCH  17  18
BRANCH  17  21
HETATM   21  C   UNL     1      -9.777  10.717  63.032  1.00  0.00    -0.340 C  
HETATM   22  O   UNL     1      -8.459  11.182  63.328  1.00  0.00    -0.401 OA 
HETATM   23  H   UNL     1      -7.841  10.846  62.690  1.00  0.00     0.000 HD 
ENDBRANCH  17  21
ENDBRANCH  16  17
ENDBRANCH  15  16
ENDBRANCH  13  15
TORSDOF 5
ENDMDL
MODEL       51
REMARK 921   NORMALIZED FREE ENERGY PREDICTED BY IDOCK:   -5.22 KCAL/MOL
REMARK 922        TOTAL FREE ENERGY PREDICTED BY IDOCK:   -7.23 KCAL/MOL
REMARK 923 INTER-LIGAND FREE ENERGY PREDICTED BY IDOCK:   -6.77 KCAL/MOL
REMARK 924 INTRA-LIGAND FREE ENERGY PREDICTED BY IDOCK:   -0.46 KCAL/MOL
REMARK 927      BINDING AFFINITY PREDICTED BY RF-SCORE:    0.00 PKD
ROOT
HETATM    1  N   UNL     1     -13.381  10.640  71.993  1.00  0.00    -0.515 NA 
HETATM    2  C   UNL     1     -12.358  10.672  71.103  1.00  0.00    -0.400 C  
HETATM    3  H1  UNL     1     -13.370   9.965  72.758  1.00  0.00     0.000 HD 
HETATM    4  H2  UNL     1     -14.160  11.290  71.898  1.00  0.00     0.000 HD 
HETATM    5  N   UNL     1     -12.372  11.536  70.123  1.00  0.00    -0.271 NA 
HETATM    6  C   UNL     1     -11.296  11.437  69.305  1.00  0.00    -0.289 A  
HETATM    7  C   UNL     1     -10.235  10.563  69.394  1.00  0.00    -0.221 A  
HETATM    8  N   UNL     1      -9.343  10.755  68.369  1.00  0.00    -0.160 NA 
HETATM    9  C   UNL     1     -10.226   9.622  70.492  1.00  0.00    -0.287 C  
HETATM   10  N   UNL     1     -11.342   9.759  71.309  1.00  0.00    -0.380 N  
HETATM   11  O   UNL     1      -9.360   8.782  70.717  1.00  0.00    -0.174 OA 
HETATM   12  C   UNL     1      -9.860  11.738  67.661  1.00  0.00    -0.185 A  
HETATM   13  N   UNL     1     -11.040  12.189  68.196  1.00  0.00    -0.230 NA 
HETATM   14  H   UNL     1     -11.415   9.141  72.117  1.00  0.00     0.000 HD 
ENDROOT
BRANCH  13  15
HETATM   15  C   UNL     1     -11.829  13.301  67.712  1.00  0.00    -0.353 C  
BRANCH  15  16
HETATM   16  O   UNL     1     -11.044  14.239  66.965  1.00  0.00    -0.297 OA 
BRANCH  16  17
HETATM   17  C   UNL     1     -11.738  14.954  65.917  1.00  0.00    -0.175 C  
BRANCH  17  18
HETATM   18  C   UNL     1     -10.788  15.671  64.947  1.00  0.00    -0.418 C  
HETATM   19  H   UNL     1     -10.874  17.139  63.619  1.00  0.00     0.000 HD 
HETATM   20  O   UNL     1     -11.462  16.695  64.219  1.00  0.00    -1.075 OA 
ENDBRANCH  17  18
BRANCH  17  21
HETATM   21  C   UNL     1     -12.580  13.916  65.153  1.00  0.00    -0.434 C  
HETATM   22  O   UNL     1     -12.652  14.260  63.769  1.00  0.00    -0.909 OA 
HETATM   23  H   UNL     1     -13.171  13.619  63.297  1.00  0.00     0.000 HD 
ENDBRANCH  17  21
ENDBRANCH  16  17
ENDBRANCH  15  16
ENDBRANCH  13  15
TORSDOF 5
ENDMDL
MODEL       52
REMARK 921   NORMALIZED FREE ENERGY PREDICTED BY IDOCK:   -5.21 KCAL/MOL
REMARK 922        TOTAL FREE ENERGY PREDICTED BY IDOCK:   -7.22 KCAL/MOL
REMARK 923 INTER-LIGAND FREE ENERGY PREDICTED BY IDOCK:   -6.59 KCAL/MOL
REMARK 924 INTRA-LIGAND FREE ENERGY PREDICTED BY IDOCK:   -0.64 KCAL/MOL
REMARK 927      BINDING AFFINITY PREDICTED BY RF-SCORE:    0.00 PKD
ROOT
HETATM    1  N   UNL     1     -12.629  14.199  63.374  1.00  0.00    -1.023 NA 
HETATM    2  C   UNL     1     -11.816  14.800  64.279  1.00  0.00    -0.319 C  
HETATM    3  H1  UNL     1     -13.099  14.757  62.662  1.00  0.00     0.000 HD 
HETATM    4  H2  UNL     1     -12.769  13.190  63.406  1.00  0.00     0.000 HD 
HETATM    5  N   UNL     1     -11.214  14.086  65.192  1.00  0.00    -0.316 NA 
HETATM    6  C   UNL     1     -10.452  14.824  66.034  1.00  0.00    -0.303 A  
HETATM    7  C   UNL     1     -10.252  16.187  66.031  1.00  0.00    -0.356 A  
HETATM    8  N   UNL     1      -9.425  16.573  67.055  1.00  0.00    -0.233 NA 
HETATM    9  C   UNL     1     -10.914  16.963  65.006  1.00  0.00    -0.046 C  
HETATM   10  N   UNL     1     -11.680  16.170  64.160  1.00  0.00    -0.759 N  
HETATM   11  O   UNL     1     -10.841  18.179  64.860  1.00  0.00    -0.666 OA 
HETATM   12  C   UNL     1      -9.126  15.451  67.679  1.00  0.00    -0.182 A  
HETATM   13  N   UNL     1      -9.720  14.364  67.090  1.00  0.00    -0.242 NA 
HETATM   14  H   UNL     1     -12.177  16.632  63.399  1.00  0.00     0.000 HD 
ENDROOT
BRANCH  13  15
HETATM   15  C   UNL     1      -9.544  12.981  67.475  1.00  0.00    -0.204 C  
BRANCH  15  16
HETATM   16  O   UNL     1     -10.155  12.687  68.737  1.00  0.00    -0.165 OA 
BRANCH  16  17
HETATM   17  C   UNL     1     -11.600  12.633  68.745  1.00  0.00    -0.313 C  
BRANCH  17  18
HETATM   18  C   UNL     1     -12.150  11.337  69.358  1.00  0.00    -0.315 C  
HETATM   19  H   UNL     1     -12.899  10.730  71.090  1.00  0.00     0.000 HD 
HETATM   20  O   UNL     1     -12.559  11.532  70.710  1.00  0.00    -0.338 OA 
ENDBRANCH  17  18
BRANCH  17  21
HETATM   21  C   UNL     1     -12.084  13.844  69.562  1.00  0.00    -0.342 C  
HETATM   22  O   UNL     1     -12.620  14.844  68.694  1.00  0.00    -0.466 OA 
HETATM   23  H   UNL     1     -12.919  15.592  69.198  1.00  0.00     0.000 HD 
ENDBRANCH  17  21
ENDBRANCH  16  17
ENDBRANCH  15  16
ENDBRANCH  13  15
TORSDOF 5
ENDMDL
MODEL       53
REMARK 921   NORMALIZED FREE ENERGY PREDICTED BY IDOCK:   -5.19 KCAL/MOL
REMARK 922        TOTAL FREE ENERGY PREDICTED BY IDOCK:   -7.19 KCAL/MOL
REMARK 923 INTER-LIGAND FREE ENERGY PREDICTED BY IDOCK:   -6.71 KCAL/MOL
REMARK 924 INTRA-LIGAND FREE ENERGY PREDICTED BY IDOCK:   -0.48 KCAL/MOL
REMARK 927      BINDING AFFINITY PREDICTED BY RF-SCORE:    0.00 PKD
ROOT
HETATM    1  N   UNL     1     -11.063   5.773  66.403  1.00  0.00    -0.767 NA 
HETATM    2  C   UNL     1     -10.952   6.786  67.299  1.00  0.00    -0.363 C  
HETATM    3  H1  UNL     1     -11.140   4.810  66.729  1.00  0.00     0.000 HD 
HETATM    4  H2  UNL     1     -11.070   5.975  65.403  1.00  0.00     0.000 HD 
HETATM    5  N   UNL     1     -10.854   8.020  66.881  1.00  0.00    -0.149 NA 
HETATM    6  C   UNL     1     -10.730   8.918  67.887  1.00  0.00    -0.121 A  
HETATM    7  C   UNL     1     -10.701   8.681  69.243  1.00  0.00    -0.136 A  
HETATM    8  N   UNL     1     -10.546   9.847  69.951  1.00  0.00    -0.252 NA 
HETATM    9  C   UNL     1     -10.825   7.312  69.692  1.00  0.00    -0.222 C  
HETATM   10  N   UNL     1     -10.954   6.423  68.632  1.00  0.00    -0.374 N  
HETATM   11  O   UNL     1     -10.820   6.930  70.858  1.00  0.00    -0.233 OA 
HETATM   12  C   UNL     1     -10.479  10.786  69.029  1.00  0.00    -0.215 A  
HETATM   13  N   UNL     1     -10.595  10.270  67.763  1.00  0.00    -0.230 NA 
HETATM   14  H   UNL     1     -11.058   5.433  68.854  1.00  0.00     0.000 HD 
ENDROOT
BRANCH  13  15
HETATM   15  C   UNL     1     -10.637  11.028  66.532  1.00  0.00    -0.254 C  
BRANCH  15  16
HETATM   16  O   UNL     1     -11.715  11.973  66.512  1.00  0.00    -0.523 OA 
BRANCH  16  17
HETATM   17  C   UNL     1     -12.184  12.372  65.204  1.00  0.00    -0.384 C  
BRANCH  17  18
HETATM   18  C   UNL     1     -12.336  13.893  65.058  1.00  0.00    -0.430 C  
HETATM   19  H   UNL     1     -12.875  15.191  63.661  1.00  0.00     0.000 HD 
HETATM   20  O   UNL     1     -12.781  14.250  63.751  1.00  0.00    -0.779 OA 
ENDBRANCH  17  18
BRANCH  17  21
HETATM   21  C   UNL     1     -11.156  11.849  64.185  1.00  0.00    -0.375 C  
HETATM   22  O   UNL     1     -11.819  11.383  63.008  1.00  0.00    -0.903 OA 
HETATM   23  H   UNL     1     -11.184  11.061  62.379  1.00  0.00     0.000 HD 
ENDBRANCH  17  21
ENDBRANCH  16  17
ENDBRANCH  15  16
ENDBRANCH  13  15
TORSDOF 5
ENDMDL
MODEL       54
REMARK 921   NORMALIZED FREE ENERGY PREDICTED BY IDOCK:   -5.19 KCAL/MOL
REMARK 922        TOTAL FREE ENERGY PREDICTED BY IDOCK:   -7.19 KCAL/MOL
REMARK 923 INTER-LIGAND FREE ENERGY PREDICTED BY IDOCK:   -6.63 KCAL/MOL
REMARK 924 INTRA-LIGAND FREE ENERGY PREDICTED BY IDOCK:   -0.56 KCAL/MOL
REMARK 927      BINDING AFFINITY PREDICTED BY RF-SCORE:    0.00 PKD
ROOT
HETATM    1  N   UNL     1      -9.871  10.111  63.709  1.00  0.00    -0.476 NA 
HETATM    2  C   UNL     1     -10.278  10.399  64.970  1.00  0.00    -0.264 C  
HETATM    3  H1  UNL     1      -9.450   9.205  63.504  1.00  0.00     0.000 HD 
HETATM    4  H2  UNL     1      -9.986  10.800  62.966  1.00  0.00     0.000 HD 
HETATM    5  N   UNL     1     -10.817  11.560  65.233  1.00  0.00    -0.280 NA 
HETATM    6  C   UNL     1     -11.155  11.711  66.537  1.00  0.00    -0.301 A  
HETATM    7  C   UNL     1     -11.000  10.812  67.568  1.00  0.00    -0.312 A  
HETATM    8  N   UNL     1     -11.448  11.332  68.756  1.00  0.00    -0.264 NA 
HETATM    9  C   UNL     1     -10.415   9.525  67.259  1.00  0.00    -0.262 C  
HETATM   10  N   UNL     1     -10.088   9.408  65.914  1.00  0.00    -0.327 N  
HETATM   11  O   UNL     1     -10.211   8.615  68.055  1.00  0.00    -0.192 OA 
HETATM   12  C   UNL     1     -11.870  12.542  68.448  1.00  0.00    -0.304 A  
HETATM   13  N   UNL     1     -11.720  12.812  67.112  1.00  0.00    -0.369 NA 
HETATM   14  H   UNL     1      -9.677   8.528  65.601  1.00  0.00     0.000 HD 
ENDROOT
BRANCH  13  15
HETATM   15  C   UNL     1     -12.147  14.014  66.430  1.00  0.00    -0.455 C  
BRANCH  15  16
HETATM   16  O   UNL     1     -11.560  15.195  66.992  1.00  0.00    -0.295 OA 
BRANCH  16  17
HETATM   17  C   UNL     1     -10.495  15.801  66.224  1.00  0.00    -0.309 C  
BRANCH  17  18
HETATM   18  C   UNL     1     -10.670  15.624  64.709  1.00  0.00    -0.276 C  
HETATM   19  H   UNL     1     -11.400  16.653  63.181  1.00  0.00     0.000 HD 
HETATM   20  O   UNL     1     -11.292  16.763  64.119  1.00  0.00    -1.194 OA 
ENDBRANCH  17  18
BRANCH  17  21
HETATM   21  C   UNL     1     -10.490  17.299  66.579  1.00  0.00    -0.260 C  
HETATM   22  O   UNL     1      -9.524  17.991  65.786  1.00  0.00    -0.495 OA 
HETATM   23  H   UNL     1      -9.521  18.916  66.005  1.00  0.00     0.000 HD 
ENDBRANCH  17  21
ENDBRANCH  16  17
ENDBRANCH  15  16
ENDBRANCH  13  15
TORSDOF 5
ENDMDL
MODEL       55
REMARK 921   NORMALIZED FREE ENERGY PREDICTED BY IDOCK:   -5.18 KCAL/MOL
REMARK 922        TOTAL FREE ENERGY PREDICTED BY IDOCK:   -7.18 KCAL/MOL
REMARK 923 INTER-LIGAND FREE ENERGY PREDICTED BY IDOCK:   -6.28 KCAL/MOL
REMARK 924 INTRA-LIGAND FREE ENERGY PREDICTED BY IDOCK:   -0.90 KCAL/MOL
REMARK 927      BINDING AFFINITY PREDICTED BY RF-SCORE:    0.00 PKD
ROOT
HETATM    1  N   UNL     1     -14.248   8.855  73.208  1.00  0.00    -1.237 NA 
HETATM    2  C   UNL     1     -13.351   9.368  72.329  1.00  0.00    -0.461 C  
HETATM    3  H1  UNL     1     -14.934   9.465  73.651  1.00  0.00     0.000 HD 
HETATM    4  H2  UNL     1     -14.235   7.859  73.426  1.00  0.00     0.000 HD 
HETATM    5  N   UNL     1     -12.471   8.586  71.763  1.00  0.00    -0.324 NA 
HETATM    6  C   UNL     1     -11.632   9.242  70.925  1.00  0.00    -0.301 A  
HETATM    7  C   UNL     1     -11.608  10.584  70.620  1.00  0.00    -0.352 A  
HETATM    8  N   UNL     1     -10.597  10.879  69.740  1.00  0.00    -0.146 NA 
HETATM    9  C   UNL     1     -12.598  11.435  71.244  1.00  0.00    -0.374 C  
HETATM   10  N   UNL     1     -13.441  10.726  72.090  1.00  0.00    -0.533 N  
HETATM   11  O   UNL     1     -12.717  12.645  71.079  1.00  0.00    -0.324 OA 
HETATM   12  C   UNL     1     -10.008   9.722  69.515  1.00  0.00    -0.214 A  
HETATM   13  N   UNL     1     -10.607   8.699  70.206  1.00  0.00    -0.217 NA 
HETATM   14  H   UNL     1     -14.178  11.244  72.567  1.00  0.00     0.000 HD 
ENDROOT
BRANCH  13  15
HETATM   15  C   UNL     1     -10.259   7.297  70.129  1.00  0.00    -0.203 C  
BRANCH  15  16
HETATM   16  O   UNL     1      -9.129   6.973  70.948  1.00  0.00    -0.152 OA 
BRANCH  16  17
HETATM   17  C   UNL     1      -9.422   6.318  72.204  1.00  0.00    -0.150 C  
BRANCH  17  18
HETATM   18  C   UNL     1      -9.572   7.301  73.374  1.00  0.00    -0.226 C  
HETATM   19  H   UNL     1      -8.897   9.093  73.886  1.00  0.00     0.000 HD 
HETATM   20  O   UNL     1      -8.804   8.485  73.161  1.00  0.00    -0.320 OA 
ENDBRANCH  17  18
BRANCH  17  21
HETATM   21  C   UNL     1     -10.734   5.540  72.003  1.00  0.00    -0.234 C  
HETATM   22  O   UNL     1     -11.710   5.962  72.956  1.00  0.00    -0.508 OA 
HETATM   23  H   UNL     1     -12.520   5.481  72.832  1.00  0.00     0.000 HD 
ENDBRANCH  17  21
ENDBRANCH  16  17
ENDBRANCH  15  16
ENDBRANCH  13  15
TORSDOF 5
ENDMDL
MODEL       56
REMARK 921   NORMALIZED FREE ENERGY PREDICTED BY IDOCK:   -5.17 KCAL/MOL
REMARK 922        TOTAL FREE ENERGY PREDICTED BY IDOCK:   -7.17 KCAL/MOL
REMARK 923 INTER-LIGAND FREE ENERGY PREDICTED BY IDOCK:   -6.71 KCAL/MOL
REMARK 924 INTRA-LIGAND FREE ENERGY PREDICTED BY IDOCK:   -0.46 KCAL/MOL
REMARK 927      BINDING AFFINITY PREDICTED BY RF-SCORE:    0.00 PKD
ROOT
HETATM    1  N   UNL     1      -8.191  10.521  63.996  1.00  0.00    -0.310 NA 
HETATM    2  C   UNL     1      -9.053  10.464  65.041  1.00  0.00    -0.203 C  
HETATM    3  H1  UNL     1      -7.934   9.668  63.499  1.00  0.00     0.000 HD 
HETATM    4  H2  UNL     1      -7.799  11.417  63.706  1.00  0.00     0.000 HD 
HETATM    5  N   UNL     1      -9.382  11.557  65.677  1.00  0.00    -0.222 NA 
HETATM    6  C   UNL     1     -10.235  11.341  66.708  1.00  0.00    -0.226 A  
HETATM    7  C   UNL     1     -10.770  10.147  67.136  1.00  0.00    -0.221 A  
HETATM    8  N   UNL     1     -11.584  10.328  68.227  1.00  0.00    -0.249 NA 
HETATM    9  C   UNL     1     -10.409   8.947  66.413  1.00  0.00    -0.119 C  
HETATM   10  N   UNL     1      -9.539   9.211  65.363  1.00  0.00    -0.457 N  
HETATM   11  O   UNL     1     -10.797   7.811  66.661  1.00  0.00    -0.143 OA 
HETATM   12  C   UNL     1     -11.540  11.623  68.460  1.00  0.00    -0.317 A  
HETATM   13  N   UNL     1     -10.741  12.280  67.559  1.00  0.00    -0.220 NA 
HETATM   14  H   UNL     1      -9.237   8.424  64.789  1.00  0.00     0.000 HD 
ENDROOT
BRANCH  13  15
HETATM   15  C   UNL     1     -10.532  13.709  67.484  1.00  0.00    -0.241 C  
BRANCH  15  16
HETATM   16  O   UNL     1     -11.484  14.353  66.628  1.00  0.00    -0.339 OA 
BRANCH  16  17
HETATM   17  C   UNL     1     -11.062  14.572  65.262  1.00  0.00    -0.353 C  
BRANCH  17  18
HETATM   18  C   UNL     1     -12.059  14.023  64.231  1.00  0.00    -0.445 C  
HETATM   19  H   UNL     1     -13.616  12.799  64.196  1.00  0.00     0.000 HD 
HETATM   20  O   UNL     1     -13.000  13.138  64.835  1.00  0.00    -0.734 OA 
ENDBRANCH  17  18
BRANCH  17  21
HETATM   21  C   UNL     1     -10.909  16.093  65.084  1.00  0.00    -0.361 C  
HETATM   22  O   UNL     1     -11.335  16.483  63.778  1.00  0.00    -1.553 OA 
HETATM   23  H   UNL     1     -11.240  17.422  63.667  1.00  0.00     0.000 HD 
ENDBRANCH  17  21
ENDBRANCH  16  17
ENDBRANCH  15  16
ENDBRANCH  13  15
TORSDOF 5
ENDMDL
MODEL       57
REMARK 921   NORMALIZED FREE ENERGY PREDICTED BY IDOCK:   -5.15 KCAL/MOL
REMARK 922        TOTAL FREE ENERGY PREDICTED BY IDOCK:   -7.13 KCAL/MOL
REMARK 923 INTER-LIGAND FREE ENERGY PREDICTED BY IDOCK:   -6.68 KCAL/MOL
REMARK 924 INTRA-LIGAND FREE ENERGY PREDICTED BY IDOCK:   -0.46 KCAL/MOL
REMARK 927      BINDING AFFINITY PREDICTED BY RF-SCORE:    0.00 PKD
ROOT
HETATM    1  N   UNL     1     -12.892  15.844  70.593  1.00  0.00    -0.635 NA 
HETATM    2  C   UNL     1     -12.555  14.772  69.833  1.00  0.00    -0.174 C  
HETATM    3  H1  UNL     1     -12.929  16.773  70.175  1.00  0.00     0.000 HD 
HETATM    4  H2  UNL     1     -13.108  15.720  71.582  1.00  0.00     0.000 HD 
HETATM    5  N   UNL     1     -12.507  13.581  70.369  1.00  0.00    -0.305 NA 
HETATM    6  C   UNL     1     -12.138  12.614  69.495  1.00  0.00    -0.192 A  
HETATM    7  C   UNL     1     -11.824  12.746  68.160  1.00  0.00    -0.324 A  
HETATM    8  N   UNL     1     -11.480  11.538  67.607  1.00  0.00    -0.437 NA 
HETATM    9  C   UNL     1     -11.895  14.068  67.578  1.00  0.00    -0.407 C  
HETATM   10  N   UNL     1     -12.281  15.028  68.504  1.00  0.00    -0.602 N  
HETATM   11  O   UNL     1     -11.651  14.356  66.411  1.00  0.00    -0.354 OA 
HETATM   12  C   UNL     1     -11.583  10.678  68.600  1.00  0.00    -0.227 A  
HETATM   13  N   UNL     1     -11.988  11.284  69.762  1.00  0.00    -0.336 NA 
HETATM   14  H   UNL     1     -12.367  15.991  68.179  1.00  0.00     0.000 HD 
ENDROOT
BRANCH  13  15
HETATM   15  C   UNL     1     -12.269  10.624  71.018  1.00  0.00    -0.393 C  
BRANCH  15  16
HETATM   16  O   UNL     1     -11.266   9.660  71.362  1.00  0.00    -0.365 OA 
BRANCH  16  17
HETATM   17  C   UNL     1     -11.713   8.530  72.145  1.00  0.00    -0.378 C  
BRANCH  17  18
HETATM   18  C   UNL     1     -12.391   7.443  71.298  1.00  0.00    -0.346 C  
HETATM   19  H   UNL     1     -12.192   5.500  70.965  1.00  0.00     0.000 HD 
HETATM   20  O   UNL     1     -11.772   6.172  71.489  1.00  0.00    -0.290 OA 
ENDBRANCH  17  18
BRANCH  17  21
HETATM   21  C   UNL     1     -10.468   7.951  72.840  1.00  0.00    -0.355 C  
HETATM   22  O   UNL     1     -10.835   7.324  74.070  1.00  0.00    -0.556 OA 
HETATM   23  H   UNL     1     -10.067   6.966  74.499  1.00  0.00     0.000 HD 
ENDBRANCH  17  21
ENDBRANCH  16  17
ENDBRANCH  15  16
ENDBRANCH  13  15
TORSDOF 5
ENDMDL
MODEL       58
REMARK 921   NORMALIZED FREE ENERGY PREDICTED BY IDOCK:   -5.14 KCAL/MOL
REMARK 922        TOTAL FREE ENERGY PREDICTED BY IDOCK:   -7.13 KCAL/MOL
REMARK 923 INTER-LIGAND FREE ENERGY PREDICTED BY IDOCK:   -6.63 KCAL/MOL
REMARK 924 INTRA-LIGAND FREE ENERGY PREDICTED BY IDOCK:   -0.50 KCAL/MOL
REMARK 927      BINDING AFFINITY PREDICTED BY RF-SCORE:    0.00 PKD
ROOT
HETATM    1  N   UNL     1      -8.389  15.957  67.364  1.00  0.00    -0.162 NA 
HETATM    2  C   UNL     1      -9.434  15.451  66.663  1.00  0.00    -0.259 C  
HETATM    3  H1  UNL     1      -8.051  16.899  67.166  1.00  0.00     0.000 HD 
HETATM    4  H2  UNL     1      -7.941  15.396  68.089  1.00  0.00     0.000 HD 
HETATM    5  N   UNL     1      -9.867  14.245  66.917  1.00  0.00    -0.256 NA 
HETATM    6  C   UNL     1     -10.901  13.869  66.127  1.00  0.00    -0.290 A  
HETATM    7  C   UNL     1     -11.519  14.592  65.130  1.00  0.00    -0.368 A  
HETATM    8  N   UNL     1     -12.523  13.867  64.537  1.00  0.00    -0.636 NA 
HETATM    9  C   UNL     1     -11.039  15.931  64.871  1.00  0.00    -0.389 C  
HETATM   10  N   UNL     1      -9.983  16.279  65.703  1.00  0.00    -0.317 N  
HETATM   11  O   UNL     1     -11.477  16.704  64.025  1.00  0.00    -1.192 OA 
HETATM   12  C   UNL     1     -12.512  12.711  65.168  1.00  0.00    -0.463 A  
HETATM   13  N   UNL     1     -11.551  12.670  66.146  1.00  0.00    -0.371 NA 
HETATM   14  H   UNL     1      -9.585  17.212  65.599  1.00  0.00     0.000 HD 
ENDROOT
BRANCH  13  15
HETATM   15  C   UNL     1     -11.319  11.582  67.071  1.00  0.00    -0.269 C  
BRANCH  15  16
HETATM   16  O   UNL     1     -10.125  10.852  66.762  1.00  0.00    -0.201 OA 
BRANCH  16  17
HETATM   17  C   UNL     1     -10.279   9.742  65.849  1.00  0.00    -0.174 C  
BRANCH  17  18
HETATM   18  C   UNL     1      -9.384   9.858  64.606  1.00  0.00    -0.277 C  
HETATM   19  H   UNL     1      -8.839  11.255  63.311  1.00  0.00     0.000 HD 
HETATM   20  O   UNL     1      -9.393  11.183  64.080  1.00  0.00    -0.213 OA 
ENDBRANCH  17  18
BRANCH  17  21
HETATM   21  C   UNL     1      -9.920   8.468  66.635  1.00  0.00    -0.293 C  
HETATM   22  O   UNL     1     -11.078   7.949  67.290  1.00  0.00    -0.496 OA 
HETATM   23  H   UNL     1     -10.856   7.162  67.775  1.00  0.00     0.000 HD 
ENDBRANCH  17  21
ENDBRANCH  16  17
ENDBRANCH  15  16
ENDBRANCH  13  15
TORSDOF 5
ENDMDL
MODEL       59
REMARK 921   NORMALIZED FREE ENERGY PREDICTED BY IDOCK:   -5.13 KCAL/MOL
REMARK 922        TOTAL FREE ENERGY PREDICTED BY IDOCK:   -7.12 KCAL/MOL
REMARK 923 INTER-LIGAND FREE ENERGY PREDICTED BY IDOCK:   -6.78 KCAL/MOL
REMARK 924 INTRA-LIGAND FREE ENERGY PREDICTED BY IDOCK:   -0.34 KCAL/MOL
REMARK 927      BINDING AFFINITY PREDICTED BY RF-SCORE:    0.00 PKD
ROOT
HETATM    1  N   UNL     1     -12.608  10.546  71.055  1.00  0.00    -0.366 NA 
HETATM    2  C   UNL     1     -11.997  10.595  69.845  1.00  0.00    -0.310 C  
HETATM    3  H1  UNL     1     -12.569   9.692  71.612  1.00  0.00     0.000 HD 
HETATM    4  H2  UNL     1     -13.106  11.363  71.409  1.00  0.00     0.000 HD 
HETATM    5  N   UNL     1     -12.048  11.689  69.133  1.00  0.00    -0.296 NA 
HETATM    6  C   UNL     1     -11.410  11.582  67.942  1.00  0.00    -0.303 A  
HETATM    7  C   UNL     1     -10.743  10.494  67.426  1.00  0.00    -0.281 A  
HETATM    8  N   UNL     1     -10.238  10.763  66.178  1.00  0.00    -0.244 NA 
HETATM    9  C   UNL     1     -10.683   9.294  68.232  1.00  0.00    -0.145 C  
HETATM   10  N   UNL     1     -11.343   9.446  69.445  1.00  0.00    -0.438 N  
HETATM   11  O   UNL     1     -10.130   8.244  67.925  1.00  0.00    -0.182 OA 
HETATM   12  C   UNL     1     -10.599  12.006  65.937  1.00  0.00    -0.265 A  
HETATM   13  N   UNL     1     -11.304  12.547  66.982  1.00  0.00    -0.308 NA 
HETATM   14  H   UNL     1     -11.345   8.652  70.086  1.00  0.00     0.000 HD 
ENDROOT
BRANCH  13  15
HETATM   15  C   UNL     1     -11.784  13.908  67.076  1.00  0.00    -0.397 C  
BRANCH  15  16
HETATM   16  O   UNL     1     -10.716  14.863  67.068  1.00  0.00    -0.294 OA 
BRANCH  16  17
HETATM   17  C   UNL     1     -10.910  16.026  66.231  1.00  0.00    -0.166 C  
BRANCH  17  18
HETATM   18  C   UNL     1      -9.811  17.084  66.407  1.00  0.00    -0.299 C  
HETATM   19  H   UNL     1      -7.940  17.373  65.824  1.00  0.00     0.000 HD 
HETATM   20  O   UNL     1      -8.620  16.718  65.714  1.00  0.00    -0.485 OA 
ENDBRANCH  17  18
BRANCH  17  21
HETATM   21  C   UNL     1     -10.927  15.527  64.775  1.00  0.00    -0.399 C  
HETATM   22  O   UNL     1     -11.536  16.501  63.926  1.00  0.00    -1.598 OA 
HETATM   23  H   UNL     1     -11.547  16.193  63.027  1.00  0.00     0.000 HD 
ENDBRANCH  17  21
ENDBRANCH  16  17
ENDBRANCH  15  16
ENDBRANCH  13  15
TORSDOF 5
ENDMDL
MODEL       60
REMARK 921   NORMALIZED FREE ENERGY PREDICTED BY IDOCK:   -5.13 KCAL/MOL
REMARK 922        TOTAL FREE ENERGY PREDICTED BY IDOCK:   -7.11 KCAL/MOL
REMARK 923 INTER-LIGAND FREE ENERGY PREDICTED BY IDOCK:   -6.45 KCAL/MOL
REMARK 924 INTRA-LIGAND FREE ENERGY PREDICTED BY IDOCK:   -0.65 KCAL/MOL
REMARK 927      BINDING AFFINITY PREDICTED BY RF-SCORE:    0.00 PKD
ROOT
HETATM    1  N   UNL     1     -12.458  11.529  63.183  1.00  0.00    -0.911 NA 
HETATM    2  C   UNL     1     -11.959  12.551  63.922  1.00  0.00    -0.480 C  
HETATM    3  H1  UNL     1     -13.064  11.723  62.387  1.00  0.00     0.000 HD 
HETATM    4  H2  UNL     1     -12.225  10.565  63.424  1.00  0.00     0.000 HD 
HETATM    5  N   UNL     1     -11.182  12.302  64.942  1.00  0.00    -0.311 NA 
HETATM    6  C   UNL     1     -10.779  13.419  65.594  1.00  0.00    -0.277 A  
HETATM    7  C   UNL     1     -11.084  14.731  65.308  1.00  0.00    -0.370 A  
HETATM    8  N   UNL     1     -10.500  15.587  66.207  1.00  0.00    -0.297 NA 
HETATM    9  C   UNL     1     -11.934  14.992  64.167  1.00  0.00    -0.201 C  
HETATM   10  N   UNL     1     -12.322  13.824  63.524  1.00  0.00    -1.032 N  
HETATM   11  O   UNL     1     -12.298  16.096  63.775  1.00  0.00    -0.864 OA 
HETATM   12  C   UNL     1      -9.846  14.799  67.036  1.00  0.00    -0.239 A  
HETATM   13  N   UNL     1      -9.979  13.477  66.698  1.00  0.00    -0.274 NA 
HETATM   14  H   UNL     1     -12.916  13.912  62.699  1.00  0.00     0.000 HD 
ENDROOT
BRANCH  13  15
HETATM   15  C   UNL     1      -9.334  12.359  67.350  1.00  0.00    -0.181 C  
BRANCH  15  16
HETATM   16  O   UNL     1      -8.217  11.863  66.601  1.00  0.00    -0.163 OA 
BRANCH  16  17
HETATM   17  C   UNL     1      -8.256  10.460  66.256  1.00  0.00    -0.144 C  
BRANCH  17  18
HETATM   18  C   UNL     1      -9.358   9.689  66.997  1.00  0.00    -0.147 C  
HETATM   19  H   UNL     1     -10.919   8.555  66.545  1.00  0.00     0.000 HD 
HETATM   20  O   UNL     1     -10.237   9.032  66.086  1.00  0.00    -0.267 OA 
ENDBRANCH  17  18
BRANCH  17  21
HETATM   21  C   UNL     1      -8.495  10.384  64.737  1.00  0.00    -0.173 C  
HETATM   22  O   UNL     1      -8.026   9.135  64.225  1.00  0.00    -0.124 OA 
HETATM   23  H   UNL     1      -8.174   9.088  63.288  1.00  0.00     0.000 HD 
ENDBRANCH  17  21
ENDBRANCH  16  17
ENDBRANCH  15  16
ENDBRANCH  13  15
TORSDOF 5
ENDMDL
MODEL       61
REMARK 921   NORMALIZED FREE ENERGY PREDICTED BY IDOCK:   -5.08 KCAL/MOL
REMARK 922        TOTAL FREE ENERGY PREDICTED BY IDOCK:   -7.05 KCAL/MOL
REMARK 923 INTER-LIGAND FREE ENERGY PREDICTED BY IDOCK:   -6.35 KCAL/MOL
REMARK 924 INTRA-LIGAND FREE ENERGY PREDICTED BY IDOCK:   -0.70 KCAL/MOL
REMARK 927      BINDING AFFINITY PREDICTED BY RF-SCORE:    0.00 PKD
ROOT
HETATM    1  N   UNL     1     -12.358  14.469  67.464  1.00  0.00    -0.582 NA 
HETATM    2  C   UNL     1     -11.927  13.719  66.419  1.00  0.00    -0.438 C  
HETATM    3  H1  UNL     1     -13.072  15.183  67.319  1.00  0.00     0.000 HD 
HETATM    4  H2  UNL     1     -11.968  14.319  68.395  1.00  0.00     0.000 HD 
HETATM    5  N   UNL     1     -11.013  12.805  66.605  1.00  0.00    -0.264 NA 
HETATM    6  C   UNL     1     -10.670  12.151  65.468  1.00  0.00    -0.283 A  
HETATM    7  C   UNL     1     -11.162  12.337  64.196  1.00  0.00    -0.369 A  
HETATM    8  N   UNL     1     -10.556  11.495  63.298  1.00  0.00    -0.364 NA 
HETATM    9  C   UNL     1     -12.185  13.343  64.008  1.00  0.00    -0.405 C  
HETATM   10  N   UNL     1     -12.511  13.986  65.196  1.00  0.00    -0.526 N  
HETATM   11  O   UNL     1     -12.728  13.632  62.947  1.00  0.00    -0.577 OA 
HETATM   12  C   UNL     1      -9.699  10.803  64.021  1.00  0.00    -0.313 A  
HETATM   13  N   UNL     1      -9.740  11.161  65.344  1.00  0.00    -0.220 NA 
HETATM   14  H   UNL     1     -13.232  14.706  65.162  1.00  0.00     0.000 HD 
ENDROOT
BRANCH  13  15
HETATM   15  C   UNL     1      -8.986  10.551  66.418  1.00  0.00    -0.159 C  
BRANCH  15  16
HETATM   16  O   UNL     1      -9.203   9.137  66.499  1.00  0.00    -0.155 OA 
BRANCH  16  17
HETATM   17  C   UNL     1     -10.510   8.721  66.956  1.00  0.00    -0.268 C  
BRANCH  17  18
HETATM   18  C   UNL     1     -10.639   7.197  67.101  1.00  0.00    -0.347 C  
HETATM   19  H   UNL     1     -10.496   5.839  68.537  1.00  0.00     0.000 HD 
HETATM   20  O   UNL     1     -10.417   6.782  68.448  1.00  0.00    -0.178 OA 
ENDBRANCH  17  18
BRANCH  17  21
HETATM   21  C   UNL     1     -10.740   9.398  68.319  1.00  0.00    -0.171 C  
HETATM   22  O   UNL     1     -11.832  10.314  68.238  1.00  0.00    -0.734 OA 
HETATM   23  H   UNL     1     -11.974  10.732  69.079  1.00  0.00     0.000 HD 
ENDBRANCH  17  21
ENDBRANCH  16  17
ENDBRANCH  15  16
ENDBRANCH  13  15
TORSDOF 5
ENDMDL
MODEL       62
REMARK 921   NORMALIZED FREE ENERGY PREDICTED BY IDOCK:   -5.07 KCAL/MOL
REMARK 922        TOTAL FREE ENERGY PREDICTED BY IDOCK:   -7.03 KCAL/MOL
REMARK 923 INTER-LIGAND FREE ENERGY PREDICTED BY IDOCK:   -6.60 KCAL/MOL
REMARK 924 INTRA-LIGAND FREE ENERGY PREDICTED BY IDOCK:   -0.43 KCAL/MOL
REMARK 927      BINDING AFFINITY PREDICTED BY RF-SCORE:    0.00 PKD
ROOT
HETATM    1  N   UNL     1     -11.436  10.391  68.323  1.00  0.00    -0.595 NA 
HETATM    2  C   UNL     1     -11.976  11.001  69.408  1.00  0.00    -0.337 C  
HETATM    3  H1  UNL     1     -11.464   9.375  68.243  1.00  0.00     0.000 HD 
HETATM    4  H2  UNL     1     -11.002  10.949  67.588  1.00  0.00     0.000 HD 
HETATM    5  N   UNL     1     -11.940  12.303  69.510  1.00  0.00    -0.295 NA 
HETATM    6  C   UNL     1     -12.501  12.766  70.654  1.00  0.00    -0.246 A  
HETATM    7  C   UNL     1     -13.079  12.044  71.673  1.00  0.00    -0.318 A  
HETATM    8  N   UNL     1     -13.523  12.866  72.678  1.00  0.00    -0.471 NA 
HETATM    9  C   UNL     1     -13.125  10.604  71.539  1.00  0.00    -0.424 C  
HETATM   10  N   UNL     1     -12.546  10.170  70.353  1.00  0.00    -0.516 N  
HETATM   11  O   UNL     1     -13.604   9.818  72.350  1.00  0.00    -0.407 OA 
HETATM   12  C   UNL     1     -13.213  14.080  72.272  1.00  0.00    -0.464 A  
HETATM   13  N   UNL     1     -12.599  14.069  71.046  1.00  0.00    -0.346 NA 
HETATM   14  H   UNL     1     -12.541   9.167  70.168  1.00  0.00     0.000 HD 
ENDROOT
BRANCH  13  15
HETATM   15  C   UNL     1     -12.196  15.229  70.281  1.00  0.00    -0.363 C  
BRANCH  15  16
HETATM   16  O   UNL     1     -10.773  15.319  70.141  1.00  0.00    -0.277 OA 
BRANCH  16  17
HETATM   17  C   UNL     1     -10.288  15.762  68.853  1.00  0.00    -0.224 C  
BRANCH  17  18
HETATM   18  C   UNL     1     -11.103  15.200  67.678  1.00  0.00    -0.318 C  
HETATM   19  H   UNL     1     -10.949  13.743  66.345  1.00  0.00     0.000 HD 
HETATM   20  O   UNL     1     -10.445  14.090  67.072  1.00  0.00    -0.271 OA 
ENDBRANCH  17  18
BRANCH  17  21
HETATM   21  C   UNL     1     -10.365  17.299  68.855  1.00  0.00    -0.352 C  
HETATM   22  O   UNL     1     -10.719  17.778  67.556  1.00  0.00    -0.375 OA 
HETATM   23  H   UNL     1     -10.766  18.727  67.558  1.00  0.00     0.000 HD 
ENDBRANCH  17  21
ENDBRANCH  16  17
ENDBRANCH  15  16
ENDBRANCH  13  15
TORSDOF 5
ENDMDL
MODEL       63
REMARK 921   NORMALIZED FREE ENERGY PREDICTED BY IDOCK:   -5.06 KCAL/MOL
REMARK 922        TOTAL FREE ENERGY PREDICTED BY IDOCK:   -7.03 KCAL/MOL
REMARK 923 INTER-LIGAND FREE ENERGY PREDICTED BY IDOCK:   -6.40 KCAL/MOL
REMARK 924 INTRA-LIGAND FREE ENERGY PREDICTED BY IDOCK:   -0.62 KCAL/MOL
REMARK 927      BINDING AFFINITY PREDICTED BY RF-SCORE:    0.00 PKD
ROOT
HETATM    1  N   UNL     1     -12.239  13.297  70.776  1.00  0.00    -0.451 NA 
HETATM    2  C   UNL     1     -11.888  13.682  69.524  1.00  0.00    -0.337 C  
HETATM    3  H1  UNL     1     -12.609  12.360  70.937  1.00  0.00     0.000 HD 
HETATM    4  H2  UNL     1     -12.132  13.944  71.558  1.00  0.00     0.000 HD 
HETATM    5  N   UNL     1     -11.414  14.882  69.319  1.00  0.00    -0.285 NA 
HETATM    6  C   UNL     1     -11.126  15.129  68.018  1.00  0.00    -0.308 A  
HETATM    7  C   UNL     1     -11.271  14.288  66.938  1.00  0.00    -0.326 A  
HETATM    8  N   UNL     1     -10.888  14.901  65.771  1.00  0.00    -0.326 NA 
HETATM    9  C   UNL     1     -11.783  12.957  67.182  1.00  0.00    -0.377 C  
HETATM   10  N   UNL     1     -12.061  12.742  68.527  1.00  0.00    -0.202 N  
HETATM   11  O   UNL     1     -11.970  12.088  66.337  1.00  0.00    -0.611 OA 
HETATM   12  C   UNL     1     -10.515  16.109  66.142  1.00  0.00    -0.325 A  
HETATM   13  N   UNL     1     -10.633  16.290  67.496  1.00  0.00    -0.309 NA 
HETATM   14  H   UNL     1     -12.418  11.825  68.795  1.00  0.00     0.000 HD 
ENDROOT
BRANCH  13  15
HETATM   15  C   UNL     1     -10.243  17.468  68.239  1.00  0.00    -0.365 C  
BRANCH  15  16
HETATM   16  O   UNL     1     -10.701  18.677  67.621  1.00  0.00    -0.427 OA 
BRANCH  16  17
HETATM   17  C   UNL     1      -9.677  19.628  67.251  1.00  0.00    -0.356 C  
BRANCH  17  18
HETATM   18  C   UNL     1      -8.290  18.987  67.095  1.00  0.00    -0.278 C  
HETATM   19  H   UNL     1      -7.141  18.305  65.632  1.00  0.00     0.000 HD 
HETATM   20  O   UNL     1      -7.999  18.701  65.728  1.00  0.00    -0.487 OA 
ENDBRANCH  17  18
BRANCH  17  21
HETATM   21  C   UNL     1     -10.117  20.255  65.916  1.00  0.00    -0.226 C  
HETATM   22  O   UNL     1     -11.151  19.473  65.318  1.00  0.00    -0.406 OA 
HETATM   23  H   UNL     1     -11.423  19.860  64.494  1.00  0.00     0.000 HD 
ENDBRANCH  17  21
ENDBRANCH  16  17
ENDBRANCH  15  16
ENDBRANCH  13  15
TORSDOF 5
ENDMDL
MODEL       64
REMARK 921   NORMALIZED FREE ENERGY PREDICTED BY IDOCK:   -5.05 KCAL/MOL
REMARK 922        TOTAL FREE ENERGY PREDICTED BY IDOCK:   -7.01 KCAL/MOL
REMARK 923 INTER-LIGAND FREE ENERGY PREDICTED BY IDOCK:   -6.43 KCAL/MOL
REMARK 924 INTRA-LIGAND FREE ENERGY PREDICTED BY IDOCK:   -0.57 KCAL/MOL
REMARK 927      BINDING AFFINITY PREDICTED BY RF-SCORE:    0.00 PKD
ROOT
HETATM    1  N   UNL     1     -12.381  13.327  62.958  1.00  0.00    -0.885 NA 
HETATM    2  C   UNL     1     -12.031  13.592  64.241  1.00  0.00    -0.445 C  
HETATM    3  H1  UNL     1     -12.754  12.411  62.710  1.00  0.00     0.000 HD 
HETATM    4  H2  UNL     1     -12.270  14.043  62.240  1.00  0.00     0.000 HD 
HETATM    5  N   UNL     1     -11.552  14.766  64.558  1.00  0.00    -0.385 NA 
HETATM    6  C   UNL     1     -11.231  14.877  65.870  1.00  0.00    -0.328 A  
HETATM    7  C   UNL     1     -11.352  13.928  66.861  1.00  0.00    -0.328 A  
HETATM    8  N   UNL     1     -10.905  14.407  68.067  1.00  0.00    -0.240 NA 
HETATM    9  C   UNL     1     -11.897  12.638  66.498  1.00  0.00    -0.396 C  
HETATM   10  N   UNL     1     -12.218  12.567  65.148  1.00  0.00    -0.465 N  
HETATM   11  O   UNL     1     -12.072  11.690  67.255  1.00  0.00    -0.595 OA 
HETATM   12  C   UNL     1     -10.513  15.638  67.809  1.00  0.00    -0.273 A  
HETATM   13  N   UNL     1     -10.700  15.969  66.491  1.00  0.00    -0.281 NA 
HETATM   14  H   UNL     1     -12.619  11.695  64.802  1.00  0.00     0.000 HD 
ENDROOT
BRANCH  13  15
HETATM   15  C   UNL     1     -10.446  17.260  65.890  1.00  0.00    -0.262 C  
BRANCH  15  16
HETATM   16  O   UNL     1      -9.833  18.175  66.807  1.00  0.00    -0.304 OA 
BRANCH  16  17
HETATM   17  C   UNL     1      -8.774  19.000  66.268  1.00  0.00    -0.273 C  
BRANCH  17  18
HETATM   18  C   UNL     1      -8.249  20.036  67.272  1.00  0.00    -0.326 C  
HETATM   19  H   UNL     1      -7.840  20.132  69.209  1.00  0.00     0.000 HD 
HETATM   20  O   UNL     1      -8.165  19.491  68.587  1.00  0.00    -0.354 OA 
ENDBRANCH  17  18
BRANCH  17  21
HETATM   21  C   UNL     1      -7.637  18.049  65.854  1.00  0.00    -0.136 C  
HETATM   22  O   UNL     1      -7.145  17.342  66.993  1.00  0.00    -0.159 OA 
HETATM   23  H   UNL     1      -6.443  16.755  66.738  1.00  0.00     0.000 HD 
ENDBRANCH  17  21
ENDBRANCH  16  17
ENDBRANCH  15  16
ENDBRANCH  13  15
TORSDOF 5
ENDMDL
MODEL       65
REMARK 921   NORMALIZED FREE ENERGY PREDICTED BY IDOCK:   -5.03 KCAL/MOL
REMARK 922        TOTAL FREE ENERGY PREDICTED BY IDOCK:   -6.98 KCAL/MOL
REMARK 923 INTER-LIGAND FREE ENERGY PREDICTED BY IDOCK:   -6.44 KCAL/MOL
REMARK 924 INTRA-LIGAND FREE ENERGY PREDICTED BY IDOCK:   -0.54 KCAL/MOL
REMARK 927      BINDING AFFINITY PREDICTED BY RF-SCORE:    0.00 PKD
ROOT
HETATM    1  N   UNL     1     -11.722  10.555  68.865  1.00  0.00    -0.514 NA 
HETATM    2  C   UNL     1     -11.286  10.712  67.590  1.00  0.00    -0.290 C  
HETATM    3  H1  UNL     1     -11.418   9.751  69.413  1.00  0.00     0.000 HD 
HETATM    4  H2  UNL     1     -12.354  11.243  69.276  1.00  0.00     0.000 HD 
HETATM    5  N   UNL     1     -11.675  11.742  66.888  1.00  0.00    -0.584 NA 
HETATM    6  C   UNL     1     -11.174  11.754  65.630  1.00  0.00    -0.267 A  
HETATM    7  C   UNL     1     -10.333  10.838  65.038  1.00  0.00    -0.287 A  
HETATM    8  N   UNL     1     -10.055  11.181  63.739  1.00  0.00    -0.326 NA 
HETATM    9  C   UNL     1      -9.899   9.709  65.832  1.00  0.00    -0.288 C  
HETATM   10  N   UNL     1     -10.430   9.736  67.115  1.00  0.00    -0.254 N  
HETATM   11  O   UNL     1      -9.153   8.809  65.460  1.00  0.00    -0.203 OA 
HETATM   12  C   UNL     1     -10.726  12.298  63.542  1.00  0.00    -0.451 A  
HETATM   13  N   UNL     1     -11.411  12.688  64.664  1.00  0.00    -0.316 NA 
HETATM   14  H   UNL     1     -10.169   8.983  67.752  1.00  0.00     0.000 HD 
ENDROOT
BRANCH  13  15
HETATM   15  C   UNL     1     -12.185  13.901  64.814  1.00  0.00    -0.415 C  
BRANCH  15  16
HETATM   16  O   UNL     1     -11.365  15.076  64.786  1.00  0.00    -0.402 OA 
BRANCH  16  17
HETATM   17  C   UNL     1     -10.434  15.226  65.883  1.00  0.00    -0.331 C  
BRANCH  17  18
HETATM   18  C   UNL     1      -9.661  16.553  65.837  1.00  0.00    -0.270 C  
HETATM   19  H   UNL     1      -9.980  18.422  65.261  1.00  0.00     0.000 HD 
HETATM   20  O   UNL     1     -10.458  17.601  65.289  1.00  0.00    -0.630 OA 
ENDBRANCH  17  18
BRANCH  17  21
HETATM   21  C   UNL     1     -11.258  15.145  67.179  1.00  0.00    -0.320 C  
HETATM   22  O   UNL     1     -11.248  16.405  67.852  1.00  0.00    -0.295 OA 
HETATM   23  H   UNL     1     -11.757  16.355  68.653  1.00  0.00     0.000 HD 
ENDBRANCH  17  21
ENDBRANCH  16  17
ENDBRANCH  15  16
ENDBRANCH  13  15
TORSDOF 5
ENDMDL
MODEL       66
REMARK 921   NORMALIZED FREE ENERGY PREDICTED BY IDOCK:   -5.01 KCAL/MOL
REMARK 922        TOTAL FREE ENERGY PREDICTED BY IDOCK:   -6.95 KCAL/MOL
REMARK 923 INTER-LIGAND FREE ENERGY PREDICTED BY IDOCK:   -6.48 KCAL/MOL
REMARK 924 INTRA-LIGAND FREE ENERGY PREDICTED BY IDOCK:   -0.48 KCAL/MOL
REMARK 927      BINDING AFFINITY PREDICTED BY RF-SCORE:    0.00 PKD
ROOT
HETATM    1  N   UNL     1     -12.704  10.777  71.478  1.00  0.00    -0.421 NA 
HETATM    2  C   UNL     1     -12.003  10.167  70.490  1.00  0.00    -0.311 C  
HETATM    3  H1  UNL     1     -12.975  10.253  72.310  1.00  0.00     0.000 HD 
HETATM    4  H2  UNL     1     -12.961  11.761  71.389  1.00  0.00     0.000 HD 
HETATM    5  N   UNL     1     -11.656  10.839  69.425  1.00  0.00    -0.287 NA 
HETATM    6  C   UNL     1     -10.978  10.094  68.519  1.00  0.00    -0.232 A  
HETATM    7  C   UNL     1     -10.629   8.764  68.598  1.00  0.00    -0.139 A  
HETATM    8  N   UNL     1      -9.959   8.357  67.472  1.00  0.00    -0.184 NA 
HETATM    9  C   UNL     1     -11.007   8.037  69.789  1.00  0.00    -0.137 C  
HETATM   10  N   UNL     1     -11.695   8.836  70.694  1.00  0.00    -0.431 N  
HETATM   11  O   UNL     1     -10.773   6.855  70.019  1.00  0.00    -0.223 OA 
HETATM   12  C   UNL     1      -9.903   9.432  66.713  1.00  0.00    -0.218 A  
HETATM   13  N   UNL     1     -10.501  10.512  67.310  1.00  0.00    -0.235 NA 
HETATM   14  H   UNL     1     -11.994   8.409  71.571  1.00  0.00     0.000 HD 
ENDROOT
BRANCH  13  15
HETATM   15  C   UNL     1     -10.553  11.859  66.786  1.00  0.00    -0.229 C  
BRANCH  15  16
HETATM   16  O   UNL     1     -11.694  12.072  65.947  1.00  0.00    -0.432 OA 
BRANCH  16  17
HETATM   17  C   UNL     1     -11.476  12.888  64.773  1.00  0.00    -0.321 C  
BRANCH  17  18
HETATM   18  C   UNL     1     -11.845  12.171  63.466  1.00  0.00    -0.505 C  
HETATM   19  H   UNL     1     -13.486  11.584  62.522  1.00  0.00     0.000 HD 
HETATM   20  O   UNL     1     -13.258  12.028  63.331  1.00  0.00    -0.687 OA 
ENDBRANCH  17  18
BRANCH  17  21
HETATM   21  C   UNL     1     -12.343  14.148  64.941  1.00  0.00    -0.430 C  
HETATM   22  O   UNL     1     -12.432  14.856  63.704  1.00  0.00    -1.055 OA 
HETATM   23  H   UNL     1     -12.968  15.634  63.808  1.00  0.00     0.000 HD 
ENDBRANCH  17  21
ENDBRANCH  16  17
ENDBRANCH  15  16
ENDBRANCH  13  15
TORSDOF 5
ENDMDL
MODEL       67
REMARK 921   NORMALIZED FREE ENERGY PREDICTED BY IDOCK:   -5.00 KCAL/MOL
REMARK 922        TOTAL FREE ENERGY PREDICTED BY IDOCK:   -6.94 KCAL/MOL
REMARK 923 INTER-LIGAND FREE ENERGY PREDICTED BY IDOCK:   -6.42 KCAL/MOL
REMARK 924 INTRA-LIGAND FREE ENERGY PREDICTED BY IDOCK:   -0.52 KCAL/MOL
REMARK 927      BINDING AFFINITY PREDICTED BY RF-SCORE:    0.00 PKD
ROOT
HETATM    1  N   UNL     1     -11.511  16.282  68.853  1.00  0.00    -0.322 NA 
HETATM    2  C   UNL     1     -12.018  15.462  69.807  1.00  0.00    -0.358 C  
HETATM    3  H1  UNL     1     -11.555  17.294  68.974  1.00  0.00     0.000 HD 
HETATM    4  H2  UNL     1     -11.085  15.887  68.014  1.00  0.00     0.000 HD 
HETATM    5  N   UNL     1     -11.962  14.166  69.652  1.00  0.00    -0.316 NA 
HETATM    6  C   UNL     1     -12.524  13.479  70.675  1.00  0.00    -0.333 A  
HETATM    7  C   UNL     1     -13.120  13.978  71.812  1.00  0.00    -0.370 A  
HETATM    8  N   UNL     1     -13.590  12.968  72.613  1.00  0.00    -0.566 NA 
HETATM    9  C   UNL     1     -13.162  15.415  71.977  1.00  0.00    -0.429 C  
HETATM   10  N   UNL     1     -12.572  16.082  70.911  1.00  0.00    -0.542 N  
HETATM   11  O   UNL     1     -13.651  16.018  72.926  1.00  0.00    -0.550 OA 
HETATM   12  C   UNL     1     -13.284  11.863  71.965  1.00  0.00    -0.356 A  
HETATM   13  N   UNL     1     -12.629  12.123  70.789  1.00  0.00    -0.269 NA 
HETATM   14  H   UNL     1     -12.547  17.101  70.946  1.00  0.00     0.000 HD 
ENDROOT
BRANCH  13  15
HETATM   15  C   UNL     1     -12.089  11.141  69.875  1.00  0.00    -0.344 C  
BRANCH  15  16
HETATM   16  O   UNL     1     -10.932  10.483  70.407  1.00  0.00    -0.287 OA 
BRANCH  16  17
HETATM   17  C   UNL     1     -10.086   9.811  69.446  1.00  0.00    -0.209 C  
BRANCH  17  18
HETATM   18  C   UNL     1      -9.978   8.299  69.694  1.00  0.00    -0.193 C  
HETATM   19  H   UNL     1     -11.130   6.832  70.362  1.00  0.00     0.000 HD 
HETATM   20  O   UNL     1     -11.197   7.767  70.209  1.00  0.00    -0.263 OA 
ENDBRANCH  17  18
BRANCH  17  21
HETATM   21  C   UNL     1     -10.698  10.071  68.058  1.00  0.00    -0.256 C  
HETATM   22  O   UNL     1     -11.122   8.842  67.466  1.00  0.00    -0.454 OA 
HETATM   23  H   UNL     1     -11.500   9.002  66.610  1.00  0.00     0.000 HD 
ENDBRANCH  17  21
ENDBRANCH  16  17
ENDBRANCH  15  16
ENDBRANCH  13  15
TORSDOF 5
ENDMDL
MODEL       68
REMARK 921   NORMALIZED FREE ENERGY PREDICTED BY IDOCK:   -4.99 KCAL/MOL
REMARK 922        TOTAL FREE ENERGY PREDICTED BY IDOCK:   -6.93 KCAL/MOL
REMARK 923 INTER-LIGAND FREE ENERGY PREDICTED BY IDOCK:   -6.29 KCAL/MOL
REMARK 924 INTRA-LIGAND FREE ENERGY PREDICTED BY IDOCK:   -0.64 KCAL/MOL
REMARK 927      BINDING AFFINITY PREDICTED BY RF-SCORE:    0.00 PKD
ROOT
HETATM    1  N   UNL     1     -12.308  13.618  63.122  1.00  0.00    -1.076 NA 
HETATM    2  C   UNL     1     -11.357  12.805  63.646  1.00  0.00    -0.453 C  
HETATM    3  H1  UNL     1     -12.656  13.453  62.178  1.00  0.00     0.000 HD 
HETATM    4  H2  UNL     1     -12.674  14.395  63.673  1.00  0.00     0.000 HD 
HETATM    5  N   UNL     1     -10.910  13.017  64.855  1.00  0.00    -0.308 NA 
HETATM    6  C   UNL     1      -9.951  12.138  65.234  1.00  0.00    -0.237 A  
HETATM    7  C   UNL     1      -9.422  11.090  64.513  1.00  0.00    -0.233 A  
HETATM    8  N   UNL     1      -8.453  10.431  65.229  1.00  0.00    -0.165 NA 
HETATM    9  C   UNL     1      -9.937  10.859  63.182  1.00  0.00    -0.321 C  
HETATM   10  N   UNL     1     -10.920  11.777  62.833  1.00  0.00    -0.569 N  
HETATM   11  O   UNL     1      -9.579   9.973  62.413  1.00  0.00    -0.263 OA 
HETATM   12  C   UNL     1      -8.393  11.077  66.375  1.00  0.00    -0.165 A  
HETATM   13  N   UNL     1      -9.289  12.114  66.427  1.00  0.00    -0.224 NA 
HETATM   14  H   UNL     1     -11.349  11.685  61.913  1.00  0.00     0.000 HD 
ENDROOT
BRANCH  13  15
HETATM   15  C   UNL     1      -9.534  12.977  67.562  1.00  0.00    -0.198 C  
BRANCH  15  16
HETATM   16  O   UNL     1      -9.924  12.241  68.729  1.00  0.00    -0.155 OA 
BRANCH  16  17
HETATM   17  C   UNL     1     -11.257  12.500  69.226  1.00  0.00    -0.194 C  
BRANCH  17  18
HETATM   18  C   UNL     1     -11.990  13.596  68.439  1.00  0.00    -0.356 C  
HETATM   19  H   UNL     1     -12.530  15.484  68.701  1.00  0.00     0.000 HD 
HETATM   20  O   UNL     1     -12.076  14.806  69.188  1.00  0.00    -0.298 OA 
ENDBRANCH  17  18
BRANCH  17  21
HETATM   21  C   UNL     1     -12.033  11.175  69.124  1.00  0.00    -0.343 C  
HETATM   22  O   UNL     1     -11.793  10.557  67.858  1.00  0.00    -0.731 OA 
HETATM   23  H   UNL     1     -12.272   9.739  67.796  1.00  0.00     0.000 HD 
ENDBRANCH  17  21
ENDBRANCH  16  17
ENDBRANCH  15  16
ENDBRANCH  13  15
TORSDOF 5
ENDMDL
MODEL       69
REMARK 921   NORMALIZED FREE ENERGY PREDICTED BY IDOCK:   -4.94 KCAL/MOL
REMARK 922        TOTAL FREE ENERGY PREDICTED BY IDOCK:   -6.86 KCAL/MOL
REMARK 923 INTER-LIGAND FREE ENERGY PREDICTED BY IDOCK:   -6.14 KCAL/MOL
REMARK 924 INTRA-LIGAND FREE ENERGY PREDICTED BY IDOCK:   -0.72 KCAL/MOL
REMARK 927      BINDING AFFINITY PREDICTED BY RF-SCORE:    0.00 PKD
ROOT
HETATM    1  N   UNL     1     -12.173   9.727  70.040  1.00  0.00    -0.463 NA 
HETATM    2  C   UNL     1     -12.123  11.000  69.574  1.00  0.00    -0.329 C  
HETATM    3  H1  UNL     1     -12.200   9.552  71.044  1.00  0.00     0.000 HD 
HETATM    4  H2  UNL     1     -12.185   8.944  69.386  1.00  0.00     0.000 HD 
HETATM    5  N   UNL     1     -12.088  11.223  68.287  1.00  0.00    -0.623 NA 
HETATM    6  C   UNL     1     -12.020  12.540  67.974  1.00  0.00    -0.223 A  
HETATM    7  C   UNL     1     -11.987  13.619  68.828  1.00  0.00    -0.359 A  
HETATM    8  N   UNL     1     -11.900  14.801  68.136  1.00  0.00    -0.315 NA 
HETATM    9  C   UNL     1     -12.040  13.357  70.250  1.00  0.00    -0.349 C  
HETATM   10  N   UNL     1     -12.114  11.998  70.529  1.00  0.00    -0.448 N  
HETATM   11  O   UNL     1     -12.023  14.200  71.141  1.00  0.00    -0.335 OA 
HETATM   12  C   UNL     1     -11.878  14.441  66.869  1.00  0.00    -0.410 A  
HETATM   13  N   UNL     1     -11.957  13.080  66.722  1.00  0.00    -0.390 NA 
HETATM   14  H   UNL     1     -12.166  11.718  71.508  1.00  0.00     0.000 HD 
ENDROOT
BRANCH  13  15
HETATM   15  C   UNL     1     -12.032  12.358  65.471  1.00  0.00    -0.391 C  
BRANCH  15  16
HETATM   16  O   UNL     1     -10.750  12.227  64.843  1.00  0.00    -0.277 OA 
BRANCH  16  17
HETATM   17  C   UNL     1     -10.318  10.876  64.559  1.00  0.00    -0.348 C  
BRANCH  17  18
HETATM   18  C   UNL     1      -9.422  10.781  63.315  1.00  0.00    -0.326 C  
HETATM   19  H   UNL     1      -7.495  10.576  62.902  1.00  0.00     0.000 HD 
HETATM   20  O   UNL     1      -8.049  10.635  63.672  1.00  0.00    -0.096 OA 
ENDBRANCH  17  18
BRANCH  17  21
HETATM   21  C   UNL     1      -9.546  10.388  65.798  1.00  0.00    -0.216 C  
HETATM   22  O   UNL     1     -10.358   9.501  66.569  1.00  0.00    -0.242 OA 
HETATM   23  H   UNL     1      -9.882   9.200  67.333  1.00  0.00     0.000 HD 
ENDBRANCH  17  21
ENDBRANCH  16  17
ENDBRANCH  15  16
ENDBRANCH  13  15
TORSDOF 5
ENDMDL
MODEL       70
REMARK 921   NORMALIZED FREE ENERGY PREDICTED BY IDOCK:   -4.92 KCAL/MOL
REMARK 922        TOTAL FREE ENERGY PREDICTED BY IDOCK:   -6.84 KCAL/MOL
REMARK 923 INTER-LIGAND FREE ENERGY PREDICTED BY IDOCK:   -6.39 KCAL/MOL
REMARK 924 INTRA-LIGAND FREE ENERGY PREDICTED BY IDOCK:   -0.45 KCAL/MOL
REMARK 927      BINDING AFFINITY PREDICTED BY RF-SCORE:    0.00 PKD
ROOT
HETATM    1  N   UNL     1     -10.666   8.122  68.715  1.00  0.00    -0.403 NA 
HETATM    2  C   UNL     1     -11.015   9.432  68.758  1.00  0.00    -0.042 C  
HETATM    3  H1  UNL     1     -10.961   7.491  69.460  1.00  0.00     0.000 HD 
HETATM    4  H2  UNL     1     -10.109   7.768  67.937  1.00  0.00     0.000 HD 
HETATM    5  N   UNL     1     -10.638  10.240  67.804  1.00  0.00    -0.230 NA 
HETATM    6  C   UNL     1     -11.044  11.519  67.992  1.00  0.00    -0.254 A  
HETATM    7  C   UNL     1     -11.780  12.035  69.035  1.00  0.00    -0.325 A  
HETATM    8  N   UNL     1     -11.981  13.384  68.885  1.00  0.00    -0.338 NA 
HETATM    9  C   UNL     1     -12.204  11.126  70.077  1.00  0.00    -0.326 C  
HETATM   10  N   UNL     1     -11.772   9.826  69.845  1.00  0.00    -0.448 N  
HETATM   11  O   UNL     1     -12.864  11.420  71.068  1.00  0.00    -0.347 OA 
HETATM   12  C   UNL     1     -11.368  13.686  67.759  1.00  0.00    -0.306 A  
HETATM   13  N   UNL     1     -10.792  12.585  67.178  1.00  0.00    -0.244 NA 
HETATM   14  H   UNL     1     -12.033   9.111  70.525  1.00  0.00     0.000 HD 
ENDROOT
BRANCH  13  15
HETATM   15  C   UNL     1     -10.107  12.550  65.905  1.00  0.00    -0.254 C  
BRANCH  15  16
HETATM   16  O   UNL     1     -10.829  13.243  64.880  1.00  0.00    -0.311 OA 
BRANCH  16  17
HETATM   17  C   UNL     1     -11.024  12.522  63.642  1.00  0.00    -0.456 C  
BRANCH  17  18
HETATM   18  C   UNL     1     -10.141  11.271  63.530  1.00  0.00    -0.396 C  
HETATM   19  H   UNL     1      -8.500  10.709  62.571  1.00  0.00     0.000 HD 
HETATM   20  O   UNL     1      -9.046  11.484  62.640  1.00  0.00    -0.322 OA 
ENDBRANCH  17  18
BRANCH  17  21
HETATM   21  C   UNL     1     -12.509  12.120  63.591  1.00  0.00    -0.549 C  
HETATM   22  O   UNL     1     -13.171  12.520  64.792  1.00  0.00    -0.839 OA 
HETATM   23  H   UNL     1     -14.087  12.272  64.761  1.00  0.00     0.000 HD 
ENDBRANCH  17  21
ENDBRANCH  16  17
ENDBRANCH  15  16
ENDBRANCH  13  15
TORSDOF 5
ENDMDL
MODEL       71
REMARK 921   NORMALIZED FREE ENERGY PREDICTED BY IDOCK:   -4.92 KCAL/MOL
REMARK 922        TOTAL FREE ENERGY PREDICTED BY IDOCK:   -6.84 KCAL/MOL
REMARK 923 INTER-LIGAND FREE ENERGY PREDICTED BY IDOCK:   -6.24 KCAL/MOL
REMARK 924 INTRA-LIGAND FREE ENERGY PREDICTED BY IDOCK:   -0.60 KCAL/MOL
REMARK 927      BINDING AFFINITY PREDICTED BY RF-SCORE:    0.00 PKD
ROOT
HETATM    1  N   UNL     1     -12.524  13.926  63.104  1.00  0.00    -1.079 NA 
HETATM    2  C   UNL     1     -11.625  13.201  63.814  1.00  0.00    -0.425 C  
HETATM    3  H1  UNL     1     -12.718  13.686  62.132  1.00  0.00     0.000 HD 
HETATM    4  H2  UNL     1     -13.007  14.710  63.541  1.00  0.00     0.000 HD 
HETATM    5  N   UNL     1     -11.376  13.508  65.060  1.00  0.00    -0.312 NA 
HETATM    6  C   UNL     1     -10.443  12.710  65.633  1.00  0.00    -0.275 A  
HETATM    7  C   UNL     1      -9.761  11.655  65.069  1.00  0.00    -0.211 A  
HETATM    8  N   UNL     1      -8.880  11.096  65.961  1.00  0.00    -0.188 NA 
HETATM    9  C   UNL     1     -10.057  11.317  63.694  1.00  0.00    -0.382 C  
HETATM   10  N   UNL     1     -11.020  12.154  63.145  1.00  0.00    -0.681 N  
HETATM   11  O   UNL     1      -9.544  10.410  63.047  1.00  0.00    -0.313 OA 
HETATM   12  C   UNL     1      -9.025  11.810  67.059  1.00  0.00    -0.186 A  
HETATM   13  N   UNL     1      -9.969  12.794  66.909  1.00  0.00    -0.228 NA 
HETATM   14  H   UNL     1     -11.300  11.984  62.179  1.00  0.00     0.000 HD 
ENDROOT
BRANCH  13  15
HETATM   15  C   UNL     1     -10.424  13.705  67.936  1.00  0.00    -0.247 C  
BRANCH  15  16
HETATM   16  O   UNL     1     -10.619  13.050  69.196  1.00  0.00    -0.112 OA 
BRANCH  16  17
HETATM   17  C   UNL     1     -11.961  12.585  69.468  1.00  0.00    -0.266 C  
BRANCH  17  18
HETATM   18  C   UNL     1     -12.044  11.061  69.642  1.00  0.00    -0.340 C  
HETATM   19  H   UNL     1     -10.989   9.618  70.497  1.00  0.00     0.000 HD 
HETATM   20  O   UNL     1     -10.937  10.561  70.390  1.00  0.00    -0.287 OA 
ENDBRANCH  17  18
BRANCH  17  21
HETATM   21  C   UNL     1     -12.421  13.285  70.759  1.00  0.00    -0.324 C  
HETATM   22  O   UNL     1     -13.001  12.337  71.656  1.00  0.00    -0.390 OA 
HETATM   23  H   UNL     1     -13.284  12.769  72.453  1.00  0.00     0.000 HD 
ENDBRANCH  17  21
ENDBRANCH  16  17
ENDBRANCH  15  16
ENDBRANCH  13  15
TORSDOF 5
ENDMDL
MODEL       72
REMARK 921   NORMALIZED FREE ENERGY PREDICTED BY IDOCK:   -4.92 KCAL/MOL
REMARK 922        TOTAL FREE ENERGY PREDICTED BY IDOCK:   -6.84 KCAL/MOL
REMARK 923 INTER-LIGAND FREE ENERGY PREDICTED BY IDOCK:   -6.58 KCAL/MOL
REMARK 924 INTRA-LIGAND FREE ENERGY PREDICTED BY IDOCK:   -0.26 KCAL/MOL
REMARK 927      BINDING AFFINITY PREDICTED BY RF-SCORE:    0.00 PKD
ROOT
HETATM    1  N   UNL     1     -10.531  19.908  65.518  1.00  0.00    -0.377 NA 
HETATM    2  C   UNL     1     -10.031  19.041  66.434  1.00  0.00    -0.395 C  
HETATM    3  H1  UNL     1     -10.155  20.854  65.454  1.00  0.00     0.000 HD 
HETATM    4  H2  UNL     1     -11.282  19.614  64.894  1.00  0.00     0.000 HD 
HETATM    5  N   UNL     1     -10.513  17.829  66.517  1.00  0.00    -0.330 NA 
HETATM    6  C   UNL     1      -9.930  17.086  67.488  1.00  0.00    -0.274 A  
HETATM    7  C   UNL     1      -8.927  17.454  68.357  1.00  0.00    -0.277 A  
HETATM    8  N   UNL     1      -8.609  16.430  69.214  1.00  0.00    -0.179 NA 
HETATM    9  C   UNL     1      -8.394  18.793  68.245  1.00  0.00    -0.330 C  
HETATM   10  N   UNL     1      -9.013  19.521  67.236  1.00  0.00    -0.297 N  
HETATM   11  O   UNL     1      -7.502  19.276  68.935  1.00  0.00    -0.347 OA 
HETATM   12  C   UNL     1      -9.416  15.448  68.869  1.00  0.00    -0.219 A  
HETATM   13  N   UNL     1     -10.229  15.797  67.821  1.00  0.00    -0.246 NA 
HETATM   14  H   UNL     1      -8.694  20.476  67.076  1.00  0.00     0.000 HD 
ENDROOT
BRANCH  13  15
HETATM   15  C   UNL     1     -11.176  14.934  67.150  1.00  0.00    -0.343 C  
BRANCH  15  16
HETATM   16  O   UNL     1     -10.730  13.574  67.098  1.00  0.00    -0.275 OA 
BRANCH  16  17
HETATM   17  C   UNL     1     -11.734  12.589  66.761  1.00  0.00    -0.384 C  
BRANCH  17  18
HETATM   18  C   UNL     1     -11.930  12.424  65.246  1.00  0.00    -0.404 C  
HETATM   19  H   UNL     1     -13.331  12.797  63.895  1.00  0.00     0.000 HD 
HETATM   20  O   UNL     1     -13.209  12.899  64.832  1.00  0.00    -0.782 OA 
ENDBRANCH  17  18
BRANCH  17  21
HETATM   21  C   UNL     1     -11.273  11.256  67.377  1.00  0.00    -0.303 C  
HETATM   22  O   UNL     1     -12.243  10.782  68.312  1.00  0.00    -0.815 OA 
HETATM   23  H   UNL     1     -11.958   9.959  68.693  1.00  0.00     0.000 HD 
ENDBRANCH  17  21
ENDBRANCH  16  17
ENDBRANCH  15  16
ENDBRANCH  13  15
TORSDOF 5
ENDMDL
MODEL       73
REMARK 921   NORMALIZED FREE ENERGY PREDICTED BY IDOCK:   -4.91 KCAL/MOL
REMARK 922        TOTAL FREE ENERGY PREDICTED BY IDOCK:   -6.83 KCAL/MOL
REMARK 923 INTER-LIGAND FREE ENERGY PREDICTED BY IDOCK:   -6.54 KCAL/MOL
REMARK 924 INTRA-LIGAND FREE ENERGY PREDICTED BY IDOCK:   -0.30 KCAL/MOL
REMARK 927      BINDING AFFINITY PREDICTED BY RF-SCORE:    0.00 PKD
ROOT
HETATM    1  N   UNL     1     -11.378   6.439  70.643  1.00  0.00    -0.337 NA 
HETATM    2  C   UNL     1     -11.872   7.670  70.925  1.00  0.00    -0.250 C  
HETATM    3  H1  UNL     1     -11.657   5.637  71.209  1.00  0.00     0.000 HD 
HETATM    4  H2  UNL     1     -10.729   6.314  69.867  1.00  0.00     0.000 HD 
HETATM    5  N   UNL     1     -11.516   8.698  70.201  1.00  0.00    -0.089 NA 
HETATM    6  C   UNL     1     -12.073   9.862  70.611  1.00  0.00    -0.257 A  
HETATM    7  C   UNL     1     -12.938  10.069  71.663  1.00  0.00    -0.449 A  
HETATM    8  N   UNL     1     -13.275  11.395  71.778  1.00  0.00    -0.439 NA 
HETATM    9  C   UNL     1     -13.335   8.920  72.447  1.00  0.00    -0.440 C  
HETATM   10  N   UNL     1     -12.747   7.747  71.991  1.00  0.00    -0.436 N  
HETATM   11  O   UNL     1     -14.096   8.931  73.409  1.00  0.00    -0.158 OA 
HETATM   12  C   UNL     1     -12.616  11.989  70.805  1.00  0.00    -0.222 A  
HETATM   13  N   UNL     1     -11.880  11.098  70.066  1.00  0.00    -0.329 NA 
HETATM   14  H   UNL     1     -12.978   6.882  72.479  1.00  0.00     0.000 HD 
ENDROOT
BRANCH  13  15
HETATM   15  C   UNL     1     -11.102  11.403  68.885  1.00  0.00    -0.233 C  
BRANCH  15  16
HETATM   16  O   UNL     1     -11.927  11.649  67.739  1.00  0.00    -0.608 OA 
BRANCH  16  17
HETATM   17  C   UNL     1     -11.289  12.324  66.631  1.00  0.00    -0.343 C  
BRANCH  17  18
HETATM   18  C   UNL     1     -12.241  13.255  65.866  1.00  0.00    -0.441 C  
HETATM   19  H   UNL     1     -13.597  13.113  64.428  1.00  0.00     0.000 HD 
HETATM   20  O   UNL     1     -13.008  12.537  64.902  1.00  0.00    -0.821 OA 
ENDBRANCH  17  18
BRANCH  17  21
HETATM   21  C   UNL     1     -10.123  13.138  67.219  1.00  0.00    -0.233 C  
HETATM   22  O   UNL     1      -9.088  13.293  66.247  1.00  0.00    -0.453 OA 
HETATM   23  H   UNL     1      -8.368  13.795  66.610  1.00  0.00     0.000 HD 
ENDBRANCH  17  21
ENDBRANCH  16  17
ENDBRANCH  15  16
ENDBRANCH  13  15
TORSDOF 5
ENDMDL
MODEL       74
REMARK 921   NORMALIZED FREE ENERGY PREDICTED BY IDOCK:   -4.89 KCAL/MOL
REMARK 922        TOTAL FREE ENERGY PREDICTED BY IDOCK:   -6.81 KCAL/MOL
REMARK 923 INTER-LIGAND FREE ENERGY PREDICTED BY IDOCK:   -5.87 KCAL/MOL
REMARK 924 INTRA-LIGAND FREE ENERGY PREDICTED BY IDOCK:   -0.94 KCAL/MOL
REMARK 927      BINDING AFFINITY PREDICTED BY RF-SCORE:    0.00 PKD
ROOT
HETATM    1  N   UNL     1     -11.649  16.311  63.952  1.00  0.00    -1.573 NA 
HETATM    2  C   UNL     1     -11.105  16.339  65.193  1.00  0.00    -0.212 C  
HETATM    3  H1  UNL     1     -11.585  17.130  63.348  1.00  0.00     0.000 HD 
HETATM    4  H2  UNL     1     -12.123  15.470  63.621  1.00  0.00     0.000 HD 
HETATM    5  N   UNL     1     -11.187  15.289  65.967  1.00  0.00    -0.284 NA 
HETATM    6  C   UNL     1     -10.615  15.472  67.181  1.00  0.00    -0.300 A  
HETATM    7  C   UNL     1      -9.983  16.595  67.666  1.00  0.00    -0.264 A  
HETATM    8  N   UNL     1      -9.545  16.405  68.953  1.00  0.00    -0.243 NA 
HETATM    9  C   UNL     1      -9.887  17.745  66.794  1.00  0.00    -0.320 C  
HETATM   10  N   UNL     1     -10.480  17.516  65.558  1.00  0.00    -0.188 N  
HETATM   11  O   UNL     1      -9.357  18.817  67.067  1.00  0.00    -0.284 OA 
HETATM   12  C   UNL     1      -9.912  15.175  69.248  1.00  0.00    -0.242 A  
HETATM   13  N   UNL     1     -10.556  14.567  68.201  1.00  0.00    -0.235 NA 
HETATM   14  H   UNL     1     -10.451  18.270  64.872  1.00  0.00     0.000 HD 
ENDROOT
BRANCH  13  15
HETATM   15  C   UNL     1     -11.023  13.199  68.163  1.00  0.00    -0.251 C  
BRANCH  15  16
HETATM   16  O   UNL     1      -9.948  12.255  68.252  1.00  0.00    -0.208 OA 
BRANCH  16  17
HETATM   17  C   UNL     1      -9.697  11.466  67.067  1.00  0.00    -0.190 C  
BRANCH  17  18
HETATM   18  C   UNL     1     -10.694  11.749  65.933  1.00  0.00    -0.282 C  
HETATM   19  H   UNL     1     -10.665  12.512  64.104  1.00  0.00     0.000 HD 
HETATM   20  O   UNL     1     -10.047  12.337  64.806  1.00  0.00    -0.277 OA 
ENDBRANCH  17  18
BRANCH  17  21
HETATM   21  C   UNL     1      -8.268  11.804  66.604  1.00  0.00    -0.117 C  
HETATM   22  O   UNL     1      -8.004  13.195  66.792  1.00  0.00    -0.399 OA 
HETATM   23  H   UNL     1      -7.122  13.404  66.506  1.00  0.00     0.000 HD 
ENDBRANCH  17  21
ENDBRANCH  16  17
ENDBRANCH  15  16
ENDBRANCH  13  15
TORSDOF 5
ENDMDL
MODEL       75
REMARK 921   NORMALIZED FREE ENERGY PREDICTED BY IDOCK:   -4.89 KCAL/MOL
REMARK 922        TOTAL FREE ENERGY PREDICTED BY IDOCK:   -6.81 KCAL/MOL
REMARK 923 INTER-LIGAND FREE ENERGY PREDICTED BY IDOCK:   -6.09 KCAL/MOL
REMARK 924 INTRA-LIGAND FREE ENERGY PREDICTED BY IDOCK:   -0.71 KCAL/MOL
REMARK 927      BINDING AFFINITY PREDICTED BY RF-SCORE:    0.00 PKD
ROOT
HETATM    1  N   UNL     1     -12.314  14.279  68.321  1.00  0.00    -0.580 NA 
HETATM    2  C   UNL     1     -12.017  13.696  67.132  1.00  0.00    -0.393 C  
HETATM    3  H1  UNL     1     -12.767  15.193  68.341  1.00  0.00     0.000 HD 
HETATM    4  H2  UNL     1     -12.085  13.804  69.193  1.00  0.00     0.000 HD 
HETATM    5  N   UNL     1     -11.437  12.526  67.106  1.00  0.00    -0.329 NA 
HETATM    6  C   UNL     1     -11.185  12.081  65.852  1.00  0.00    -0.337 A  
HETATM    7  C   UNL     1     -11.465  12.701  64.654  1.00  0.00    -0.330 A  
HETATM    8  N   UNL     1     -11.044  11.944  63.590  1.00  0.00    -0.414 NA 
HETATM    9  C   UNL     1     -12.121  13.989  64.699  1.00  0.00    -0.440 C  
HETATM   10  N   UNL     1     -12.365  14.408  66.001  1.00  0.00    -0.365 N  
HETATM   11  O   UNL     1     -12.441  14.670  63.730  1.00  0.00    -0.799 OA 
HETATM   12  C   UNL     1     -10.509  10.872  64.138  1.00  0.00    -0.327 A  
HETATM   13  N   UNL     1     -10.580  10.907  65.507  1.00  0.00    -0.213 NA 
HETATM   14  H   UNL     1     -12.834  15.304  66.129  1.00  0.00     0.000 HD 
ENDROOT
BRANCH  13  15
HETATM   15  C   UNL     1     -10.155   9.862  66.412  1.00  0.00    -0.240 C  
BRANCH  15  16
HETATM   16  O   UNL     1      -9.175  10.322  67.351  1.00  0.00    -0.141 OA 
BRANCH  16  17
HETATM   17  C   UNL     1      -9.132   9.623  68.617  1.00  0.00    -0.132 C  
BRANCH  17  18
HETATM   18  C   UNL     1      -8.159  10.259  69.621  1.00  0.00    -0.145 C  
HETATM   19  H   UNL     1      -7.618  10.002  71.510  1.00  0.00     0.000 HD 
HETATM   20  O   UNL     1      -8.220   9.609  70.889  1.00  0.00    -0.290 OA 
ENDBRANCH  17  18
BRANCH  17  21
HETATM   21  C   UNL     1     -10.561   9.648  69.186  1.00  0.00    -0.220 C  
HETATM   22  O   UNL     1     -10.800  10.879  69.869  1.00  0.00    -0.397 OA 
HETATM   23  H   UNL     1     -11.682  10.894  70.221  1.00  0.00     0.000 HD 
ENDBRANCH  17  21
ENDBRANCH  16  17
ENDBRANCH  15  16
ENDBRANCH  13  15
TORSDOF 5
ENDMDL
MODEL       76
REMARK 921   NORMALIZED FREE ENERGY PREDICTED BY IDOCK:   -4.87 KCAL/MOL
REMARK 922        TOTAL FREE ENERGY PREDICTED BY IDOCK:   -6.78 KCAL/MOL
REMARK 923 INTER-LIGAND FREE ENERGY PREDICTED BY IDOCK:   -6.37 KCAL/MOL
REMARK 924 INTRA-LIGAND FREE ENERGY PREDICTED BY IDOCK:   -0.41 KCAL/MOL
REMARK 927      BINDING AFFINITY PREDICTED BY RF-SCORE:    0.00 PKD
ROOT
HETATM    1  N   UNL     1      -9.169  16.840  67.697  1.00  0.00    -0.222 NA 
HETATM    2  C   UNL     1      -9.904  16.058  66.868  1.00  0.00    -0.245 C  
HETATM    3  H1  UNL     1      -9.052  17.832  67.492  1.00  0.00     0.000 HD 
HETATM    4  H2  UNL     1      -8.733  16.435  68.526  1.00  0.00     0.000 HD 
HETATM    5  N   UNL     1     -10.054  14.787  67.130  1.00  0.00    -0.239 NA 
HETATM    6  C   UNL     1     -10.796  14.133  66.204  1.00  0.00    -0.296 A  
HETATM    7  C   UNL     1     -11.385  14.641  65.068  1.00  0.00    -0.390 A  
HETATM    8  N   UNL     1     -12.045  13.663  64.367  1.00  0.00    -0.444 NA 
HETATM    9  C   UNL     1     -11.223  16.053  64.798  1.00  0.00    -0.339 C  
HETATM   10  N   UNL     1     -10.461  16.688  65.771  1.00  0.00    -0.349 N  
HETATM   11  O   UNL     1     -11.682  16.662  63.838  1.00  0.00    -1.153 OA 
HETATM   12  C   UNL     1     -11.855  12.567  65.072  1.00  0.00    -0.396 A  
HETATM   13  N   UNL     1     -11.110  12.805  66.199  1.00  0.00    -0.282 NA 
HETATM   14  H   UNL     1     -10.302  17.691  65.669  1.00  0.00     0.000 HD 
ENDROOT
BRANCH  13  15
HETATM   15  C   UNL     1     -10.781  11.841  67.226  1.00  0.00    -0.237 C  
BRANCH  15  16
HETATM   16  O   UNL     1     -11.469  12.100  68.456  1.00  0.00    -0.250 OA 
BRANCH  16  17
HETATM   17  C   UNL     1     -11.915  10.938  69.191  1.00  0.00    -0.288 C  
BRANCH  17  18
HETATM   18  C   UNL     1     -10.769   9.987  69.566  1.00  0.00    -0.244 C  
HETATM   19  H   UNL     1     -10.035   9.140  71.200  1.00  0.00     0.000 HD 
HETATM   20  O   UNL     1     -10.745   9.729  70.968  1.00  0.00    -0.324 OA 
ENDBRANCH  17  18
BRANCH  17  21
HETATM   21  C   UNL     1     -12.603  11.457  70.466  1.00  0.00    -0.224 C  
HETATM   22  O   UNL     1     -12.036  12.707  70.860  1.00  0.00    -0.448 OA 
HETATM   23  H   UNL     1     -12.460  13.027  71.648  1.00  0.00     0.000 HD 
ENDBRANCH  17  21
ENDBRANCH  16  17
ENDBRANCH  15  16
ENDBRANCH  13  15
TORSDOF 5
ENDMDL
MODEL       77
REMARK 921   NORMALIZED FREE ENERGY PREDICTED BY IDOCK:   -4.87 KCAL/MOL
REMARK 922        TOTAL FREE ENERGY PREDICTED BY IDOCK:   -6.78 KCAL/MOL
REMARK 923 INTER-LIGAND FREE ENERGY PREDICTED BY IDOCK:   -6.31 KCAL/MOL
REMARK 924 INTRA-LIGAND FREE ENERGY PREDICTED BY IDOCK:   -0.46 KCAL/MOL
REMARK 927      BINDING AFFINITY PREDICTED BY RF-SCORE:    0.00 PKD
ROOT
HETATM    1  N   UNL     1     -10.799  11.839  63.287  1.00  0.00    -0.652 NA 
HETATM    2  C   UNL     1     -10.952  12.390  64.516  1.00  0.00    -0.316 C  
HETATM    3  H1  UNL     1     -10.910  10.833  63.161  1.00  0.00     0.000 HD 
HETATM    4  H2  UNL     1     -10.573  12.430  62.487  1.00  0.00     0.000 HD 
HETATM    5  N   UNL     1     -10.810  13.679  64.676  1.00  0.00    -0.389 NA 
HETATM    6  C   UNL     1     -10.973  14.081  65.960  1.00  0.00    -0.298 A  
HETATM    7  C   UNL     1     -11.262  13.311  67.065  1.00  0.00    -0.292 A  
HETATM    8  N   UNL     1     -11.334  14.076  68.202  1.00  0.00    -0.276 NA 
HETATM    9  C   UNL     1     -11.431  11.887  66.870  1.00  0.00    -0.322 C  
HETATM   10  N   UNL     1     -11.261  11.517  65.541  1.00  0.00    -0.198 N  
HETATM   11  O   UNL     1     -11.692  11.065  67.741  1.00  0.00    -0.573 OA 
HETATM   12  C   UNL     1     -11.087  15.303  67.790  1.00  0.00    -0.318 A  
HETATM   13  N   UNL     1     -10.871  15.355  66.437  1.00  0.00    -0.315 NA 
HETATM   14  H   UNL     1     -11.372  10.531  65.307  1.00  0.00     0.000 HD 
ENDROOT
BRANCH  13  15
HETATM   15  C   UNL     1     -10.647  16.550  65.653  1.00  0.00    -0.304 C  
BRANCH  15  16
HETATM   16  O   UNL     1      -9.313  17.053  65.799  1.00  0.00    -0.524 OA 
BRANCH  16  17
HETATM   17  C   UNL     1      -9.178  18.287  66.541  1.00  0.00    -0.292 C  
BRANCH  17  18
HETATM   18  C   UNL     1     -10.527  18.873  66.983  1.00  0.00    -0.428 C  
HETATM   19  H   UNL     1     -11.185  20.340  68.141  1.00  0.00     0.000 HD 
HETATM   20  O   UNL     1     -10.350  19.978  67.868  1.00  0.00    -0.406 OA 
ENDBRANCH  17  18
BRANCH  17  21
HETATM   21  C   UNL     1      -8.316  17.970  67.776  1.00  0.00    -0.249 C  
HETATM   22  O   UNL     1      -7.876  16.612  67.736  1.00  0.00    -0.159 OA 
HETATM   23  H   UNL     1      -7.343  16.416  68.499  1.00  0.00     0.000 HD 
ENDBRANCH  17  21
ENDBRANCH  16  17
ENDBRANCH  15  16
ENDBRANCH  13  15
TORSDOF 5
ENDMDL
MODEL       78
REMARK 921   NORMALIZED FREE ENERGY PREDICTED BY IDOCK:   -4.86 KCAL/MOL
REMARK 922        TOTAL FREE ENERGY PREDICTED BY IDOCK:   -6.77 KCAL/MOL
REMARK 923 INTER-LIGAND FREE ENERGY PREDICTED BY IDOCK:   -6.05 KCAL/MOL
REMARK 924 INTRA-LIGAND FREE ENERGY PREDICTED BY IDOCK:   -0.71 KCAL/MOL
REMARK 927      BINDING AFFINITY PREDICTED BY RF-SCORE:    0.00 PKD
ROOT
HETATM    1  N   UNL     1     -13.118   9.690  71.821  1.00  0.00    -0.390 NA 
HETATM    2  C   UNL     1     -12.923  10.987  71.476  1.00  0.00    -0.448 C  
HETATM    3  H1  UNL     1     -13.637   9.460  72.668  1.00  0.00     0.000 HD 
HETATM    4  H2  UNL     1     -12.746   8.944  71.233  1.00  0.00     0.000 HD 
HETATM    5  N   UNL     1     -12.258  11.281  70.390  1.00  0.00    -0.351 NA 
HETATM    6  C   UNL     1     -12.128  12.614  70.187  1.00  0.00    -0.294 A  
HETATM    7  C   UNL     1     -12.601  13.647  70.965  1.00  0.00    -0.363 A  
HETATM    8  N   UNL     1     -12.254  14.867  70.441  1.00  0.00    -0.313 NA 
HETATM    9  C   UNL     1     -13.348  13.306  72.156  1.00  0.00    -0.523 C  
HETATM   10  N   UNL     1     -13.463  11.932  72.327  1.00  0.00    -0.548 N  
HETATM   11  O   UNL     1     -13.838  14.099  72.953  1.00  0.00    -0.639 OA 
HETATM   12  C   UNL     1     -11.572  14.577  69.353  1.00  0.00    -0.303 A  
HETATM   13  N   UNL     1     -11.477  13.223  69.153  1.00  0.00    -0.288 NA 
HETATM   14  H   UNL     1     -13.984  11.597  73.138  1.00  0.00     0.000 HD 
ENDROOT
BRANCH  13  15
HETATM   15  C   UNL     1     -10.862  12.567  68.020  1.00  0.00    -0.225 C  
BRANCH  15  16
HETATM   16  O   UNL     1      -9.668  11.863  68.383  1.00  0.00    -0.203 OA 
BRANCH  16  17
HETATM   17  C   UNL     1      -9.425  10.622  67.681  1.00  0.00    -0.153 C  
BRANCH  17  18
HETATM   18  C   UNL     1      -8.684   9.583  68.535  1.00  0.00    -0.124 C  
HETATM   19  H   UNL     1      -8.052   9.396  70.404  1.00  0.00     0.000 HD 
HETATM   20  O   UNL     1      -8.510  10.039  69.876  1.00  0.00    -0.189 OA 
ENDBRANCH  17  18
BRANCH  17  21
HETATM   21  C   UNL     1     -10.799  10.072  67.263  1.00  0.00    -0.217 C  
HETATM   22  O   UNL     1     -11.247   9.094  68.203  1.00  0.00    -0.483 OA 
HETATM   23  H   UNL     1     -12.096   8.754  67.945  1.00  0.00     0.000 HD 
ENDBRANCH  17  21
ENDBRANCH  16  17
ENDBRANCH  15  16
ENDBRANCH  13  15
TORSDOF 5
ENDMDL
MODEL       79
REMARK 921   NORMALIZED FREE ENERGY PREDICTED BY IDOCK:   -4.85 KCAL/MOL
REMARK 922        TOTAL FREE ENERGY PREDICTED BY IDOCK:   -6.76 KCAL/MOL
REMARK 923 INTER-LIGAND FREE ENERGY PREDICTED BY IDOCK:   -6.20 KCAL/MOL
REMARK 924 INTRA-LIGAND FREE ENERGY PREDICTED BY IDOCK:   -0.55 KCAL/MOL
REMARK 927      BINDING AFFINITY PREDICTED BY RF-SCORE:    0.00 PKD
ROOT
HETATM    1  N   UNL     1     -13.388  13.780  72.709  1.00  0.00    -0.608 NA 
HETATM    2  C   UNL     1     -12.950  13.086  71.629  1.00  0.00    -0.321 C  
HETATM    3  H1  UNL     1     -13.732  13.281  73.530  1.00  0.00     0.000 HD 
HETATM    4  H2  UNL     1     -13.372  14.800  72.701  1.00  0.00     0.000 HD 
HETATM    5  N   UNL     1     -12.510  13.725  70.577  1.00  0.00    -0.347 NA 
HETATM    6  C   UNL     1     -12.126  12.902  69.572  1.00  0.00    -0.214 A  
HETATM    7  C   UNL     1     -12.147  11.525  69.541  1.00  0.00    -0.284 A  
HETATM    8  N   UNL     1     -11.694  11.045  68.338  1.00  0.00    -0.501 NA 
HETATM    9  C   UNL     1     -12.624  10.832  70.718  1.00  0.00    -0.383 C  
HETATM   10  N   UNL     1     -13.003  11.709  71.726  1.00  0.00    -0.424 N  
HETATM   11  O   UNL     1     -12.706   9.615  70.856  1.00  0.00    -0.283 OA 
HETATM   12  C   UNL     1     -11.402  12.125  67.642  1.00  0.00    -0.314 A  
HETATM   13  N   UNL     1     -11.639  13.273  68.353  1.00  0.00    -0.314 NA 
HETATM   14  H   UNL     1     -13.344  11.308  72.599  1.00  0.00     0.000 HD 
ENDROOT
BRANCH  13  15
HETATM   15  C   UNL     1     -11.359  14.623  67.915  1.00  0.00    -0.315 C  
BRANCH  15  16
HETATM   16  O   UNL     1      -9.955  14.861  67.751  1.00  0.00    -0.220 OA 
BRANCH  16  17
HETATM   17  C   UNL     1      -9.481  16.165  68.157  1.00  0.00    -0.209 C  
BRANCH  17  18
HETATM   18  C   UNL     1      -8.550  16.815  67.122  1.00  0.00    -0.196 C  
HETATM   19  H   UNL     1      -8.484  17.068  65.157  1.00  0.00     0.000 HD 
HETATM   20  O   UNL     1      -9.060  16.666  65.798  1.00  0.00    -0.503 OA 
ENDBRANCH  17  18
BRANCH  17  21
HETATM   21  C   UNL     1     -10.726  17.045  68.366  1.00  0.00    -0.361 C  
HETATM   22  O   UNL     1     -10.643  18.219  67.557  1.00  0.00    -0.405 OA 
HETATM   23  H   UNL     1     -11.412  18.762  67.686  1.00  0.00     0.000 HD 
ENDBRANCH  17  21
ENDBRANCH  16  17
ENDBRANCH  15  16
ENDBRANCH  13  15
TORSDOF 5
ENDMDL
MODEL       80
REMARK 921   NORMALIZED FREE ENERGY PREDICTED BY IDOCK:   -4.84 KCAL/MOL
REMARK 922        TOTAL FREE ENERGY PREDICTED BY IDOCK:   -6.74 KCAL/MOL
REMARK 923 INTER-LIGAND FREE ENERGY PREDICTED BY IDOCK:   -6.45 KCAL/MOL
REMARK 924 INTRA-LIGAND FREE ENERGY PREDICTED BY IDOCK:   -0.29 KCAL/MOL
REMARK 927      BINDING AFFINITY PREDICTED BY RF-SCORE:    0.00 PKD
ROOT
HETATM    1  N   UNL     1      -8.581  17.037  67.619  1.00  0.00    -0.208 NA 
HETATM    2  C   UNL     1      -9.573  16.326  67.028  1.00  0.00    -0.231 C  
HETATM    3  H1  UNL     1      -8.200  17.863  67.156  1.00  0.00     0.000 HD 
HETATM    4  H2  UNL     1      -8.216  16.748  68.527  1.00  0.00     0.000 HD 
HETATM    5  N   UNL     1     -10.061  15.269  67.621  1.00  0.00    -0.234 NA 
HETATM    6  C   UNL     1     -11.030  14.651  66.903  1.00  0.00    -0.324 A  
HETATM    7  C   UNL     1     -11.535  15.004  65.672  1.00  0.00    -0.248 A  
HETATM    8  N   UNL     1     -12.501  14.121  65.257  1.00  0.00    -0.479 NA 
HETATM    9  C   UNL     1     -10.996  16.185  65.034  1.00  0.00    -0.344 C  
HETATM   10  N   UNL     1     -10.010  16.791  65.803  1.00  0.00    -0.261 N  
HETATM   11  O   UNL     1     -11.334  16.636  63.945  1.00  0.00    -1.104 OA 
HETATM   12  C   UNL     1     -12.580  13.237  66.230  1.00  0.00    -0.073 A  
HETATM   13  N   UNL     1     -11.713  13.523  67.253  1.00  0.00    -0.361 NA 
HETATM   14  H   UNL     1      -9.578  17.639  65.436  1.00  0.00     0.000 HD 
ENDROOT
BRANCH  13  15
HETATM   15  C   UNL     1     -11.595  12.800  68.501  1.00  0.00    -0.321 C  
BRANCH  15  16
HETATM   16  O   UNL     1     -11.447  13.678  69.625  1.00  0.00    -0.260 OA 
BRANCH  16  17
HETATM   17  C   UNL     1     -12.644  13.925  70.398  1.00  0.00    -0.282 C  
BRANCH  17  18
HETATM   18  C   UNL     1     -12.729  13.064  71.667  1.00  0.00    -0.207 C  
HETATM   19  H   UNL     1     -13.513  13.191  73.482  1.00  0.00     0.000 HD 
HETATM   20  O   UNL     1     -13.461  13.724  72.697  1.00  0.00    -0.541 OA 
ENDBRANCH  17  18
BRANCH  17  21
HETATM   21  C   UNL     1     -12.625  15.416  70.779  1.00  0.00    -0.442 C  
HETATM   22  O   UNL     1     -13.947  15.956  70.728  1.00  0.00    -0.529 OA 
HETATM   23  H   UNL     1     -13.935  16.877  70.963  1.00  0.00     0.000 HD 
ENDBRANCH  17  21
ENDBRANCH  16  17
ENDBRANCH  15  16
ENDBRANCH  13  15
TORSDOF 5
ENDMDL
MODEL       81
REMARK 921   NORMALIZED FREE ENERGY PREDICTED BY IDOCK:   -4.83 KCAL/MOL
REMARK 922        TOTAL FREE ENERGY PREDICTED BY IDOCK:   -6.72 KCAL/MOL
REMARK 923 INTER-LIGAND FREE ENERGY PREDICTED BY IDOCK:   -6.27 KCAL/MOL
REMARK 924 INTRA-LIGAND FREE ENERGY PREDICTED BY IDOCK:   -0.45 KCAL/MOL
REMARK 927      BINDING AFFINITY PREDICTED BY RF-SCORE:    0.00 PKD
ROOT
HETATM    1  N   UNL     1     -11.603  16.346  63.710  1.00  0.00    -1.515 NA 
HETATM    2  C   UNL     1     -11.169  16.064  64.963  1.00  0.00    -0.261 C  
HETATM    3  H1  UNL     1     -11.495  17.287  63.332  1.00  0.00     0.000 HD 
HETATM    4  H2  UNL     1     -12.037  15.616  63.144  1.00  0.00     0.000 HD 
HETATM    5  N   UNL     1     -11.307  14.858  65.447  1.00  0.00    -0.349 NA 
HETATM    6  C   UNL     1     -10.845  14.733  66.715  1.00  0.00    -0.316 A  
HETATM    7  C   UNL     1     -10.270  15.697  67.512  1.00  0.00    -0.263 A  
HETATM    8  N   UNL     1      -9.943  15.194  68.747  1.00  0.00    -0.221 NA 
HETATM    9  C   UNL     1     -10.110  17.024  66.958  1.00  0.00    -0.295 C  
HETATM   10  N   UNL     1     -10.590  17.110  65.657  1.00  0.00    -0.271 N  
HETATM   11  O   UNL     1      -9.617  17.991  67.530  1.00  0.00    -0.266 OA 
HETATM   12  C   UNL     1     -10.321  13.934  68.700  1.00  0.00    -0.237 A  
HETATM   13  N   UNL     1     -10.866  13.607  67.484  1.00  0.00    -0.262 NA 
HETATM   14  H   UNL     1     -10.510  18.008  65.181  1.00  0.00     0.000 HD 
ENDROOT
BRANCH  13  15
HETATM   15  C   UNL     1     -11.313  12.294  67.073  1.00  0.00    -0.334 C  
BRANCH  15  16
HETATM   16  O   UNL     1     -11.803  11.517  68.174  1.00  0.00    -0.510 OA 
BRANCH  16  17
HETATM   17  C   UNL     1     -11.184  10.224  68.363  1.00  0.00    -0.224 C  
BRANCH  17  18
HETATM   18  C   UNL     1      -9.885  10.056  67.560  1.00  0.00    -0.175 C  
HETATM   19  H   UNL     1      -9.013   8.668  66.447  1.00  0.00     0.000 HD 
HETATM   20  O   UNL     1      -9.816   8.772  66.944  1.00  0.00    -0.186 OA 
ENDBRANCH  17  18
BRANCH  17  21
HETATM   21  C   UNL     1     -10.890  10.089  69.867  1.00  0.00    -0.285 C  
HETATM   22  O   UNL     1      -9.495   9.869  70.081  1.00  0.00    -0.298 OA 
HETATM   23  H   UNL     1      -9.313   9.785  71.010  1.00  0.00     0.000 HD 
ENDBRANCH  17  21
ENDBRANCH  16  17
ENDBRANCH  15  16
ENDBRANCH  13  15
TORSDOF 5
ENDMDL
MODEL       82
REMARK 921   NORMALIZED FREE ENERGY PREDICTED BY IDOCK:   -4.82 KCAL/MOL
REMARK 922        TOTAL FREE ENERGY PREDICTED BY IDOCK:   -6.72 KCAL/MOL
REMARK 923 INTER-LIGAND FREE ENERGY PREDICTED BY IDOCK:   -6.28 KCAL/MOL
REMARK 924 INTRA-LIGAND FREE ENERGY PREDICTED BY IDOCK:   -0.43 KCAL/MOL
REMARK 927      BINDING AFFINITY PREDICTED BY RF-SCORE:    0.00 PKD
ROOT
HETATM    1  N   UNL     1     -10.035  13.271  65.538  1.00  0.00    -0.437 NA 
HETATM    2  C   UNL     1     -10.562  13.519  66.763  1.00  0.00    -0.272 C  
HETATM    3  H1  UNL     1      -9.805  14.046  64.916  1.00  0.00     0.000 HD 
HETATM    4  H2  UNL     1      -9.868  12.310  65.239  1.00  0.00     0.000 HD 
HETATM    5  N   UNL     1     -10.856  12.527  67.560  1.00  0.00    -0.227 NA 
HETATM    6  C   UNL     1     -11.391  12.927  68.739  1.00  0.00    -0.290 A  
HETATM    7  C   UNL     1     -11.645  14.211  69.168  1.00  0.00    -0.307 A  
HETATM    8  N   UNL     1     -12.210  14.216  70.419  1.00  0.00    -0.334 NA 
HETATM    9  C   UNL     1     -11.300  15.300  68.281  1.00  0.00    -0.336 C  
HETATM   10  N   UNL     1     -10.751  14.849  67.087  1.00  0.00    -0.290 N  
HETATM   11  O   UNL     1     -11.457  16.495  68.509  1.00  0.00    -0.317 OA 
HETATM   12  C   UNL     1     -12.302  12.943  70.745  1.00  0.00    -0.299 A  
HETATM   13  N   UNL     1     -11.809  12.125  69.761  1.00  0.00    -0.332 NA 
HETATM   14  H   UNL     1     -10.467  15.549  66.402  1.00  0.00     0.000 HD 
ENDROOT
BRANCH  13  15
HETATM   15  C   UNL     1     -11.692  10.685  69.825  1.00  0.00    -0.310 C  
BRANCH  15  16
HETATM   16  O   UNL     1     -11.732  10.196  71.172  1.00  0.00    -0.352 OA 
BRANCH  16  17
HETATM   17  C   UNL     1     -11.728   8.758  71.325  1.00  0.00    -0.298 C  
BRANCH  17  18
HETATM   18  C   UNL     1     -10.628   8.258  72.273  1.00  0.00    -0.323 C  
HETATM   19  H   UNL     1     -10.374   6.805  73.596  1.00  0.00     0.000 HD 
HETATM   20  O   UNL     1     -11.055   7.114  73.010  1.00  0.00    -0.302 OA 
ENDBRANCH  17  18
BRANCH  17  21
HETATM   21  C   UNL     1     -13.110   8.367  71.876  1.00  0.00    -0.358 C  
HETATM   22  O   UNL     1     -13.351   9.026  73.121  1.00  0.00    -0.902 OA 
HETATM   23  H   UNL     1     -14.205   8.784  73.461  1.00  0.00     0.000 HD 
ENDBRANCH  17  21
ENDBRANCH  16  17
ENDBRANCH  15  16
ENDBRANCH  13  15
TORSDOF 5
ENDMDL
MODEL       83
REMARK 921   NORMALIZED FREE ENERGY PREDICTED BY IDOCK:   -4.80 KCAL/MOL
REMARK 922        TOTAL FREE ENERGY PREDICTED BY IDOCK:   -6.68 KCAL/MOL
REMARK 923 INTER-LIGAND FREE ENERGY PREDICTED BY IDOCK:   -6.41 KCAL/MOL
REMARK 924 INTRA-LIGAND FREE ENERGY PREDICTED BY IDOCK:   -0.27 KCAL/MOL
REMARK 927      BINDING AFFINITY PREDICTED BY RF-SCORE:    0.00 PKD
ROOT
HETATM    1  N   UNL     1     -11.008   7.050  68.482  1.00  0.00    -0.443 NA 
HETATM    2  C   UNL     1     -10.352   8.237  68.485  1.00  0.00    -0.199 C  
HETATM    3  H1  UNL     1     -10.849   6.377  69.232  1.00  0.00     0.000 HD 
HETATM    4  H2  UNL     1     -11.661   6.830  67.730  1.00  0.00     0.000 HD 
HETATM    5  N   UNL     1     -10.555   9.098  67.525  1.00  0.00    -0.273 NA 
HETATM    6  C   UNL     1      -9.817  10.227  67.652  1.00  0.00    -0.171 A  
HETATM    7  C   UNL     1      -8.916  10.550  68.642  1.00  0.00    -0.162 A  
HETATM    8  N   UNL     1      -8.349  11.780  68.419  1.00  0.00    -0.154 NA 
HETATM    9  C   UNL     1      -8.711   9.592  69.707  1.00  0.00    -0.208 C  
HETATM   10  N   UNL     1      -9.489   8.453  69.543  1.00  0.00    -0.165 N  
HETATM   11  O   UNL     1      -7.952   9.724  70.661  1.00  0.00    -0.272 OA 
HETATM   12  C   UNL     1      -8.900  12.200  67.299  1.00  0.00    -0.186 A  
HETATM   13  N   UNL     1      -9.803  11.295  66.802  1.00  0.00    -0.196 NA 
HETATM   14  H   UNL     1      -9.418   7.725  70.253  1.00  0.00     0.000 HD 
ENDROOT
BRANCH  13  15
HETATM   15  C   UNL     1     -10.636  11.472  65.633  1.00  0.00    -0.274 C  
BRANCH  15  16
HETATM   16  O   UNL     1     -11.936  11.979  65.964  1.00  0.00    -0.559 OA 
BRANCH  16  17
HETATM   17  C   UNL     1     -12.594  12.755  64.937  1.00  0.00    -0.470 C  
BRANCH  17  18
HETATM   18  C   UNL     1     -12.523  14.268  65.188  1.00  0.00    -0.416 C  
HETATM   19  H   UNL     1     -12.734  15.944  64.151  1.00  0.00     0.000 HD 
HETATM   20  O   UNL     1     -12.778  15.007  63.995  1.00  0.00    -0.772 OA 
ENDBRANCH  17  18
BRANCH  17  21
HETATM   21  C   UNL     1     -11.899  12.413  63.607  1.00  0.00    -0.526 C  
HETATM   22  O   UNL     1     -12.590  11.351  62.947  1.00  0.00    -0.970 OA 
HETATM   23  H   UNL     1     -12.161  11.140  62.126  1.00  0.00     0.000 HD 
ENDBRANCH  17  21
ENDBRANCH  16  17
ENDBRANCH  15  16
ENDBRANCH  13  15
TORSDOF 5
ENDMDL
MODEL       84
REMARK 921   NORMALIZED FREE ENERGY PREDICTED BY IDOCK:   -4.80 KCAL/MOL
REMARK 922        TOTAL FREE ENERGY PREDICTED BY IDOCK:   -6.68 KCAL/MOL
REMARK 923 INTER-LIGAND FREE ENERGY PREDICTED BY IDOCK:   -6.78 KCAL/MOL
REMARK 924 INTRA-LIGAND FREE ENERGY PREDICTED BY IDOCK:    0.09 KCAL/MOL
REMARK 927      BINDING AFFINITY PREDICTED BY RF-SCORE:    0.00 PKD
ROOT
HETATM    1  N   UNL     1     -12.044  10.321  69.740  1.00  0.00    -0.490 NA 
HETATM    2  C   UNL     1     -12.015  11.676  69.682  1.00  0.00    -0.324 C  
HETATM    3  H1  UNL     1     -12.299   9.853  70.609  1.00  0.00     0.000 HD 
HETATM    4  H2  UNL     1     -11.811   9.770  68.913  1.00  0.00     0.000 HD 
HETATM    5  N   UNL     1     -11.689  12.275  68.567  1.00  0.00    -0.317 NA 
HETATM    6  C   UNL     1     -11.686  13.626  68.667  1.00  0.00    -0.354 A  
HETATM    7  C   UNL     1     -11.978  14.401  69.767  1.00  0.00    -0.332 A  
HETATM    8  N   UNL     1     -11.849  15.738  69.484  1.00  0.00    -0.361 NA 
HETATM    9  C   UNL     1     -12.352  13.724  70.989  1.00  0.00    -0.372 C  
HETATM   10  N   UNL     1     -12.348  12.342  70.845  1.00  0.00    -0.379 N  
HETATM   11  O   UNL     1     -12.644  14.262  72.052  1.00  0.00    -0.334 OA 
HETATM   12  C   UNL     1     -11.478  15.774  68.221  1.00  0.00    -0.337 A  
HETATM   13  N   UNL     1     -11.374  14.517  67.681  1.00  0.00    -0.321 NA 
HETATM   14  H   UNL     1     -12.610  11.781  71.655  1.00  0.00     0.000 HD 
ENDROOT
BRANCH  13  15
HETATM   15  C   UNL     1     -11.061  14.201  66.305  1.00  0.00    -0.318 C  
BRANCH  15  16
HETATM   16  O   UNL     1     -10.460  12.907  66.168  1.00  0.00    -0.262 OA 
BRANCH  16  17
HETATM   17  C   UNL     1     -11.076  12.019  65.208  1.00  0.00    -0.317 C  
BRANCH  17  18
HETATM   18  C   UNL     1     -12.144  12.712  64.348  1.00  0.00    -0.415 C  
HETATM   19  H   UNL     1     -13.966  12.326  63.672  1.00  0.00     0.000 HD 
HETATM   20  O   UNL     1     -13.306  11.897  64.204  1.00  0.00    -0.652 OA 
ENDBRANCH  17  18
BRANCH  17  21
HETATM   21  C   UNL     1      -9.947  11.485  64.309  1.00  0.00    -0.271 C  
HETATM   22  O   UNL     1      -9.638  12.434  63.287  1.00  0.00    -0.620 OA 
HETATM   23  H   UNL     1      -8.940  12.104  62.732  1.00  0.00     0.000 HD 
ENDBRANCH  17  21
ENDBRANCH  16  17
ENDBRANCH  15  16
ENDBRANCH  13  15
TORSDOF 5
ENDMDL
MODEL       85
REMARK 921   NORMALIZED FREE ENERGY PREDICTED BY IDOCK:   -4.80 KCAL/MOL
REMARK 922        TOTAL FREE ENERGY PREDICTED BY IDOCK:   -6.68 KCAL/MOL
REMARK 923 INTER-LIGAND FREE ENERGY PREDICTED BY IDOCK:   -6.18 KCAL/MOL
REMARK 924 INTRA-LIGAND FREE ENERGY PREDICTED BY IDOCK:   -0.50 KCAL/MOL
REMARK 927      BINDING AFFINITY PREDICTED BY RF-SCORE:    0.00 PKD
ROOT
HETATM    1  N   UNL     1     -12.328  15.105  69.100  1.00  0.00    -0.592 NA 
HETATM    2  C   UNL     1     -12.025  14.130  68.208  1.00  0.00    -0.332 C  
HETATM    3  H1  UNL     1     -12.858  15.923  68.801  1.00  0.00     0.000 HD 
HETATM    4  H2  UNL     1     -12.026  15.020  70.071  1.00  0.00     0.000 HD 
HETATM    5  N   UNL     1     -11.345  13.082  68.591  1.00  0.00    -0.270 NA 
HETATM    6  C   UNL     1     -11.102  12.204  67.588  1.00  0.00    -0.268 A  
HETATM    7  C   UNL     1     -11.479  12.294  66.267  1.00  0.00    -0.380 A  
HETATM    8  N   UNL     1     -11.033  11.214  65.546  1.00  0.00    -0.137 NA 
HETATM    9  C   UNL     1     -12.243  13.453  65.860  1.00  0.00    -0.450 C  
HETATM   10  N   UNL     1     -12.475  14.324  66.916  1.00  0.00    -0.543 N  
HETATM   11  O   UNL     1     -12.658  13.684  64.729  1.00  0.00    -0.590 OA 
HETATM   12  C   UNL     1     -10.386  10.476  66.424  1.00  0.00    -0.221 A  
HETATM   13  N   UNL     1     -10.410  11.032  67.678  1.00  0.00    -0.184 NA 
HETATM   14  H   UNL     1     -13.016  15.167  66.725  1.00  0.00     0.000 HD 
ENDROOT
BRANCH  13  15
HETATM   15  C   UNL     1      -9.862  10.448  68.882  1.00  0.00    -0.200 C  
BRANCH  15  16
HETATM   16  O   UNL     1     -10.807   9.611  69.559  1.00  0.00    -0.227 OA 
BRANCH  16  17
HETATM   17  C   UNL     1     -11.262  10.080  70.849  1.00  0.00    -0.341 C  
BRANCH  17  18
HETATM   18  C   UNL     1     -12.722  10.557  70.834  1.00  0.00    -0.402 C  
HETATM   19  H   UNL     1     -13.760  12.135  71.433  1.00  0.00     0.000 HD 
HETATM   20  O   UNL     1     -12.857  11.840  71.443  1.00  0.00    -0.404 OA 
ENDBRANCH  17  18
BRANCH  17  21
HETATM   21  C   UNL     1     -11.106   8.904  71.829  1.00  0.00    -0.363 C  
HETATM   22  O   UNL     1     -11.719   7.730  71.295  1.00  0.00    -0.278 OA 
HETATM   23  H   UNL     1     -11.622   7.004  71.901  1.00  0.00     0.000 HD 
ENDBRANCH  17  21
ENDBRANCH  16  17
ENDBRANCH  15  16
ENDBRANCH  13  15
TORSDOF 5
ENDMDL
MODEL       86
REMARK 921   NORMALIZED FREE ENERGY PREDICTED BY IDOCK:   -4.79 KCAL/MOL
REMARK 922        TOTAL FREE ENERGY PREDICTED BY IDOCK:   -6.68 KCAL/MOL
REMARK 923 INTER-LIGAND FREE ENERGY PREDICTED BY IDOCK:   -6.17 KCAL/MOL
REMARK 924 INTRA-LIGAND FREE ENERGY PREDICTED BY IDOCK:   -0.51 KCAL/MOL
REMARK 927      BINDING AFFINITY PREDICTED BY RF-SCORE:    0.00 PKD
ROOT
HETATM    1  N   UNL     1     -11.510  14.300  70.509  1.00  0.00    -0.491 NA 
HETATM    2  C   UNL     1     -11.432  14.430  69.161  1.00  0.00    -0.294 C  
HETATM    3  H1  UNL     1     -11.871  13.438  70.918  1.00  0.00     0.000 HD 
HETATM    4  H2  UNL     1     -11.208  15.064  71.113  1.00  0.00     0.000 HD 
HETATM    5  N   UNL     1     -10.971  15.534  68.637  1.00  0.00    -0.264 NA 
HETATM    6  C   UNL     1     -10.971  15.524  67.282  1.00  0.00    -0.303 A  
HETATM    7  C   UNL     1     -11.385  14.520  66.436  1.00  0.00    -0.349 A  
HETATM    8  N   UNL     1     -11.248  14.887  65.120  1.00  0.00    -0.369 NA 
HETATM    9  C   UNL     1     -11.880  13.298  67.030  1.00  0.00    -0.390 C  
HETATM   10  N   UNL     1     -11.859  13.345  68.419  1.00  0.00    -0.356 N  
HETATM   11  O   UNL     1     -12.283  12.311  66.424  1.00  0.00    -0.613 OA 
HETATM   12  C   UNL     1     -10.756  16.108  65.168  1.00  0.00    -0.371 A  
HETATM   13  N   UNL     1     -10.563  16.533  66.458  1.00  0.00    -0.262 NA 
HETATM   14  H   UNL     1     -12.182  12.521  68.926  1.00  0.00     0.000 HD 
ENDROOT
BRANCH  13  15
HETATM   15  C   UNL     1      -9.973  17.789  66.865  1.00  0.00    -0.332 C  
BRANCH  15  16
HETATM   16  O   UNL     1      -8.658  17.620  67.410  1.00  0.00    -0.222 OA 
BRANCH  16  17
HETATM   17  C   UNL     1      -7.691  16.978  66.547  1.00  0.00    -0.292 C  
BRANCH  17  18
HETATM   18  C   UNL     1      -6.570  17.924  66.092  1.00  0.00    -0.271 C  
HETATM   19  H   UNL     1      -6.276  19.287  64.684  1.00  0.00     0.000 HD 
HETATM   20  O   UNL     1      -6.970  18.702  64.965  1.00  0.00    -0.467 OA 
ENDBRANCH  17  18
BRANCH  17  21
HETATM   21  C   UNL     1      -7.094  15.805  67.344  1.00  0.00    -0.203 C  
HETATM   22  O   UNL     1      -7.801  14.598  67.053  1.00  0.00    -0.318 OA 
HETATM   23  H   UNL     1      -7.433  13.874  67.546  1.00  0.00     0.000 HD 
ENDBRANCH  17  21
ENDBRANCH  16  17
ENDBRANCH  15  16
ENDBRANCH  13  15
TORSDOF 5
ENDMDL
MODEL       87
REMARK 921   NORMALIZED FREE ENERGY PREDICTED BY IDOCK:   -4.75 KCAL/MOL
REMARK 922        TOTAL FREE ENERGY PREDICTED BY IDOCK:   -6.63 KCAL/MOL
REMARK 923 INTER-LIGAND FREE ENERGY PREDICTED BY IDOCK:   -6.06 KCAL/MOL
REMARK 924 INTRA-LIGAND FREE ENERGY PREDICTED BY IDOCK:   -0.56 KCAL/MOL
REMARK 927      BINDING AFFINITY PREDICTED BY RF-SCORE:    0.00 PKD
ROOT
HETATM    1  N   UNL     1     -12.959  15.765  70.595  1.00  0.00    -0.684 NA 
HETATM    2  C   UNL     1     -12.253  15.121  69.633  1.00  0.00    -0.257 C  
HETATM    3  H1  UNL     1     -12.973  16.785  70.621  1.00  0.00     0.000 HD 
HETATM    4  H2  UNL     1     -13.476  15.230  71.293  1.00  0.00     0.000 HD 
HETATM    5  N   UNL     1     -12.234  13.815  69.600  1.00  0.00    -0.329 NA 
HETATM    6  C   UNL     1     -11.473  13.315  68.597  1.00  0.00    -0.304 A  
HETATM    7  C   UNL     1     -10.751  14.005  67.649  1.00  0.00    -0.257 A  
HETATM    8  N   UNL     1     -10.089  13.149  66.804  1.00  0.00    -0.248 NA 
HETATM    9  C   UNL     1     -10.792  15.451  67.689  1.00  0.00    -0.304 C  
HETATM   10  N   UNL     1     -11.586  15.923  68.727  1.00  0.00    -0.390 N  
HETATM   11  O   UNL     1     -10.212  16.211  66.922  1.00  0.00    -0.270 OA 
HETATM   12  C   UNL     1     -10.406  11.947  67.239  1.00  0.00    -0.205 A  
HETATM   13  N   UNL     1     -11.250  11.998  68.318  1.00  0.00    -0.239 NA 
HETATM   14  H   UNL     1     -11.682  16.934  68.827  1.00  0.00     0.000 HD 
ENDROOT
BRANCH  13  15
HETATM   15  C   UNL     1     -11.848  10.866  68.991  1.00  0.00    -0.299 C  
BRANCH  15  16
HETATM   16  O   UNL     1     -10.902  10.151  69.796  1.00  0.00    -0.240 OA 
BRANCH  16  17
HETATM   17  C   UNL     1     -11.350   9.775  71.119  1.00  0.00    -0.389 C  
BRANCH  17  18
HETATM   18  C   UNL     1     -12.798  10.198  71.405  1.00  0.00    -0.428 C  
HETATM   19  H   UNL     1     -14.294   9.626  72.573  1.00  0.00     0.000 HD 
HETATM   20  O   UNL     1     -13.397   9.365  72.396  1.00  0.00    -0.452 OA 
ENDBRANCH  17  18
BRANCH  17  21
HETATM   21  C   UNL     1     -11.223   8.245  71.213  1.00  0.00    -0.259 C  
HETATM   22  O   UNL     1     -12.295   7.616  70.509  1.00  0.00    -0.511 OA 
HETATM   23  H   UNL     1     -12.216   6.670  70.567  1.00  0.00     0.000 HD 
ENDBRANCH  17  21
ENDBRANCH  16  17
ENDBRANCH  15  16
ENDBRANCH  13  15
TORSDOF 5
ENDMDL
MODEL       88
REMARK 921   NORMALIZED FREE ENERGY PREDICTED BY IDOCK:   -4.75 KCAL/MOL
REMARK 922        TOTAL FREE ENERGY PREDICTED BY IDOCK:   -6.62 KCAL/MOL
REMARK 923 INTER-LIGAND FREE ENERGY PREDICTED BY IDOCK:   -6.20 KCAL/MOL
REMARK 924 INTRA-LIGAND FREE ENERGY PREDICTED BY IDOCK:   -0.42 KCAL/MOL
REMARK 927      BINDING AFFINITY PREDICTED BY RF-SCORE:    0.00 PKD
ROOT
HETATM    1  N   UNL     1      -8.897   8.354  66.320  1.00  0.00    -0.150 NA 
HETATM    2  C   UNL     1      -9.549   9.457  65.873  1.00  0.00    -0.270 C  
HETATM    3  H1  UNL     1      -8.378   7.769  65.666  1.00  0.00     0.000 HD 
HETATM    4  H2  UNL     1      -8.927   8.111  67.310  1.00  0.00     0.000 HD 
HETATM    5  N   UNL     1     -10.214  10.207  66.711  1.00  0.00    -0.221 NA 
HETATM    6  C   UNL     1     -10.827  11.260  66.117  1.00  0.00    -0.222 A  
HETATM    7  C   UNL     1     -10.822  11.609  64.785  1.00  0.00    -0.308 A  
HETATM    8  N   UNL     1     -11.575  12.735  64.562  1.00  0.00    -0.329 NA 
HETATM    9  C   UNL     1     -10.070  10.777  63.872  1.00  0.00    -0.333 C  
HETATM   10  N   UNL     1      -9.453   9.714  64.519  1.00  0.00    -0.432 N  
HETATM   11  O   UNL     1      -9.960  10.949  62.662  1.00  0.00    -0.206 OA 
HETATM   12  C   UNL     1     -12.036  13.065  65.751  1.00  0.00    -0.429 A  
HETATM   13  N   UNL     1     -11.601  12.204  66.726  1.00  0.00    -0.481 NA 
HETATM   14  H   UNL     1      -8.891   9.078  63.954  1.00  0.00     0.000 HD 
ENDROOT
BRANCH  13  15
HETATM   15  C   UNL     1     -11.859  12.319  68.144  1.00  0.00    -0.311 C  
BRANCH  15  16
HETATM   16  O   UNL     1     -12.180  11.056  68.742  1.00  0.00    -0.546 OA 
BRANCH  16  17
HETATM   17  C   UNL     1     -11.819  10.902  70.133  1.00  0.00    -0.353 C  
BRANCH  17  18
HETATM   18  C   UNL     1     -13.020  10.581  71.035  1.00  0.00    -0.383 C  
HETATM   19  H   UNL     1     -13.927  11.366  72.612  1.00  0.00     0.000 HD 
HETATM   20  O   UNL     1     -13.183  11.565  72.055  1.00  0.00    -0.509 OA 
ENDBRANCH  17  18
BRANCH  17  21
HETATM   21  C   UNL     1     -10.793   9.757  70.201  1.00  0.00    -0.291 C  
HETATM   22  O   UNL     1     -11.079   8.777  69.202  1.00  0.00    -0.430 OA 
HETATM   23  H   UNL     1     -10.446   8.070  69.243  1.00  0.00     0.000 HD 
ENDBRANCH  17  21
ENDBRANCH  16  17
ENDBRANCH  15  16
ENDBRANCH  13  15
TORSDOF 5
ENDMDL
MODEL       89
REMARK 921   NORMALIZED FREE ENERGY PREDICTED BY IDOCK:   -4.74 KCAL/MOL
REMARK 922        TOTAL FREE ENERGY PREDICTED BY IDOCK:   -6.61 KCAL/MOL
REMARK 923 INTER-LIGAND FREE ENERGY PREDICTED BY IDOCK:   -5.99 KCAL/MOL
REMARK 924 INTRA-LIGAND FREE ENERGY PREDICTED BY IDOCK:   -0.62 KCAL/MOL
REMARK 927      BINDING AFFINITY PREDICTED BY RF-SCORE:    0.00 PKD
ROOT
HETATM    1  N   UNL     1     -12.467  14.564  71.753  1.00  0.00    -0.342 NA 
HETATM    2  C   UNL     1     -12.254  13.729  70.706  1.00  0.00    -0.363 C  
HETATM    3  H1  UNL     1     -12.636  14.181  72.684  1.00  0.00     0.000 HD 
HETATM    4  H2  UNL     1     -12.457  15.574  71.611  1.00  0.00     0.000 HD 
HETATM    5  N   UNL     1     -12.038  14.219  69.514  1.00  0.00    -0.329 NA 
HETATM    6  C   UNL     1     -11.862  13.267  68.567  1.00  0.00    -0.349 A  
HETATM    7  C   UNL     1     -11.884  11.898  68.719  1.00  0.00    -0.313 A  
HETATM    8  N   UNL     1     -11.681  11.259  67.521  1.00  0.00    -0.599 NA 
HETATM    9  C   UNL     1     -12.110  11.370  70.046  1.00  0.00    -0.340 C  
HETATM   10  N   UNL     1     -12.280  12.377  70.988  1.00  0.00    -0.384 N  
HETATM   11  O   UNL     1     -12.156  10.184  70.353  1.00  0.00    -0.272 OA 
HETATM   12  C   UNL     1     -11.541  12.234  66.647  1.00  0.00    -0.375 A  
HETATM   13  N   UNL     1     -11.634  13.469  67.237  1.00  0.00    -0.341 NA 
HETATM   14  H   UNL     1     -12.436  12.098  71.957  1.00  0.00     0.000 HD 
ENDROOT
BRANCH  13  15
HETATM   15  C   UNL     1     -11.454  14.746  66.581  1.00  0.00    -0.335 C  
BRANCH  15  16
HETATM   16  O   UNL     1     -10.071  15.091  66.435  1.00  0.00    -0.256 OA 
BRANCH  16  17
HETATM   17  C   UNL     1      -9.682  16.386  66.948  1.00  0.00    -0.251 C  
BRANCH  17  18
HETATM   18  C   UNL     1     -10.767  17.038  67.818  1.00  0.00    -0.318 C  
HETATM   19  H   UNL     1     -11.463  18.857  68.184  1.00  0.00     0.000 HD 
HETATM   20  O   UNL     1     -10.791  18.453  67.646  1.00  0.00    -0.406 OA 
ENDBRANCH  17  18
BRANCH  17  21
HETATM   21  C   UNL     1      -8.405  16.168  67.780  1.00  0.00    -0.154 C  
HETATM   22  O   UNL     1      -8.318  17.146  68.817  1.00  0.00    -0.262 OA 
HETATM   23  H   UNL     1      -7.530  17.012  69.330  1.00  0.00     0.000 HD 
ENDBRANCH  17  21
ENDBRANCH  16  17
ENDBRANCH  15  16
ENDBRANCH  13  15
TORSDOF 5
ENDMDL
MODEL       90
REMARK 921   NORMALIZED FREE ENERGY PREDICTED BY IDOCK:   -4.74 KCAL/MOL
REMARK 922        TOTAL FREE ENERGY PREDICTED BY IDOCK:   -6.61 KCAL/MOL
REMARK 923 INTER-LIGAND FREE ENERGY PREDICTED BY IDOCK:   -6.03 KCAL/MOL
REMARK 924 INTRA-LIGAND FREE ENERGY PREDICTED BY IDOCK:   -0.58 KCAL/MOL
REMARK 927      BINDING AFFINITY PREDICTED BY RF-SCORE:    0.00 PKD
ROOT
HETATM    1  N   UNL     1      -8.638   8.275  69.455  1.00  0.00    -0.133 NA 
HETATM    2  C   UNL     1      -9.744   8.564  70.184  1.00  0.00    -0.170 C  
HETATM    3  H1  UNL     1      -8.183   7.368  69.556  1.00  0.00     0.000 HD 
HETATM    4  H2  UNL     1      -8.261   8.965  68.805  1.00  0.00     0.000 HD 
HETATM    5  N   UNL     1     -10.327   9.727  70.054  1.00  0.00    -0.245 NA 
HETATM    6  C   UNL     1     -11.406   9.878  70.859  1.00  0.00    -0.370 A  
HETATM    7  C   UNL     1     -11.933   8.977  71.757  1.00  0.00    -0.368 A  
HETATM    8  N   UNL     1     -13.026   9.498  72.404  1.00  0.00    -0.367 NA 
HETATM    9  C   UNL     1     -11.287   7.689  71.880  1.00  0.00    -0.266 C  
HETATM   10  N   UNL     1     -10.189   7.572  71.036  1.00  0.00    -0.191 N  
HETATM   11  O   UNL     1     -11.628   6.777  72.626  1.00  0.00    -0.232 OA 
HETATM   12  C   UNL     1     -13.159  10.709  71.904  1.00  0.00    -0.458 A  
HETATM   13  N   UNL     1     -12.205  10.980  70.957  1.00  0.00    -0.361 NA 
HETATM   14  H   UNL     1      -9.675   6.691  71.047  1.00  0.00     0.000 HD 
ENDROOT
BRANCH  13  15
HETATM   15  C   UNL     1     -12.107  12.184  70.161  1.00  0.00    -0.290 C  
BRANCH  15  16
HETATM   16  O   UNL     1     -11.927  13.355  70.967  1.00  0.00    -0.211 OA 
BRANCH  16  17
HETATM   17  C   UNL     1     -12.843  14.446  70.716  1.00  0.00    -0.353 C  
BRANCH  17  18
HETATM   18  C   UNL     1     -14.099  14.392  71.599  1.00  0.00    -0.431 C  
HETATM   19  H   UNL     1     -14.555  13.989  73.485  1.00  0.00     0.000 HD 
HETATM   20  O   UNL     1     -13.778  14.023  72.939  1.00  0.00    -0.677 OA 
ENDBRANCH  17  18
BRANCH  17  21
HETATM   21  C   UNL     1     -12.068  15.747  70.987  1.00  0.00    -0.418 C  
HETATM   22  O   UNL     1     -12.593  16.404  72.142  1.00  0.00    -0.487 OA 
HETATM   23  H   UNL     1     -12.114  17.207  72.309  1.00  0.00     0.000 HD 
ENDBRANCH  17  21
ENDBRANCH  16  17
ENDBRANCH  15  16
ENDBRANCH  13  15
TORSDOF 5
ENDMDL
MODEL       91
REMARK 921   NORMALIZED FREE ENERGY PREDICTED BY IDOCK:   -4.74 KCAL/MOL
REMARK 922        TOTAL FREE ENERGY PREDICTED BY IDOCK:   -6.61 KCAL/MOL
REMARK 923 INTER-LIGAND FREE ENERGY PREDICTED BY IDOCK:   -5.94 KCAL/MOL
REMARK 924 INTRA-LIGAND FREE ENERGY PREDICTED BY IDOCK:   -0.66 KCAL/MOL
REMARK 927      BINDING AFFINITY PREDICTED BY RF-SCORE:    0.00 PKD
ROOT
HETATM    1  N   UNL     1     -14.027  12.890  72.598  1.00  0.00    -0.699 NA 
HETATM    2  C   UNL     1     -13.284  12.044  71.841  1.00  0.00    -0.364 C  
HETATM    3  H1  UNL     1     -14.468  12.554  73.454  1.00  0.00     0.000 HD 
HETATM    4  H2  UNL     1     -14.145  13.862  72.311  1.00  0.00     0.000 HD 
HETATM    5  N   UNL     1     -12.720  12.475  70.744  1.00  0.00    -0.189 NA 
HETATM    6  C   UNL     1     -12.028  11.514  70.085  1.00  0.00    -0.369 A  
HETATM    7  C   UNL     1     -11.861  10.192  70.434  1.00  0.00    -0.288 A  
HETATM    8  N   UNL     1     -11.105   9.522  69.504  1.00  0.00    -0.191 NA 
HETATM    9  C   UNL     1     -12.480   9.734  71.658  1.00  0.00    -0.410 C  
HETATM   10  N   UNL     1     -13.175  10.748  72.305  1.00  0.00    -0.567 N  
HETATM   11  O   UNL     1     -12.427   8.595  72.112  1.00  0.00    -0.344 OA 
HETATM   12  C   UNL     1     -10.817  10.432  68.596  1.00  0.00    -0.232 A  
HETATM   13  N   UNL     1     -11.348  11.656  68.911  1.00  0.00    -0.241 NA 
HETATM   14  H   UNL     1     -13.636  10.519  73.185  1.00  0.00     0.000 HD 
ENDROOT
BRANCH  13  15
HETATM   15  C   UNL     1     -11.162  12.885  68.170  1.00  0.00    -0.270 C  
BRANCH  15  16
HETATM   16  O   UNL     1     -10.227  13.766  68.805  1.00  0.00    -0.226 OA 
BRANCH  16  17
HETATM   17  C   UNL     1     -10.493  15.181  68.665  1.00  0.00    -0.234 C  
BRANCH  17  18
HETATM   18  C   UNL     1     -11.554  15.694  69.650  1.00  0.00    -0.356 C  
HETATM   19  H   UNL     1     -11.797  15.828  71.612  1.00  0.00     0.000 HD 
HETATM   20  O   UNL     1     -11.140  15.510  71.003  1.00  0.00    -0.344 OA 
ENDBRANCH  17  18
BRANCH  17  21
HETATM   21  C   UNL     1      -9.159  15.908  68.907  1.00  0.00    -0.233 C  
HETATM   22  O   UNL     1      -8.383  15.209  69.882  1.00  0.00    -0.386 OA 
HETATM   23  H   UNL     1      -7.560  15.658  70.031  1.00  0.00     0.000 HD 
ENDBRANCH  17  21
ENDBRANCH  16  17
ENDBRANCH  15  16
ENDBRANCH  13  15
TORSDOF 5
ENDMDL
MODEL       92
REMARK 921   NORMALIZED FREE ENERGY PREDICTED BY IDOCK:   -4.72 KCAL/MOL
REMARK 922        TOTAL FREE ENERGY PREDICTED BY IDOCK:   -6.59 KCAL/MOL
REMARK 923 INTER-LIGAND FREE ENERGY PREDICTED BY IDOCK:   -5.98 KCAL/MOL
REMARK 924 INTRA-LIGAND FREE ENERGY PREDICTED BY IDOCK:   -0.60 KCAL/MOL
REMARK 927      BINDING AFFINITY PREDICTED BY RF-SCORE:    0.00 PKD
ROOT
HETATM    1  N   UNL     1     -14.190   8.848  73.316  1.00  0.00    -1.237 NA 
HETATM    2  C   UNL     1     -13.341   9.298  72.359  1.00  0.00    -0.449 C  
HETATM    3  H1  UNL     1     -14.799   9.502  73.807  1.00  0.00     0.000 HD 
HETATM    4  H2  UNL     1     -14.220   7.854  73.544  1.00  0.00     0.000 HD 
HETATM    5  N   UNL     1     -12.562   8.460  71.730  1.00  0.00    -0.327 NA 
HETATM    6  C   UNL     1     -11.758   9.057  70.817  1.00  0.00    -0.242 A  
HETATM    7  C   UNL     1     -11.679  10.393  70.495  1.00  0.00    -0.344 A  
HETATM    8  N   UNL     1     -10.730  10.619  69.529  1.00  0.00    -0.244 NA 
HETATM    9  C   UNL     1     -12.558  11.308  71.189  1.00  0.00    -0.397 C  
HETATM   10  N   UNL     1     -13.369  10.657  72.111  1.00  0.00    -0.580 N  
HETATM   11  O   UNL     1     -12.617  12.522  71.020  1.00  0.00    -0.361 OA 
HETATM   12  C   UNL     1     -10.233   9.427  69.270  1.00  0.00    -0.202 A  
HETATM   13  N   UNL     1     -10.832   8.448  70.021  1.00  0.00    -0.240 NA 
HETATM   14  H   UNL     1     -14.030  11.223  72.642  1.00  0.00     0.000 HD 
ENDROOT
BRANCH  13  15
HETATM   15  C   UNL     1     -10.578   7.026  69.932  1.00  0.00    -0.229 C  
BRANCH  15  16
HETATM   16  O   UNL     1     -11.352   6.399  68.903  1.00  0.00    -0.341 OA 
BRANCH  16  17
HETATM   17  C   UNL     1     -10.602   5.772  67.837  1.00  0.00    -0.231 C  
BRANCH  17  18
HETATM   18  C   UNL     1     -10.003   6.784  66.849  1.00  0.00    -0.191 C  
HETATM   19  H   UNL     1      -8.208   7.351  66.231  1.00  0.00     0.000 HD 
HETATM   20  O   UNL     1      -8.578   6.725  66.843  1.00  0.00    -0.113 OA 
ENDBRANCH  17  18
BRANCH  17  21
HETATM   21  C   UNL     1      -9.476   4.962  68.503  1.00  0.00    -0.143 C  
HETATM   22  O   UNL     1      -9.025   3.929  67.627  1.00  0.00    -0.114 OA 
HETATM   23  H   UNL     1      -8.330   3.429  68.038  1.00  0.00     0.000 HD 
ENDBRANCH  17  21
ENDBRANCH  16  17
ENDBRANCH  15  16
ENDBRANCH  13  15
TORSDOF 5
ENDMDL
MODEL       93
REMARK 921   NORMALIZED FREE ENERGY PREDICTED BY IDOCK:   -4.72 KCAL/MOL
REMARK 922        TOTAL FREE ENERGY PREDICTED BY IDOCK:   -6.58 KCAL/MOL
REMARK 923 INTER-LIGAND FREE ENERGY PREDICTED BY IDOCK:   -5.94 KCAL/MOL
REMARK 924 INTRA-LIGAND FREE ENERGY PREDICTED BY IDOCK:   -0.64 KCAL/MOL
REMARK 927      BINDING AFFINITY PREDICTED BY RF-SCORE:    0.00 PKD
ROOT
HETATM    1  N   UNL     1     -10.923   8.686  67.384  1.00  0.00    -0.428 NA 
HETATM    2  C   UNL     1     -11.283   9.690  68.221  1.00  0.00     0.054 C  
HETATM    3  H1  UNL     1     -10.807   7.739  67.745  1.00  0.00     0.000 HD 
HETATM    4  H2  UNL     1     -10.768   8.877  66.394  1.00  0.00     0.000 HD 
HETATM    5  N   UNL     1     -11.431  10.904  67.760  1.00  0.00    -0.513 NA 
HETATM    6  C   UNL     1     -11.773  11.802  68.715  1.00  0.00    -0.329 A  
HETATM    7  C   UNL     1     -11.974  11.583  70.059  1.00  0.00    -0.357 A  
HETATM    8  N   UNL     1     -12.294  12.747  70.712  1.00  0.00    -0.354 NA 
HETATM    9  C   UNL     1     -11.820  10.233  70.553  1.00  0.00    -0.329 C  
HETATM   10  N   UNL     1     -11.475   9.342  69.544  1.00  0.00    -0.427 N  
HETATM   11  O   UNL     1     -11.965   9.868  71.715  1.00  0.00    -0.381 OA 
HETATM   12  C   UNL     1     -12.284  13.668  69.770  1.00  0.00    -0.291 A  
HETATM   13  N   UNL     1     -11.982  13.139  68.541  1.00  0.00    -0.331 NA 
HETATM   14  H   UNL     1     -11.355   8.362  69.799  1.00  0.00     0.000 HD 
ENDROOT
BRANCH  13  15
HETATM   15  C   UNL     1     -11.959  13.856  67.284  1.00  0.00    -0.411 C  
BRANCH  15  16
HETATM   16  O   UNL     1     -10.702  14.504  67.052  1.00  0.00    -0.283 OA 
BRANCH  16  17
HETATM   17  C   UNL     1     -10.753  15.937  66.863  1.00  0.00    -0.289 C  
BRANCH  17  18
HETATM   18  C   UNL     1     -10.633  16.721  68.178  1.00  0.00    -0.350 C  
HETATM   19  H   UNL     1      -9.580  16.631  69.854  1.00  0.00     0.000 HD 
HETATM   20  O   UNL     1      -9.654  16.145  69.040  1.00  0.00    -0.227 OA 
ENDBRANCH  17  18
BRANCH  17  21
HETATM   21  C   UNL     1      -9.587  16.303  65.927  1.00  0.00    -0.301 C  
HETATM   22  O   UNL     1      -8.454  15.478  66.204  1.00  0.00    -0.395 OA 
HETATM   23  H   UNL     1      -7.734  15.704  65.627  1.00  0.00     0.000 HD 
ENDBRANCH  17  21
ENDBRANCH  16  17
ENDBRANCH  15  16
ENDBRANCH  13  15
TORSDOF 5
ENDMDL
MODEL       94
REMARK 921   NORMALIZED FREE ENERGY PREDICTED BY IDOCK:   -4.71 KCAL/MOL
REMARK 922        TOTAL FREE ENERGY PREDICTED BY IDOCK:   -6.58 KCAL/MOL
REMARK 923 INTER-LIGAND FREE ENERGY PREDICTED BY IDOCK:   -6.17 KCAL/MOL
REMARK 924 INTRA-LIGAND FREE ENERGY PREDICTED BY IDOCK:   -0.40 KCAL/MOL
REMARK 927      BINDING AFFINITY PREDICTED BY RF-SCORE:    0.00 PKD
ROOT
HETATM    1  N   UNL     1      -9.845   8.995  66.166  1.00  0.00    -0.313 NA 
HETATM    2  C   UNL     1     -10.296  10.266  66.022  1.00  0.00    -0.178 C  
HETATM    3  H1  UNL     1      -9.551   8.462  65.348  1.00  0.00     0.000 HD 
HETATM    4  H2  UNL     1      -9.800   8.572  67.093  1.00  0.00     0.000 HD 
HETATM    5  N   UNL     1     -10.672  10.949  67.070  1.00  0.00    -0.261 NA 
HETATM    6  C   UNL     1     -11.115  12.193  66.769  1.00  0.00    -0.300 A  
HETATM    7  C   UNL     1     -11.205  12.790  65.531  1.00  0.00    -0.294 A  
HETATM    8  N   UNL     1     -11.720  14.059  65.625  1.00  0.00    -0.342 NA 
HETATM    9  C   UNL     1     -10.771  12.027  64.381  1.00  0.00    -0.323 C  
HETATM   10  N   UNL     1     -10.320  10.761  64.732  1.00  0.00    -0.327 N  
HETATM   11  O   UNL     1     -10.783  12.409  63.215  1.00  0.00    -0.416 OA 
HETATM   12  C   UNL     1     -11.944  14.230  66.912  1.00  0.00    -0.438 A  
HETATM   13  N   UNL     1     -11.584  13.128  67.645  1.00  0.00    -0.327 NA 
HETATM   14  H   UNL     1      -9.984  10.154  63.984  1.00  0.00     0.000 HD 
ENDROOT
BRANCH  13  15
HETATM   15  C   UNL     1     -11.628  13.008  69.086  1.00  0.00    -0.316 C  
BRANCH  15  16
HETATM   16  O   UNL     1     -12.511  13.966  69.684  1.00  0.00    -0.300 OA 
BRANCH  16  17
HETATM   17  C   UNL     1     -12.369  14.157  71.110  1.00  0.00    -0.372 C  
BRANCH  17  18
HETATM   18  C   UNL     1     -12.055  15.610  71.494  1.00  0.00    -0.425 C  
HETATM   19  H   UNL     1     -12.263  16.794  73.070  1.00  0.00     0.000 HD 
HETATM   20  O   UNL     1     -12.457  15.894  72.832  1.00  0.00    -0.396 OA 
ENDBRANCH  17  18
BRANCH  17  21
HETATM   21  C   UNL     1     -13.699  13.723  71.750  1.00  0.00    -0.353 C  
HETATM   22  O   UNL     1     -13.492  13.344  73.112  1.00  0.00    -0.492 OA 
HETATM   23  H   UNL     1     -14.313  13.076  73.507  1.00  0.00     0.000 HD 
ENDBRANCH  17  21
ENDBRANCH  16  17
ENDBRANCH  15  16
ENDBRANCH  13  15
TORSDOF 5
ENDMDL
MODEL       95
REMARK 921   NORMALIZED FREE ENERGY PREDICTED BY IDOCK:   -4.68 KCAL/MOL
REMARK 922        TOTAL FREE ENERGY PREDICTED BY IDOCK:   -6.53 KCAL/MOL
REMARK 923 INTER-LIGAND FREE ENERGY PREDICTED BY IDOCK:   -5.87 KCAL/MOL
REMARK 924 INTRA-LIGAND FREE ENERGY PREDICTED BY IDOCK:   -0.66 KCAL/MOL
REMARK 927      BINDING AFFINITY PREDICTED BY RF-SCORE:    0.00 PKD
ROOT
HETATM    1  N   UNL     1      -7.617  10.790  66.753  1.00  0.00    -0.122 NA 
HETATM    2  C   UNL     1      -8.647  11.193  65.967  1.00  0.00    -0.154 C  
HETATM    3  H1  UNL     1      -6.945  10.108  66.402  1.00  0.00     0.000 HD 
HETATM    4  H2  UNL     1      -7.516  11.169  67.694  1.00  0.00     0.000 HD 
HETATM    5  N   UNL     1      -9.509  12.066  66.416  1.00  0.00    -0.227 NA 
HETATM    6  C   UNL     1     -10.490  12.356  65.528  1.00  0.00    -0.275 A  
HETATM    7  C   UNL     1     -10.667  11.853  64.258  1.00  0.00    -0.338 A  
HETATM    8  N   UNL     1     -11.790  12.375  63.667  1.00  0.00    -0.483 NA 
HETATM    9  C   UNL     1      -9.697  10.898  63.769  1.00  0.00    -0.307 C  
HETATM   10  N   UNL     1      -8.706  10.631  64.706  1.00  0.00    -0.239 N  
HETATM   11  O   UNL     1      -9.707  10.359  62.667  1.00  0.00    -0.298 OA 
HETATM   12  C   UNL     1     -12.293  13.188  64.574  1.00  0.00    -0.385 A  
HETATM   13  N   UNL     1     -11.533  13.215  65.715  1.00  0.00    -0.315 NA 
HETATM   14  H   UNL     1      -7.972   9.975  64.444  1.00  0.00     0.000 HD 
ENDROOT
BRANCH  13  15
HETATM   15  C   UNL     1     -11.759  14.053  66.873  1.00  0.00    -0.410 C  
BRANCH  15  16
HETATM   16  O   UNL     1     -12.401  13.343  67.940  1.00  0.00    -0.203 OA 
BRANCH  16  17
HETATM   17  C   UNL     1     -11.564  13.002  69.069  1.00  0.00    -0.318 C  
BRANCH  17  18
HETATM   18  C   UNL     1     -12.050  13.622  70.387  1.00  0.00    -0.351 C  
HETATM   19  H   UNL     1     -12.904  13.018  72.070  1.00  0.00     0.000 HD 
HETATM   20  O   UNL     1     -12.603  12.634  71.255  1.00  0.00    -0.350 OA 
ENDBRANCH  17  18
BRANCH  17  21
HETATM   21  C   UNL     1     -11.570  11.467  69.179  1.00  0.00    -0.316 C  
HETATM   22  O   UNL     1     -12.036  10.886  67.960  1.00  0.00    -0.780 OA 
HETATM   23  H   UNL     1     -12.040   9.938  68.029  1.00  0.00     0.000 HD 
ENDBRANCH  17  21
ENDBRANCH  16  17
ENDBRANCH  15  16
ENDBRANCH  13  15
TORSDOF 5
ENDMDL
MODEL       96
REMARK 921   NORMALIZED FREE ENERGY PREDICTED BY IDOCK:   -4.68 KCAL/MOL
REMARK 922        TOTAL FREE ENERGY PREDICTED BY IDOCK:   -6.53 KCAL/MOL
REMARK 923 INTER-LIGAND FREE ENERGY PREDICTED BY IDOCK:   -5.98 KCAL/MOL
REMARK 924 INTRA-LIGAND FREE ENERGY PREDICTED BY IDOCK:   -0.55 KCAL/MOL
REMARK 927      BINDING AFFINITY PREDICTED BY RF-SCORE:    0.00 PKD
ROOT
HETATM    1  N   UNL     1     -11.251   9.823  68.542  1.00  0.00    -0.496 NA 
HETATM    2  C   UNL     1     -10.662   9.864  67.321  1.00  0.00    -0.238 C  
HETATM    3  H1  UNL     1     -10.960   9.124  69.225  1.00  0.00     0.000 HD 
HETATM    4  H2  UNL     1     -11.986  10.491  68.777  1.00  0.00     0.000 HD 
HETATM    5  N   UNL     1     -11.036  10.759  66.446  1.00  0.00    -0.109 NA 
HETATM    6  C   UNL     1     -10.373  10.665  65.267  1.00  0.00    -0.251 A  
HETATM    7  C   UNL     1      -9.391   9.769  64.910  1.00  0.00    -0.265 A  
HETATM    8  N   UNL     1      -8.970   9.977  63.621  1.00  0.00    -0.235 NA 
HETATM    9  C   UNL     1      -8.977   8.793  65.895  1.00  0.00    -0.195 C  
HETATM   10  N   UNL     1      -9.676   8.925  67.089  1.00  0.00    -0.171 N  
HETATM   11  O   UNL     1      -8.119   7.931  65.741  1.00  0.00    -0.108 OA 
HETATM   12  C   UNL     1      -9.695  10.992  63.197  1.00  0.00    -0.369 A  
HETATM   13  N   UNL     1     -10.554  11.447  64.164  1.00  0.00    -0.343 NA 
HETATM   14  H   UNL     1      -9.443   8.284  67.847  1.00  0.00     0.000 HD 
ENDROOT
BRANCH  13  15
HETATM   15  C   UNL     1     -11.435  12.589  64.056  1.00  0.00    -0.409 C  
BRANCH  15  16
HETATM   16  O   UNL     1     -10.733  13.832  64.186  1.00  0.00    -0.289 OA 
BRANCH  16  17
HETATM   17  C   UNL     1     -10.992  14.583  65.395  1.00  0.00    -0.342 C  
BRANCH  17  18
HETATM   18  C   UNL     1      -9.728  15.230  65.982  1.00  0.00    -0.335 C  
HETATM   19  H   UNL     1      -8.893  17.025  66.054  1.00  0.00     0.000 HD 
HETATM   20  O   UNL     1      -9.674  16.625  65.691  1.00  0.00    -0.530 OA 
ENDBRANCH  17  18
BRANCH  17  21
HETATM   21  C   UNL     1     -12.016  15.672  65.030  1.00  0.00     0.249 C  
HETATM   22  O   UNL     1     -11.651  16.302  63.802  1.00  0.00    -1.539 OA 
HETATM   23  H   UNL     1     -12.283  16.975  63.576  1.00  0.00     0.000 HD 
ENDBRANCH  17  21
ENDBRANCH  16  17
ENDBRANCH  15  16
ENDBRANCH  13  15
TORSDOF 5
ENDMDL
MODEL       97
REMARK 921   NORMALIZED FREE ENERGY PREDICTED BY IDOCK:   -4.66 KCAL/MOL
REMARK 922        TOTAL FREE ENERGY PREDICTED BY IDOCK:   -6.51 KCAL/MOL
REMARK 923 INTER-LIGAND FREE ENERGY PREDICTED BY IDOCK:   -6.21 KCAL/MOL
REMARK 924 INTRA-LIGAND FREE ENERGY PREDICTED BY IDOCK:   -0.30 KCAL/MOL
REMARK 927      BINDING AFFINITY PREDICTED BY RF-SCORE:    0.00 PKD
ROOT
HETATM    1  N   UNL     1      -9.353   8.736  65.287  1.00  0.00    -0.445 NA 
HETATM    2  C   UNL     1     -10.007   9.912  65.458  1.00  0.00    -0.292 C  
HETATM    3  H1  UNL     1      -9.080   8.437  64.351  1.00  0.00     0.000 HD 
HETATM    4  H2  UNL     1      -9.133   8.152  66.093  1.00  0.00     0.000 HD 
HETATM    5  N   UNL     1     -10.357  10.295  66.658  1.00  0.00    -0.230 NA 
HETATM    6  C   UNL     1     -11.018  11.477  66.670  1.00  0.00    -0.296 A  
HETATM    7  C   UNL     1     -11.345  12.284  65.603  1.00  0.00    -0.350 A  
HETATM    8  N   UNL     1     -12.034  13.398  66.012  1.00  0.00    -0.392 NA 
HETATM    9  C   UNL     1     -10.938  11.854  64.283  1.00  0.00    -0.353 C  
HETATM   10  N   UNL     1     -10.260  10.641  64.313  1.00  0.00    -0.353 N  
HETATM   11  O   UNL     1     -11.146  12.452  63.233  1.00  0.00    -0.438 OA 
HETATM   12  C   UNL     1     -12.127  13.268  67.319  1.00  0.00    -0.289 A  
HETATM   13  N   UNL     1     -11.518  12.122  67.764  1.00  0.00    -0.309 NA 
HETATM   14  H   UNL     1      -9.926  10.264  63.427  1.00  0.00     0.000 HD 
ENDROOT
BRANCH  13  15
HETATM   15  C   UNL     1     -11.373  11.712  69.144  1.00  0.00    -0.283 C  
BRANCH  15  16
HETATM   16  O   UNL     1     -12.121  10.526  69.440  1.00  0.00    -0.225 OA 
BRANCH  16  17
HETATM   17  C   UNL     1     -12.760  10.486  70.736  1.00  0.00    -0.381 C  
BRANCH  17  18
HETATM   18  C   UNL     1     -12.112   9.475  71.694  1.00  0.00    -0.398 C  
HETATM   19  H   UNL     1     -12.021   7.508  71.915  1.00  0.00     0.000 HD 
HETATM   20  O   UNL     1     -12.422   8.133  71.322  1.00  0.00    -0.307 OA 
ENDBRANCH  17  18
BRANCH  17  21
HETATM   21  C   UNL     1     -12.658  11.904  71.325  1.00  0.00    -0.277 C  
HETATM   22  O   UNL     1     -13.510  12.029  72.465  1.00  0.00    -0.590 OA 
HETATM   23  H   UNL     1     -13.447  12.904  72.828  1.00  0.00     0.000 HD 
ENDBRANCH  17  21
ENDBRANCH  16  17
ENDBRANCH  15  16
ENDBRANCH  13  15
TORSDOF 5
ENDMDL
MODEL       98
REMARK 921   NORMALIZED FREE ENERGY PREDICTED BY IDOCK:   -4.66 KCAL/MOL
REMARK 922        TOTAL FREE ENERGY PREDICTED BY IDOCK:   -6.50 KCAL/MOL
REMARK 923 INTER-LIGAND FREE ENERGY PREDICTED BY IDOCK:   -5.86 KCAL/MOL
REMARK 924 INTRA-LIGAND FREE ENERGY PREDICTED BY IDOCK:   -0.64 KCAL/MOL
REMARK 927      BINDING AFFINITY PREDICTED BY RF-SCORE:    0.00 PKD
ROOT
HETATM    1  N   UNL     1      -9.127  17.331  65.685  1.00  0.00    -0.344 NA 
HETATM    2  C   UNL     1      -8.928  16.162  66.344  1.00  0.00    -0.318 C  
HETATM    3  H1  UNL     1      -8.358  17.991  65.574  1.00  0.00     0.000 HD 
HETATM    4  H2  UNL     1     -10.046  17.549  65.300  1.00  0.00     0.000 HD 
HETATM    5  N   UNL     1      -9.914  15.316  66.485  1.00  0.00    -0.254 NA 
HETATM    6  C   UNL     1      -9.570  14.205  67.180  1.00  0.00    -0.244 A  
HETATM    7  C   UNL     1      -8.348  13.884  67.727  1.00  0.00    -0.174 A  
HETATM    8  N   UNL     1      -8.392  12.675  68.374  1.00  0.00    -0.153 NA 
HETATM    9  C   UNL     1      -7.262  14.824  67.549  1.00  0.00    -0.197 C  
HETATM   10  N   UNL     1      -7.653  15.945  66.829  1.00  0.00    -0.215 N  
HETATM   11  O   UNL     1      -6.117  14.691  67.968  1.00  0.00    -0.131 OA 
HETATM   12  C   UNL     1      -9.634  12.265  68.224  1.00  0.00    -0.212 A  
HETATM   13  N   UNL     1     -10.384  13.156  67.499  1.00  0.00    -0.223 NA 
HETATM   14  H   UNL     1      -6.948  16.660  66.646  1.00  0.00     0.000 HD 
ENDROOT
BRANCH  13  15
HETATM   15  C   UNL     1     -11.760  12.982  67.089  1.00  0.00    -0.382 C  
BRANCH  15  16
HETATM   16  O   UNL     1     -11.931  11.854  66.223  1.00  0.00    -0.554 OA 
BRANCH  16  17
HETATM   17  C   UNL     1     -12.016  12.146  64.809  1.00  0.00    -0.307 C  
BRANCH  17  18
HETATM   18  C   UNL     1     -12.238  13.637  64.516  1.00  0.00    -0.401 C  
HETATM   19  H   UNL     1     -12.755  14.773  62.977  1.00  0.00     0.000 HD 
HETATM   20  O   UNL     1     -12.618  13.850  63.158  1.00  0.00    -0.775 OA 
ENDBRANCH  17  18
BRANCH  17  21
HETATM   21  C   UNL     1     -10.692  11.680  64.179  1.00  0.00    -0.362 C  
HETATM   22  O   UNL     1     -10.139  12.717  63.367  1.00  0.00    -0.613 OA 
HETATM   23  H   UNL     1      -9.321  12.430  62.978  1.00  0.00     0.000 HD 
ENDBRANCH  17  21
ENDBRANCH  16  17
ENDBRANCH  15  16
ENDBRANCH  13  15
TORSDOF 5
ENDMDL
MODEL       99
REMARK 921   NORMALIZED FREE ENERGY PREDICTED BY IDOCK:   -4.65 KCAL/MOL
REMARK 922        TOTAL FREE ENERGY PREDICTED BY IDOCK:   -6.50 KCAL/MOL
REMARK 923 INTER-LIGAND FREE ENERGY PREDICTED BY IDOCK:   -6.12 KCAL/MOL
REMARK 924 INTRA-LIGAND FREE ENERGY PREDICTED BY IDOCK:   -0.38 KCAL/MOL
REMARK 927      BINDING AFFINITY PREDICTED BY RF-SCORE:    0.00 PKD
ROOT
HETATM    1  N   UNL     1      -9.719  10.262  62.563  1.00  0.00    -0.669 NA 
HETATM    2  C   UNL     1     -10.373  11.093  63.413  1.00  0.00    -0.360 C  
HETATM    3  H1  UNL     1      -9.886  10.325  61.559  1.00  0.00     0.000 HD 
HETATM    4  H2  UNL     1      -9.059   9.575  62.928  1.00  0.00     0.000 HD 
HETATM    5  N   UNL     1     -10.159  11.012  64.699  1.00  0.00    -0.286 NA 
HETATM    6  C   UNL     1     -10.896  11.890  65.421  1.00  0.00    -0.294 A  
HETATM    7  C   UNL     1     -11.806  12.819  64.965  1.00  0.00    -0.382 A  
HETATM    8  N   UNL     1     -12.368  13.519  66.002  1.00  0.00    -0.441 NA 
HETATM    9  C   UNL     1     -12.022  12.906  63.537  1.00  0.00    -0.556 C  
HETATM   10  N   UNL     1     -11.245  11.995  62.833  1.00  0.00    -0.513 N  
HETATM   11  O   UNL     1     -12.790  13.675  62.969  1.00  0.00    -0.491 OA 
HETATM   12  C   UNL     1     -11.806  13.016  67.082  1.00  0.00    -0.373 A  
HETATM   13  N   UNL     1     -10.900  12.032  66.778  1.00  0.00    -0.253 NA 
HETATM   14  H   UNL     1     -11.324  11.991  61.816  1.00  0.00     0.000 HD 
ENDROOT
BRANCH  13  15
HETATM   15  C   UNL     1     -10.056  11.327  67.717  1.00  0.00    -0.179 C  
BRANCH  15  16
HETATM   16  O   UNL     1     -10.569  10.027  68.039  1.00  0.00    -0.203 OA 
BRANCH  16  17
HETATM   17  C   UNL     1      -9.752   8.905  67.634  1.00  0.00    -0.161 C  
BRANCH  17  18
HETATM   18  C   UNL     1      -8.752   8.469  68.716  1.00  0.00    -0.139 C  
HETATM   19  H   UNL     1      -8.754   7.364  70.361  1.00  0.00     0.000 HD 
HETATM   20  O   UNL     1      -9.372   7.634  69.692  1.00  0.00    -0.157 OA 
ENDBRANCH  17  18
BRANCH  17  21
HETATM   21  C   UNL     1     -10.714   7.748  67.314  1.00  0.00    -0.255 C  
HETATM   22  O   UNL     1     -10.313   7.089  66.112  1.00  0.00    -0.405 OA 
HETATM   23  H   UNL     1     -10.908   6.375  65.915  1.00  0.00     0.000 HD 
ENDBRANCH  17  21
ENDBRANCH  16  17
ENDBRANCH  15  16
ENDBRANCH  13  15
TORSDOF 5
ENDMDL
MODEL      100
REMARK 921   NORMALIZED FREE ENERGY PREDICTED BY IDOCK:   -4.65 KCAL/MOL
REMARK 922        TOTAL FREE ENERGY PREDICTED BY IDOCK:   -6.49 KCAL/MOL
REMARK 923 INTER-LIGAND FREE ENERGY PREDICTED BY IDOCK:   -5.47 KCAL/MOL
REMARK 924 INTRA-LIGAND FREE ENERGY PREDICTED BY IDOCK:   -1.02 KCAL/MOL
REMARK 927      BINDING AFFINITY PREDICTED BY RF-SCORE:    0.00 PKD
ROOT
HETATM    1  N   UNL     1      -7.534  10.563  66.437  1.00  0.00    -0.126 NA 
HETATM    2  C   UNL     1      -8.607  10.904  65.681  1.00  0.00    -0.160 C  
HETATM    3  H1  UNL     1      -6.794   9.983  66.041  1.00  0.00     0.000 HD 
HETATM    4  H2  UNL     1      -7.466  10.887  67.402  1.00  0.00     0.000 HD 
HETATM    5  N   UNL     1      -9.554  11.647  66.189  1.00  0.00    -0.226 NA 
HETATM    6  C   UNL     1     -10.568  11.888  65.323  1.00  0.00    -0.275 A  
HETATM    7  C   UNL     1     -10.700  11.456  64.022  1.00  0.00    -0.387 A  
HETATM    8  N   UNL     1     -11.878  11.892  63.468  1.00  0.00    -0.486 NA 
HETATM    9  C   UNL     1      -9.637  10.647  63.469  1.00  0.00    -0.323 C  
HETATM   10  N   UNL     1      -8.615  10.426  64.385  1.00  0.00    -0.179 N  
HETATM   11  O   UNL     1      -9.596  10.185  62.333  1.00  0.00    -0.276 OA 
HETATM   12  C   UNL     1     -12.458  12.582  64.428  1.00  0.00    -0.446 A  
HETATM   13  N   UNL     1     -11.697  12.615  65.568  1.00  0.00    -0.380 NA 
HETATM   14  H   UNL     1      -7.816   9.872  64.078  1.00  0.00     0.000 HD 
ENDROOT
BRANCH  13  15
HETATM   15  C   UNL     1     -12.002  13.343  66.780  1.00  0.00    -0.394 C  
BRANCH  15  16
HETATM   16  O   UNL     1     -11.887  14.761  66.606  1.00  0.00    -0.342 OA 
BRANCH  16  17
HETATM   17  C   UNL     1     -10.781  15.396  67.288  1.00  0.00    -0.307 C  
BRANCH  17  18
HETATM   18  C   UNL     1     -10.291  14.602  68.508  1.00  0.00    -0.238 C  
HETATM   19  H   UNL     1      -9.112  14.890  70.074  1.00  0.00     0.000 HD 
HETATM   20  O   UNL     1      -9.415  15.382  69.320  1.00  0.00    -0.230 OA 
ENDBRANCH  17  18
BRANCH  17  21
HETATM   21  C   UNL     1      -9.644  15.530  66.260  1.00  0.00    -0.309 C  
HETATM   22  O   UNL     1      -8.578  14.635  66.582  1.00  0.00    -0.389 OA 
HETATM   23  H   UNL     1      -7.876  14.718  65.947  1.00  0.00     0.000 HD 
ENDBRANCH  17  21
ENDBRANCH  16  17
ENDBRANCH  15  16
ENDBRANCH  13  15
TORSDOF 5
ENDMDL
MODEL      101
REMARK 921   NORMALIZED FREE ENERGY PREDICTED BY IDOCK:   -4.64 KCAL/MOL
REMARK 922        TOTAL FREE ENERGY PREDICTED BY IDOCK:   -6.48 KCAL/MOL
REMARK 923 INTER-LIGAND FREE ENERGY PREDICTED BY IDOCK:   -5.94 KCAL/MOL
REMARK 924 INTRA-LIGAND FREE ENERGY PREDICTED BY IDOCK:   -0.54 KCAL/MOL
REMARK 927      BINDING AFFINITY PREDICTED BY RF-SCORE:    0.00 PKD
ROOT
HETATM    1  N   UNL     1     -11.005  18.544  64.921  1.00  0.00    -0.253 NA 
HETATM    2  C   UNL     1     -10.383  17.873  65.922  1.00  0.00    -0.259 C  
HETATM    3  H1  UNL     1     -10.724  19.498  64.696  1.00  0.00     0.000 HD 
HETATM    4  H2  UNL     1     -11.753  18.095  64.393  1.00  0.00     0.000 HD 
HETATM    5  N   UNL     1     -10.744  16.650  66.211  1.00  0.00    -0.187 NA 
HETATM    6  C   UNL     1     -10.048  16.116  67.244  1.00  0.00    -0.265 A  
HETATM    7  C   UNL     1      -9.045  16.697  67.988  1.00  0.00    -0.218 A  
HETATM    8  N   UNL     1      -8.592  15.847  68.965  1.00  0.00    -0.225 NA 
HETATM    9  C   UNL     1      -8.647  18.046  67.647  1.00  0.00    -0.247 C  
HETATM   10  N   UNL     1      -9.379  18.555  66.582  1.00  0.00    -0.301 N  
HETATM   11  O   UNL     1      -7.774  18.703  68.204  1.00  0.00    -0.264 OA 
HETATM   12  C   UNL     1      -9.317  14.757  68.817  1.00  0.00    -0.198 A  
HETATM   13  N   UNL     1     -10.208  14.872  67.779  1.00  0.00    -0.235 NA 
HETATM   14  H   UNL     1      -9.160  19.499  66.265  1.00  0.00     0.000 HD 
ENDROOT
BRANCH  13  15
HETATM   15  C   UNL     1     -11.099  13.838  67.300  1.00  0.00    -0.304 C  
BRANCH  15  16
HETATM   16  O   UNL     1     -10.598  13.190  66.124  1.00  0.00    -0.273 OA 
BRANCH  16  17
HETATM   17  C   UNL     1     -11.588  12.788  65.151  1.00  0.00    -0.338 C  
BRANCH  17  18
HETATM   18  C   UNL     1     -12.652  13.865  64.894  1.00  0.00    -0.347 C  
HETATM   19  H   UNL     1     -13.383  14.873  63.352  1.00  0.00     0.000 HD 
HETATM   20  O   UNL     1     -12.725  14.206  63.511  1.00  0.00    -0.794 OA 
ENDBRANCH  17  18
BRANCH  17  21
HETATM   21  C   UNL     1     -10.830  12.480  63.848  1.00  0.00    -0.431 C  
HETATM   22  O   UNL     1     -11.365  11.309  63.229  1.00  0.00    -0.804 OA 
HETATM   23  H   UNL     1     -10.897  11.118  62.425  1.00  0.00     0.000 HD 
ENDBRANCH  17  21
ENDBRANCH  16  17
ENDBRANCH  15  16
ENDBRANCH  13  15
TORSDOF 5
ENDMDL
MODEL      102
REMARK 921   NORMALIZED FREE ENERGY PREDICTED BY IDOCK:   -4.63 KCAL/MOL
REMARK 922        TOTAL FREE ENERGY PREDICTED BY IDOCK:   -6.47 KCAL/MOL
REMARK 923 INTER-LIGAND FREE ENERGY PREDICTED BY IDOCK:   -5.97 KCAL/MOL
REMARK 924 INTRA-LIGAND FREE ENERGY PREDICTED BY IDOCK:   -0.50 KCAL/MOL
REMARK 927      BINDING AFFINITY PREDICTED BY RF-SCORE:    0.00 PKD
ROOT
HETATM    1  N   UNL     1     -12.950  15.742  70.566  1.00  0.00    -0.710 NA 
HETATM    2  C   UNL     1     -12.052  15.203  69.704  1.00  0.00    -0.304 C  
HETATM    3  H1  UNL     1     -13.901  15.374  70.608  1.00  0.00     0.000 HD 
HETATM    4  H2  UNL     1     -12.676  16.514  71.173  1.00  0.00     0.000 HD 
HETATM    5  N   UNL     1     -10.835  15.674  69.651  1.00  0.00    -0.261 NA 
HETATM    6  C   UNL     1     -10.059  15.051  68.731  1.00  0.00    -0.231 A  
HETATM    7  C   UNL     1     -10.400  14.018  67.887  1.00  0.00    -0.239 A  
HETATM    8  N   UNL     1      -9.346  13.662  67.083  1.00  0.00    -0.231 NA 
HETATM    9  C   UNL     1     -11.747  13.497  67.968  1.00  0.00    -0.359 C  
HETATM   10  N   UNL     1     -12.508  14.158  68.924  1.00  0.00    -0.490 N  
HETATM   11  O   UNL     1     -12.209  12.583  67.293  1.00  0.00    -0.454 OA 
HETATM   12  C   UNL     1      -8.373  14.476  67.435  1.00  0.00    -0.200 A  
HETATM   13  N   UNL     1      -8.756  15.330  68.438  1.00  0.00    -0.164 NA 
HETATM   14  H   UNL     1     -13.471  13.851  69.058  1.00  0.00     0.000 HD 
ENDROOT
BRANCH  13  15
HETATM   15  C   UNL     1      -7.913  16.297  69.106  1.00  0.00    -0.221 C  
BRANCH  15  16
HETATM   16  O   UNL     1      -7.739  17.492  68.333  1.00  0.00    -0.240 OA 
BRANCH  16  17
HETATM   17  C   UNL     1      -8.951  18.131  67.871  1.00  0.00    -0.269 C  
BRANCH  17  18
HETATM   18  C   UNL     1      -9.232  19.466  68.576  1.00  0.00    -0.375 C  
HETATM   19  H   UNL     1      -9.984  21.242  68.119  1.00  0.00     0.000 HD 
HETATM   20  O   UNL     1      -9.810  20.416  67.682  1.00  0.00    -0.415 OA 
ENDBRANCH  17  18
BRANCH  17  21
HETATM   21  C   UNL     1      -8.782  18.363  66.359  1.00  0.00    -0.247 C  
HETATM   22  O   UNL     1     -10.052  18.320  65.708  1.00  0.00    -0.560 OA 
HETATM   23  H   UNL     1      -9.948  18.464  64.774  1.00  0.00     0.000 HD 
ENDBRANCH  17  21
ENDBRANCH  16  17
ENDBRANCH  15  16
ENDBRANCH  13  15
TORSDOF 5
ENDMDL
MODEL      103
REMARK 921   NORMALIZED FREE ENERGY PREDICTED BY IDOCK:   -4.63 KCAL/MOL
REMARK 922        TOTAL FREE ENERGY PREDICTED BY IDOCK:   -6.47 KCAL/MOL
REMARK 923 INTER-LIGAND FREE ENERGY PREDICTED BY IDOCK:   -6.25 KCAL/MOL
REMARK 924 INTRA-LIGAND FREE ENERGY PREDICTED BY IDOCK:   -0.21 KCAL/MOL
REMARK 927      BINDING AFFINITY PREDICTED BY RF-SCORE:    0.00 PKD
ROOT
HETATM    1  N   UNL     1     -10.809  16.792  69.983  1.00  0.00    -0.344 NA 
HETATM    2  C   UNL     1     -10.831  16.592  68.642  1.00  0.00    -0.344 C  
HETATM    3  H1  UNL     1     -10.551  17.704  70.359  1.00  0.00     0.000 HD 
HETATM    4  H2  UNL     1     -11.052  16.030  70.617  1.00  0.00     0.000 HD 
HETATM    5  N   UNL     1     -11.162  15.423  68.161  1.00  0.00    -0.312 NA 
HETATM    6  C   UNL     1     -11.119  15.370  66.808  1.00  0.00    -0.244 A  
HETATM    7  C   UNL     1     -10.782  16.371  65.924  1.00  0.00    -0.214 A  
HETATM    8  N   UNL     1     -10.840  15.931  64.626  1.00  0.00    -0.564 NA 
HETATM    9  C   UNL     1     -10.432  17.663  66.471  1.00  0.00    -0.283 C  
HETATM   10  N   UNL     1     -10.492  17.679  67.859  1.00  0.00    -0.379 N  
HETATM   11  O   UNL     1     -10.112  18.657  65.827  1.00  0.00    -0.529 OA 
HETATM   12  C   UNL     1     -11.207  14.669  64.720  1.00  0.00    -0.389 A  
HETATM   13  N   UNL     1     -11.397  14.288  66.024  1.00  0.00    -0.328 NA 
HETATM   14  H   UNL     1     -10.270  18.554  68.333  1.00  0.00     0.000 HD 
ENDROOT
BRANCH  13  15
HETATM   15  C   UNL     1     -11.870  12.998  66.477  1.00  0.00    -0.403 C  
BRANCH  15  16
HETATM   16  O   UNL     1     -10.941  12.358  67.360  1.00  0.00    -0.236 OA 
BRANCH  16  17
HETATM   17  C   UNL     1     -10.941  10.912  67.342  1.00  0.00    -0.293 C  
BRANCH  17  18
HETATM   18  C   UNL     1      -9.645  10.319  66.771  1.00  0.00    -0.172 C  
HETATM   19  H   UNL     1      -9.085   8.716  65.748  1.00  0.00     0.000 HD 
HETATM   20  O   UNL     1      -9.888   9.083  66.102  1.00  0.00    -0.271 OA 
ENDBRANCH  17  18
BRANCH  17  21
HETATM   21  C   UNL     1     -11.132  10.449  68.797  1.00  0.00    -0.250 C  
HETATM   22  O   UNL     1     -12.483  10.657  69.209  1.00  0.00    -0.703 OA 
HETATM   23  H   UNL     1     -12.601  10.371  70.107  1.00  0.00     0.000 HD 
ENDBRANCH  17  21
ENDBRANCH  16  17
ENDBRANCH  15  16
ENDBRANCH  13  15
TORSDOF 5
ENDMDL
MODEL      104
REMARK 921   NORMALIZED FREE ENERGY PREDICTED BY IDOCK:   -4.58 KCAL/MOL
REMARK 922        TOTAL FREE ENERGY PREDICTED BY IDOCK:   -6.41 KCAL/MOL
REMARK 923 INTER-LIGAND FREE ENERGY PREDICTED BY IDOCK:   -6.11 KCAL/MOL
REMARK 924 INTRA-LIGAND FREE ENERGY PREDICTED BY IDOCK:   -0.30 KCAL/MOL
REMARK 927      BINDING AFFINITY PREDICTED BY RF-SCORE:    0.00 PKD
ROOT
HETATM    1  N   UNL     1     -11.592  10.861  70.659  1.00  0.00    -0.408 NA 
HETATM    2  C   UNL     1     -11.075  10.289  69.543  1.00  0.00    -0.262 C  
HETATM    3  H1  UNL     1     -11.628  10.336  71.532  1.00  0.00     0.000 HD 
HETATM    4  H2  UNL     1     -11.943  11.818  70.625  1.00  0.00     0.000 HD 
HETATM    5  N   UNL     1     -11.028  10.962  68.425  1.00  0.00    -0.217 NA 
HETATM    6  C   UNL     1     -10.505  10.255  67.395  1.00  0.00    -0.251 A  
HETATM    7  C   UNL     1     -10.036   8.960  67.400  1.00  0.00    -0.227 A  
HETATM    8  N   UNL     1      -9.597   8.583  66.156  1.00  0.00    -0.228 NA 
HETATM    9  C   UNL     1     -10.081   8.231  68.649  1.00  0.00    -0.197 C  
HETATM   10  N   UNL     1     -10.618   8.992  69.680  1.00  0.00    -0.223 N  
HETATM   11  O   UNL     1      -9.703   7.078  68.826  1.00  0.00    -0.142 OA 
HETATM   12  C   UNL     1      -9.800   9.642  65.399  1.00  0.00    -0.252 A  
HETATM   13  N   UNL     1     -10.342  10.683  66.109  1.00  0.00    -0.244 NA 
HETATM   14  H   UNL     1     -10.680   8.562  70.603  1.00  0.00     0.000 HD 
ENDROOT
BRANCH  13  15
HETATM   15  C   UNL     1     -10.621  12.009  65.604  1.00  0.00    -0.265 C  
BRANCH  15  16
HETATM   16  O   UNL     1     -12.006  12.355  65.722  1.00  0.00    -0.481 OA 
BRANCH  16  17
HETATM   17  C   UNL     1     -12.317  13.765  65.647  1.00  0.00    -0.482 C  
BRANCH  17  18
HETATM   18  C   UNL     1     -11.800  14.560  66.856  1.00  0.00    -0.377 C  
HETATM   19  H   UNL     1     -11.880  14.448  68.833  1.00  0.00     0.000 HD 
HETATM   20  O   UNL     1     -12.199  13.956  68.085  1.00  0.00    -0.329 OA 
ENDBRANCH  17  18
BRANCH  17  21
HETATM   21  C   UNL     1     -11.667  14.295  64.357  1.00  0.00    -0.389 C  
HETATM   22  O   UNL     1     -12.508  14.026  63.234  1.00  0.00    -1.139 OA 
HETATM   23  H   UNL     1     -12.107  14.353  62.437  1.00  0.00     0.000 HD 
ENDBRANCH  17  21
ENDBRANCH  16  17
ENDBRANCH  15  16
ENDBRANCH  13  15
TORSDOF 5
ENDMDL
MODEL      105
REMARK 921   NORMALIZED FREE ENERGY PREDICTED BY IDOCK:   -4.57 KCAL/MOL
REMARK 922        TOTAL FREE ENERGY PREDICTED BY IDOCK:   -6.40 KCAL/MOL
REMARK 923 INTER-LIGAND FREE ENERGY PREDICTED BY IDOCK:   -5.99 KCAL/MOL
REMARK 924 INTRA-LIGAND FREE ENERGY PREDICTED BY IDOCK:   -0.40 KCAL/MOL
REMARK 927      BINDING AFFINITY PREDICTED BY RF-SCORE:    0.00 PKD
ROOT
HETATM    1  N   UNL     1      -9.985  11.648  68.782  1.00  0.00    -0.345 NA 
HETATM    2  C   UNL     1     -10.804  11.018  69.661  1.00  0.00    -0.183 C  
HETATM    3  H1  UNL     1     -10.053  12.658  68.656  1.00  0.00     0.000 HD 
HETATM    4  H2  UNL     1      -9.301  11.112  68.248  1.00  0.00     0.000 HD 
HETATM    5  N   UNL     1     -10.717   9.724  69.823  1.00  0.00    -0.240 NA 
HETATM    6  C   UNL     1     -11.610   9.235  70.717  1.00  0.00    -0.285 A  
HETATM    7  C   UNL     1     -12.556   9.924  71.442  1.00  0.00    -0.398 A  
HETATM    8  N   UNL     1     -13.290   9.078  72.235  1.00  0.00    -0.436 NA 
HETATM    9  C   UNL     1     -12.631  11.357  71.264  1.00  0.00    -0.374 C  
HETATM   10  N   UNL     1     -11.697  11.820  70.344  1.00  0.00    -0.519 N  
HETATM   11  O   UNL     1     -13.409  12.116  71.832  1.00  0.00    -0.463 OA 
HETATM   12  C   UNL     1     -12.795   7.883  71.990  1.00  0.00    -0.263 A  
HETATM   13  N   UNL     1     -11.768   7.930  71.082  1.00  0.00    -0.284 NA 
HETATM   14  H   UNL     1     -11.670  12.823  70.161  1.00  0.00     0.000 HD 
ENDROOT
BRANCH  13  15
HETATM   15  C   UNL     1     -10.959   6.812  70.648  1.00  0.00    -0.267 C  
BRANCH  15  16
HETATM   16  O   UNL     1     -11.360   6.319  69.363  1.00  0.00    -0.412 OA 
BRANCH  16  17
HETATM   17  C   UNL     1     -10.310   6.193  68.377  1.00  0.00    -0.200 C  
BRANCH  17  18
HETATM   18  C   UNL     1      -9.891   4.737  68.127  1.00  0.00    -0.120 C  
HETATM   19  H   UNL     1      -8.585   3.436  68.857  1.00  0.00     0.000 HD 
HETATM   20  O   UNL     1      -8.845   4.337  69.011  1.00  0.00    -0.087 OA 
ENDBRANCH  17  18
BRANCH  17  21
HETATM   21  C   UNL     1     -10.848   6.812  67.075  1.00  0.00    -0.383 C  
HETATM   22  O   UNL     1     -11.233   5.785  66.160  1.00  0.00    -0.735 OA 
HETATM   23  H   UNL     1     -11.565   6.167  65.357  1.00  0.00     0.000 HD 
ENDBRANCH  17  21
ENDBRANCH  16  17
ENDBRANCH  15  16
ENDBRANCH  13  15
TORSDOF 5
ENDMDL
MODEL      106
REMARK 921   NORMALIZED FREE ENERGY PREDICTED BY IDOCK:   -4.57 KCAL/MOL
REMARK 922        TOTAL FREE ENERGY PREDICTED BY IDOCK:   -6.39 KCAL/MOL
REMARK 923 INTER-LIGAND FREE ENERGY PREDICTED BY IDOCK:   -5.97 KCAL/MOL
REMARK 924 INTRA-LIGAND FREE ENERGY PREDICTED BY IDOCK:   -0.42 KCAL/MOL
REMARK 927      BINDING AFFINITY PREDICTED BY RF-SCORE:    0.00 PKD
ROOT
HETATM    1  N   UNL     1     -10.941  19.460  67.161  1.00  0.00    -0.449 NA 
HETATM    2  C   UNL     1     -10.126  18.377  67.123  1.00  0.00    -0.353 C  
HETATM    3  H1  UNL     1     -10.559  20.391  66.998  1.00  0.00     0.000 HD 
HETATM    4  H2  UNL     1     -11.936  19.343  67.353  1.00  0.00     0.000 HD 
HETATM    5  N   UNL     1     -10.616  17.183  67.332  1.00  0.00    -0.326 NA 
HETATM    6  C   UNL     1      -9.681  16.204  67.281  1.00  0.00    -0.233 A  
HETATM    7  C   UNL     1      -8.330  16.326  67.042  1.00  0.00    -0.205 A  
HETATM    8  N   UNL     1      -7.703  15.106  67.086  1.00  0.00    -0.208 NA 
HETATM    9  C   UNL     1      -7.805  17.651  66.798  1.00  0.00    -0.234 C  
HETATM   10  N   UNL     1      -8.794  18.625  66.853  1.00  0.00    -0.278 N  
HETATM   11  O   UNL     1      -6.634  17.933  66.567  1.00  0.00    -0.177 OA 
HETATM   12  C   UNL     1      -8.667  14.249  67.354  1.00  0.00    -0.209 A  
HETATM   13  N   UNL     1      -9.885  14.869  67.472  1.00  0.00    -0.217 NA 
HETATM   14  H   UNL     1      -8.517  19.592  66.683  1.00  0.00     0.000 HD 
ENDROOT
BRANCH  13  15
HETATM   15  C   UNL     1     -11.158  14.217  67.689  1.00  0.00    -0.292 C  
BRANCH  15  16
HETATM   16  O   UNL     1     -12.169  14.686  66.788  1.00  0.00    -0.314 OA 
BRANCH  16  17
HETATM   17  C   UNL     1     -12.509  13.799  65.698  1.00  0.00    -0.503 C  
BRANCH  17  18
HETATM   18  C   UNL     1     -11.974  14.282  64.341  1.00  0.00    -0.456 C  
HETATM   19  H   UNL     1     -12.295  13.919  62.420  1.00  0.00     0.000 HD 
HETATM   20  O   UNL     1     -12.626  13.620  63.259  1.00  0.00    -0.816 OA 
ENDBRANCH  17  18
BRANCH  17  21
HETATM   21  C   UNL     1     -11.905  12.425  66.039  1.00  0.00    -0.395 C  
HETATM   22  O   UNL     1     -11.208  11.897  64.909  1.00  0.00    -0.309 OA 
HETATM   23  H   UNL     1     -10.835  11.049  65.120  1.00  0.00     0.000 HD 
ENDBRANCH  17  21
ENDBRANCH  16  17
ENDBRANCH  15  16
ENDBRANCH  13  15
TORSDOF 5
ENDMDL
MODEL      107
REMARK 921   NORMALIZED FREE ENERGY PREDICTED BY IDOCK:   -4.54 KCAL/MOL
REMARK 922        TOTAL FREE ENERGY PREDICTED BY IDOCK:   -6.35 KCAL/MOL
REMARK 923 INTER-LIGAND FREE ENERGY PREDICTED BY IDOCK:   -6.02 KCAL/MOL
REMARK 924 INTRA-LIGAND FREE ENERGY PREDICTED BY IDOCK:   -0.34 KCAL/MOL
REMARK 927      BINDING AFFINITY PREDICTED BY RF-SCORE:    0.00 PKD
ROOT
HETATM    1  N   UNL     1      -7.567  18.164  65.595  1.00  0.00    -0.535 NA 
HETATM    2  C   UNL     1      -8.512  17.449  66.256  1.00  0.00    -0.225 C  
HETATM    3  H1  UNL     1      -6.985  18.830  66.102  1.00  0.00     0.000 HD 
HETATM    4  H2  UNL     1      -7.439  18.035  64.591  1.00  0.00     0.000 HD 
HETATM    5  N   UNL     1      -9.258  16.596  65.606  1.00  0.00    -0.452 NA 
HETATM    6  C   UNL     1     -10.167  15.971  66.393  1.00  0.00    -0.305 A  
HETATM    7  C   UNL     1     -10.378  16.131  67.745  1.00  0.00    -0.283 A  
HETATM    8  N   UNL     1     -11.404  15.334  68.187  1.00  0.00    -0.327 NA 
HETATM    9  C   UNL     1      -9.535  17.069  68.453  1.00  0.00    -0.269 C  
HETATM   10  N   UNL     1      -8.614  17.683  67.614  1.00  0.00    -0.222 N  
HETATM   11  O   UNL     1      -9.589  17.326  69.651  1.00  0.00     0.189 OA 
HETATM   12  C   UNL     1     -11.815  14.697  67.111  1.00  0.00    -0.345 A  
HETATM   13  N   UNL     1     -11.088  15.045  66.001  1.00  0.00    -0.336 NA 
HETATM   14  H   UNL     1      -7.969  18.355  68.029  1.00  0.00     0.000 HD 
ENDROOT
BRANCH  13  15
HETATM   15  C   UNL     1     -11.228  14.481  64.676  1.00  0.00    -0.353 C  
BRANCH  15  16
HETATM   16  O   UNL     1     -10.230  13.491  64.398  1.00  0.00    -0.399 OA 
BRANCH  16  17
HETATM   17  C   UNL     1     -10.690  12.121  64.349  1.00  0.00    -0.323 C  
BRANCH  17  18
HETATM   18  C   UNL     1     -12.212  11.993  64.511  1.00  0.00    -0.241 C  
HETATM   19  H   UNL     1     -13.810  11.860  63.346  1.00  0.00     0.000 HD 
HETATM   20  O   UNL     1     -12.868  11.940  63.245  1.00  0.00    -0.702 OA 
ENDBRANCH  17  18
BRANCH  17  21
HETATM   21  C   UNL     1     -10.260  11.558  62.983  1.00  0.00    -0.265 C  
HETATM   22  O   UNL     1      -8.845  11.670  62.825  1.00  0.00    -0.623 OA 
HETATM   23  H   UNL     1      -8.579  11.322  61.982  1.00  0.00     0.000 HD 
ENDBRANCH  17  21
ENDBRANCH  16  17
ENDBRANCH  15  16
ENDBRANCH  13  15
TORSDOF 5
ENDMDL
MODEL      108
REMARK 921   NORMALIZED FREE ENERGY PREDICTED BY IDOCK:   -4.51 KCAL/MOL
REMARK 922        TOTAL FREE ENERGY PREDICTED BY IDOCK:   -6.31 KCAL/MOL
REMARK 923 INTER-LIGAND FREE ENERGY PREDICTED BY IDOCK:   -5.92 KCAL/MOL
REMARK 924 INTRA-LIGAND FREE ENERGY PREDICTED BY IDOCK:   -0.39 KCAL/MOL
REMARK 927      BINDING AFFINITY PREDICTED BY RF-SCORE:    0.00 PKD
ROOT
HETATM    1  N   UNL     1      -9.400  10.042  63.656  1.00  0.00    -0.297 NA 
HETATM    2  C   UNL     1     -10.201  11.032  64.121  1.00  0.00    -0.357 C  
HETATM    3  H1  UNL     1      -9.681   9.501  62.838  1.00  0.00     0.000 HD 
HETATM    4  H2  UNL     1      -8.517   9.838  64.123  1.00  0.00     0.000 HD 
HETATM    5  N   UNL     1      -9.842  11.725  65.169  1.00  0.00    -0.245 NA 
HETATM    6  C   UNL     1     -10.749  12.665  65.527  1.00  0.00    -0.274 A  
HETATM    7  C   UNL     1     -11.956  12.957  64.931  1.00  0.00    -0.392 A  
HETATM    8  N   UNL     1     -12.608  13.967  65.593  1.00  0.00    -0.515 NA 
HETATM    9  C   UNL     1     -12.334  12.191  63.763  1.00  0.00    -0.532 C  
HETATM   10  N   UNL     1     -11.376  11.243  63.426  1.00  0.00    -0.771 N  
HETATM   11  O   UNL     1     -13.367  12.325  63.116  1.00  0.00    -0.296 OA 
HETATM   12  C   UNL     1     -11.804  14.284  66.586  1.00  0.00    -0.421 A  
HETATM   13  N   UNL     1     -10.660  13.526  66.582  1.00  0.00    -0.278 NA 
HETATM   14  H   UNL     1     -11.554  10.662  62.607  1.00  0.00     0.000 HD 
ENDROOT
BRANCH  13  15
HETATM   15  C   UNL     1      -9.539  13.665  67.485  1.00  0.00    -0.220 C  
BRANCH  15  16
HETATM   16  O   UNL     1      -9.518  14.944  68.132  1.00  0.00    -0.194 OA 
BRANCH  16  17
HETATM   17  C   UNL     1      -8.938  16.030  67.374  1.00  0.00    -0.191 C  
BRANCH  17  18
HETATM   18  C   UNL     1      -9.632  17.377  67.626  1.00  0.00    -0.261 C  
HETATM   19  H   UNL     1     -10.940  18.141  68.903  1.00  0.00     0.000 HD 
HETATM   20  O   UNL     1     -10.511  17.308  68.747  1.00  0.00    -0.333 OA 
ENDBRANCH  17  18
BRANCH  17  21
HETATM   21  C   UNL     1      -7.458  16.118  67.786  1.00  0.00    -0.133 C  
HETATM   22  O   UNL     1      -7.278  17.143  68.764  1.00  0.00    -0.211 OA 
HETATM   23  H   UNL     1      -6.364  17.198  69.018  1.00  0.00     0.000 HD 
ENDBRANCH  17  21
ENDBRANCH  16  17
ENDBRANCH  15  16
ENDBRANCH  13  15
TORSDOF 5
ENDMDL
MODEL      109
REMARK 921   NORMALIZED FREE ENERGY PREDICTED BY IDOCK:   -4.51 KCAL/MOL
REMARK 922        TOTAL FREE ENERGY PREDICTED BY IDOCK:   -6.31 KCAL/MOL
REMARK 923 INTER-LIGAND FREE ENERGY PREDICTED BY IDOCK:   -5.72 KCAL/MOL
REMARK 924 INTRA-LIGAND FREE ENERGY PREDICTED BY IDOCK:   -0.59 KCAL/MOL
REMARK 927      BINDING AFFINITY PREDICTED BY RF-SCORE:    0.00 PKD
ROOT
HETATM    1  N   UNL     1     -10.641  14.755  64.428  1.00  0.00    -0.482 NA 
HETATM    2  C   UNL     1     -10.666  15.455  65.589  1.00  0.00    -0.369 C  
HETATM    3  H1  UNL     1     -10.914  13.772  64.418  1.00  0.00     0.000 HD 
HETATM    4  H2  UNL     1     -10.350  15.212  63.563  1.00  0.00     0.000 HD 
HETATM    5  N   UNL     1     -10.317  16.714  65.601  1.00  0.00    -0.537 NA 
HETATM    6  C   UNL     1     -10.374  17.274  66.834  1.00  0.00    -0.310 A  
HETATM    7  C   UNL     1     -10.746  16.686  68.022  1.00  0.00    -0.350 A  
HETATM    8  N   UNL     1     -10.660  17.572  69.066  1.00  0.00    -0.244 NA 
HETATM    9  C   UNL     1     -11.144  15.295  67.991  1.00  0.00    -0.312 C  
HETATM   10  N   UNL     1     -11.077  14.760  66.711  1.00  0.00    -0.332 N  
HETATM   11  O   UNL     1     -11.504  14.626  68.953  1.00  0.00    -0.267 OA 
HETATM   12  C   UNL     1     -10.236  18.691  68.515  1.00  0.00    -0.353 A  
HETATM   13  N   UNL     1     -10.057  18.560  67.162  1.00  0.00    -0.334 NA 
HETATM   14  H   UNL     1     -11.350  13.784  66.591  1.00  0.00     0.000 HD 
ENDROOT
BRANCH  13  15
HETATM   15  C   UNL     1      -9.671  19.610  66.245  1.00  0.00    -0.423 C  
BRANCH  15  16
HETATM   16  O   UNL     1      -8.893  20.630  66.883  1.00  0.00    -0.237 OA 
BRANCH  16  17
HETATM   17  C   UNL     1      -7.458  20.507  66.756  1.00  0.00    -0.254 C  
BRANCH  17  18
HETATM   18  C   UNL     1      -6.784  19.983  68.032  1.00  0.00    -0.279 C  
HETATM   19  H   UNL     1      -5.050  20.187  68.970  1.00  0.00     0.000 HD 
HETATM   20  O   UNL     1      -5.467  20.512  68.180  1.00  0.00    -0.211 OA 
ENDBRANCH  17  18
BRANCH  17  21
HETATM   21  C   UNL     1      -7.198  19.537  65.590  1.00  0.00    -0.262 C  
HETATM   22  O   UNL     1      -5.994  18.803  65.817  1.00  0.00    -0.163 OA 
HETATM   23  H   UNL     1      -5.833  18.204  65.098  1.00  0.00     0.000 HD 
ENDBRANCH  17  21
ENDBRANCH  16  17
ENDBRANCH  15  16
ENDBRANCH  13  15
TORSDOF 5
ENDMDL
MODEL      110
REMARK 921   NORMALIZED FREE ENERGY PREDICTED BY IDOCK:   -4.50 KCAL/MOL
REMARK 922        TOTAL FREE ENERGY PREDICTED BY IDOCK:   -6.30 KCAL/MOL
REMARK 923 INTER-LIGAND FREE ENERGY PREDICTED BY IDOCK:   -5.85 KCAL/MOL
REMARK 924 INTRA-LIGAND FREE ENERGY PREDICTED BY IDOCK:   -0.44 KCAL/MOL
REMARK 927      BINDING AFFINITY PREDICTED BY RF-SCORE:    0.00 PKD
ROOT
HETATM    1  N   UNL     1      -9.761  17.047  65.598  1.00  0.00    -0.548 NA 
HETATM    2  C   UNL     1     -10.348  15.825  65.597  1.00  0.00    -0.388 C  
HETATM    3  H1  UNL     1      -9.932  17.695  64.829  1.00  0.00     0.000 HD 
HETATM    4  H2  UNL     1      -9.150  17.319  66.368  1.00  0.00     0.000 HD 
HETATM    5  N   UNL     1     -10.130  14.995  66.583  1.00  0.00    -0.255 NA 
HETATM    6  C   UNL     1     -10.766  13.808  66.435  1.00  0.00    -0.281 A  
HETATM    7  C   UNL     1     -11.584  13.401  65.404  1.00  0.00    -0.314 A  
HETATM    8  N   UNL     1     -12.033  12.119  65.599  1.00  0.00    -0.523 NA 
HETATM    9  C   UNL     1     -11.828  14.336  64.327  1.00  0.00    -0.379 C  
HETATM   10  N   UNL     1     -11.163  15.540  64.518  1.00  0.00    -0.702 N  
HETATM   11  O   UNL     1     -12.529  14.134  63.341  1.00  0.00    -0.797 OA 
HETATM   12  C   UNL     1     -11.489  11.749  66.740  1.00  0.00    -0.281 A  
HETATM   13  N   UNL     1     -10.720  12.744  67.287  1.00  0.00    -0.235 NA 
HETATM   14  H   UNL     1     -11.284  16.266  63.812  1.00  0.00     0.000 HD 
ENDROOT
BRANCH  13  15
HETATM   15  C   UNL     1     -10.043  12.696  68.565  1.00  0.00    -0.178 C  
BRANCH  15  16
HETATM   16  O   UNL     1      -9.312  11.477  68.747  1.00  0.00    -0.169 OA 
BRANCH  16  17
HETATM   17  C   UNL     1      -7.873  11.578  68.647  1.00  0.00    -0.137 C  
BRANCH  17  18
HETATM   18  C   UNL     1      -7.141  10.398  69.303  1.00  0.00    -0.090 C  
HETATM   19  H   UNL     1      -7.371   8.438  69.481  1.00  0.00     0.000 HD 
HETATM   20  O   UNL     1      -7.825   9.168  69.075  1.00  0.00    -0.087 OA 
ENDBRANCH  17  18
BRANCH  17  21
HETATM   21  C   UNL     1      -7.536  11.633  67.146  1.00  0.00    -0.152 C  
HETATM   22  O   UNL     1      -7.440  12.990  66.710  1.00  0.00    -0.336 OA 
HETATM   23  H   UNL     1      -7.232  13.024  65.784  1.00  0.00     0.000 HD 
ENDBRANCH  17  21
ENDBRANCH  16  17
ENDBRANCH  15  16
ENDBRANCH  13  15
TORSDOF 5
ENDMDL
MODEL      111
REMARK 921   NORMALIZED FREE ENERGY PREDICTED BY IDOCK:   -4.47 KCAL/MOL
REMARK 922        TOTAL FREE ENERGY PREDICTED BY IDOCK:   -6.26 KCAL/MOL
REMARK 923 INTER-LIGAND FREE ENERGY PREDICTED BY IDOCK:   -5.74 KCAL/MOL
REMARK 924 INTRA-LIGAND FREE ENERGY PREDICTED BY IDOCK:   -0.52 KCAL/MOL
REMARK 927      BINDING AFFINITY PREDICTED BY RF-SCORE:    0.00 PKD
ROOT
HETATM    1  N   UNL     1      -7.480   8.950  70.779  1.00  0.00    -0.086 NA 
HETATM    2  C   UNL     1      -8.809   9.100  71.003  1.00  0.00    -0.202 C  
HETATM    3  H1  UNL     1      -6.942   8.283  71.331  1.00  0.00     0.000 HD 
HETATM    4  H2  UNL     1      -7.018   9.505  70.058  1.00  0.00     0.000 HD 
HETATM    5  N   UNL     1      -9.498   9.956  70.296  1.00  0.00    -0.187 NA 
HETATM    6  C   UNL     1     -10.806  10.009  70.645  1.00  0.00    -0.297 A  
HETATM    7  C   UNL     1     -11.458   9.288  71.621  1.00  0.00    -0.398 A  
HETATM    8  N   UNL     1     -12.786   9.631  71.691  1.00  0.00    -0.375 NA 
HETATM    9  C   UNL     1     -10.686   8.335  72.386  1.00  0.00    -0.341 C  
HETATM   10  N   UNL     1      -9.353   8.307  71.995  1.00  0.00    -0.205 N  
HETATM   11  O   UNL     1     -11.111   7.615  73.284  1.00  0.00    -0.382 OA 
HETATM   12  C   UNL     1     -12.937  10.556  70.766  1.00  0.00    -0.330 A  
HETATM   13  N   UNL     1     -11.765  10.812  70.100  1.00  0.00    -0.309 NA 
HETATM   14  H   UNL     1      -8.732   7.654  72.474  1.00  0.00     0.000 HD 
ENDROOT
BRANCH  13  15
HETATM   15  C   UNL     1     -11.597  11.713  68.982  1.00  0.00    -0.316 C  
BRANCH  15  16
HETATM   16  O   UNL     1     -11.834  11.069  67.724  1.00  0.00    -0.605 OA 
BRANCH  16  17
HETATM   17  C   UNL     1     -11.467  11.823  66.546  1.00  0.00    -0.255 C  
BRANCH  17  18
HETATM   18  C   UNL     1     -11.814  13.315  66.655  1.00  0.00    -0.395 C  
HETATM   19  H   UNL     1     -12.399  14.781  65.457  1.00  0.00     0.000 HD 
HETATM   20  O   UNL     1     -12.184  13.858  65.389  1.00  0.00    -0.393 OA 
ENDBRANCH  17  18
BRANCH  17  21
HETATM   21  C   UNL     1      -9.949  11.651  66.363  1.00  0.00    -0.206 C  
HETATM   22  O   UNL     1      -9.382  12.832  65.796  1.00  0.00    -0.453 OA 
HETATM   23  H   UNL     1      -8.444  12.726  65.683  1.00  0.00     0.000 HD 
ENDBRANCH  17  21
ENDBRANCH  16  17
ENDBRANCH  15  16
ENDBRANCH  13  15
TORSDOF 5
ENDMDL
MODEL      112
REMARK 921   NORMALIZED FREE ENERGY PREDICTED BY IDOCK:   -4.45 KCAL/MOL
REMARK 922        TOTAL FREE ENERGY PREDICTED BY IDOCK:   -6.24 KCAL/MOL
REMARK 923 INTER-LIGAND FREE ENERGY PREDICTED BY IDOCK:   -5.96 KCAL/MOL
REMARK 924 INTRA-LIGAND FREE ENERGY PREDICTED BY IDOCK:   -0.28 KCAL/MOL
REMARK 927      BINDING AFFINITY PREDICTED BY RF-SCORE:    0.00 PKD
ROOT
HETATM    1  N   UNL     1     -11.661  16.536  63.728  1.00  0.00    -1.433 NA 
HETATM    2  C   UNL     1     -11.084  16.033  64.848  1.00  0.00    -0.370 C  
HETATM    3  H1  UNL     1     -11.776  17.544  63.623  1.00  0.00     0.000 HD 
HETATM    4  H2  UNL     1     -11.979  15.907  62.991  1.00  0.00     0.000 HD 
HETATM    5  N   UNL     1     -10.937  14.741  64.982  1.00  0.00    -0.389 NA 
HETATM    6  C   UNL     1     -10.363  14.387  66.158  1.00  0.00    -0.298 A  
HETATM    7  C   UNL     1      -9.936  15.205  67.179  1.00  0.00    -0.237 A  
HETATM    8  N   UNL     1      -9.421  14.476  68.221  1.00  0.00    -0.201 NA 
HETATM    9  C   UNL     1     -10.093  16.634  67.010  1.00  0.00    -0.281 C  
HETATM   10  N   UNL     1     -10.678  16.956  65.792  1.00  0.00    -0.237 N  
HETATM   11  O   UNL     1      -9.764  17.497  67.817  1.00  0.00    -0.262 OA 
HETATM   12  C   UNL     1      -9.537  13.222  67.835  1.00  0.00    -0.217 A  
HETATM   13  N   UNL     1     -10.095  13.120  66.587  1.00  0.00    -0.258 NA 
HETATM   14  H   UNL     1     -10.819  17.943  65.581  1.00  0.00     0.000 HD 
ENDROOT
BRANCH  13  15
HETATM   15  C   UNL     1     -10.297  11.899  65.837  1.00  0.00    -0.242 C  
BRANCH  15  16
HETATM   16  O   UNL     1     -10.431  10.754  66.689  1.00  0.00    -0.236 OA 
BRANCH  16  17
HETATM   17  C   UNL     1      -9.547   9.645  66.407  1.00  0.00    -0.210 C  
BRANCH  17  18
HETATM   18  C   UNL     1     -10.089   8.301  66.914  1.00  0.00    -0.296 C  
HETATM   19  H   UNL     1     -10.375   7.391  68.651  1.00  0.00     0.000 HD 
HETATM   20  O   UNL     1     -10.040   8.223  68.338  1.00  0.00    -0.189 OA 
ENDBRANCH  17  18
BRANCH  17  21
HETATM   21  C   UNL     1      -9.372   9.596  64.879  1.00  0.00    -0.242 C  
HETATM   22  O   UNL     1      -8.628   8.435  64.504  1.00  0.00    -0.360 OA 
HETATM   23  H   UNL     1      -8.520   8.405  63.560  1.00  0.00     0.000 HD 
ENDBRANCH  17  21
ENDBRANCH  16  17
ENDBRANCH  15  16
ENDBRANCH  13  15
TORSDOF 5
ENDMDL
MODEL      113
REMARK 921   NORMALIZED FREE ENERGY PREDICTED BY IDOCK:   -4.45 KCAL/MOL
REMARK 922        TOTAL FREE ENERGY PREDICTED BY IDOCK:   -6.24 KCAL/MOL
REMARK 923 INTER-LIGAND FREE ENERGY PREDICTED BY IDOCK:   -5.80 KCAL/MOL
REMARK 924 INTRA-LIGAND FREE ENERGY PREDICTED BY IDOCK:   -0.43 KCAL/MOL
REMARK 927      BINDING AFFINITY PREDICTED BY RF-SCORE:    0.00 PKD
ROOT
HETATM    1  N   UNL     1     -12.239  16.042  70.383  1.00  0.00    -0.417 NA 
HETATM    2  C   UNL     1     -11.236  16.290  69.505  1.00  0.00    -0.308 C  
HETATM    3  H1  UNL     1     -12.648  16.807  70.920  1.00  0.00     0.000 HD 
HETATM    4  H2  UNL     1     -12.585  15.090  70.508  1.00  0.00     0.000 HD 
HETATM    5  N   UNL     1     -10.712  15.310  68.818  1.00  0.00    -0.233 NA 
HETATM    6  C   UNL     1      -9.710  15.707  67.997  1.00  0.00    -0.204 A  
HETATM    7  C   UNL     1      -9.208  16.976  67.815  1.00  0.00    -0.236 A  
HETATM    8  N   UNL     1      -8.178  16.980  66.908  1.00  0.00    -0.197 NA 
HETATM    9  C   UNL     1      -9.808  18.053  68.572  1.00  0.00    -0.378 C  
HETATM   10  N   UNL     1     -10.833  17.607  69.396  1.00  0.00    -0.179 N  
HETATM   11  O   UNL     1      -9.484  19.235  68.526  1.00  0.00    -0.348 OA 
HETATM   12  C   UNL     1      -8.054  15.721  66.544  1.00  0.00    -0.196 A  
HETATM   13  N   UNL     1      -8.967  14.913  67.172  1.00  0.00    -0.201 NA 
HETATM   14  H   UNL     1     -11.322  18.301  69.962  1.00  0.00     0.000 HD 
ENDROOT
BRANCH  13  15
HETATM   15  C   UNL     1      -9.153  13.497  66.946  1.00  0.00    -0.239 C  
BRANCH  15  16
HETATM   16  O   UNL     1      -9.821  13.226  65.707  1.00  0.00    -0.265 OA 
BRANCH  16  17
HETATM   17  C   UNL     1     -10.876  12.239  65.757  1.00  0.00    -0.278 C  
BRANCH  17  18
HETATM   18  C   UNL     1     -11.746  12.352  67.018  1.00  0.00    -0.353 C  
HETATM   19  H   UNL     1     -12.294  11.201  68.535  1.00  0.00     0.000 HD 
HETATM   20  O   UNL     1     -11.756  11.131  67.755  1.00  0.00    -0.560 OA 
ENDBRANCH  17  18
BRANCH  17  21
HETATM   21  C   UNL     1     -11.742  12.451  64.503  1.00  0.00    -0.362 C  
HETATM   22  O   UNL     1     -13.100  12.696  64.875  1.00  0.00    -0.850 OA 
HETATM   23  H   UNL     1     -13.634  12.827  64.101  1.00  0.00     0.000 HD 
ENDBRANCH  17  21
ENDBRANCH  16  17
ENDBRANCH  15  16
ENDBRANCH  13  15
TORSDOF 5
ENDMDL
MODEL      114
REMARK 921   NORMALIZED FREE ENERGY PREDICTED BY IDOCK:   -4.45 KCAL/MOL
REMARK 922        TOTAL FREE ENERGY PREDICTED BY IDOCK:   -6.24 KCAL/MOL
REMARK 923 INTER-LIGAND FREE ENERGY PREDICTED BY IDOCK:   -5.56 KCAL/MOL
REMARK 924 INTRA-LIGAND FREE ENERGY PREDICTED BY IDOCK:   -0.67 KCAL/MOL
REMARK 927      BINDING AFFINITY PREDICTED BY RF-SCORE:    0.00 PKD
ROOT
HETATM    1  N   UNL     1      -8.345  10.365  68.833  1.00  0.00    -0.129 NA 
HETATM    2  C   UNL     1      -9.541  10.579  69.434  1.00  0.00    -0.148 C  
HETATM    3  H1  UNL     1      -7.996  11.028  68.141  1.00  0.00     0.000 HD 
HETATM    4  H2  UNL     1      -7.793   9.541  69.073  1.00  0.00     0.000 HD 
HETATM    5  N   UNL     1      -9.988   9.729  70.320  1.00  0.00    -0.261 NA 
HETATM    6  C   UNL     1     -11.203  10.064  70.819  1.00  0.00    -0.352 A  
HETATM    7  C   UNL     1     -11.981  11.157  70.508  1.00  0.00    -0.380 A  
HETATM    8  N   UNL     1     -13.160  11.146  71.210  1.00  0.00    -0.327 NA 
HETATM    9  C   UNL     1     -11.467  12.096  69.535  1.00  0.00    -0.265 C  
HETATM   10  N   UNL     1     -10.220  11.720  69.052  1.00  0.00    -0.408 N  
HETATM   11  O   UNL     1     -12.029  13.116  69.150  1.00  0.00    -0.305 OA 
HETATM   12  C   UNL     1     -13.099  10.052  71.941  1.00  0.00    -0.460 A  
HETATM   13  N   UNL     1     -11.926   9.369  71.744  1.00  0.00    -0.379 NA 
HETATM   14  H   UNL     1      -9.774  12.330  68.367  1.00  0.00     0.000 HD 
ENDROOT
BRANCH  13  15
HETATM   15  C   UNL     1     -11.507   8.172  72.439  1.00  0.00    -0.397 C  
BRANCH  15  16
HETATM   16  O   UNL     1     -11.855   6.979  71.726  1.00  0.00    -0.282 OA 
BRANCH  16  17
HETATM   17  C   UNL     1     -10.816   6.410  70.897  1.00  0.00    -0.263 C  
BRANCH  17  18
HETATM   18  C   UNL     1     -10.320   5.048  71.404  1.00  0.00    -0.181 C  
HETATM   19  H   UNL     1     -10.107   4.113  73.139  1.00  0.00     0.000 HD 
HETATM   20  O   UNL     1     -10.414   4.956  72.825  1.00  0.00    -0.188 OA 
ENDBRANCH  17  18
BRANCH  17  21
HETATM   21  C   UNL     1     -11.409   6.257  69.485  1.00  0.00    -0.404 C  
HETATM   22  O   UNL     1     -11.062   7.383  68.678  1.00  0.00    -0.435 OA 
HETATM   23  H   UNL     1     -11.428   7.289  67.806  1.00  0.00     0.000 HD 
ENDBRANCH  17  21
ENDBRANCH  16  17
ENDBRANCH  15  16
ENDBRANCH  13  15
TORSDOF 5
ENDMDL
MODEL      115
REMARK 921   NORMALIZED FREE ENERGY PREDICTED BY IDOCK:   -4.44 KCAL/MOL
REMARK 922        TOTAL FREE ENERGY PREDICTED BY IDOCK:   -6.22 KCAL/MOL
REMARK 923 INTER-LIGAND FREE ENERGY PREDICTED BY IDOCK:   -5.51 KCAL/MOL
REMARK 924 INTRA-LIGAND FREE ENERGY PREDICTED BY IDOCK:   -0.71 KCAL/MOL
REMARK 927      BINDING AFFINITY PREDICTED BY RF-SCORE:    0.00 PKD
ROOT
HETATM    1  N   UNL     1     -12.985   9.041  71.819  1.00  0.00    -0.352 NA 
HETATM    2  C   UNL     1     -12.892  10.321  71.379  1.00  0.00    -0.441 C  
HETATM    3  H1  UNL     1     -13.325   8.850  72.762  1.00  0.00     0.000 HD 
HETATM    4  H2  UNL     1     -12.717   8.270  71.208  1.00  0.00     0.000 HD 
HETATM    5  N   UNL     1     -12.458  10.565  70.171  1.00  0.00    -0.274 NA 
HETATM    6  C   UNL     1     -12.401  11.888  69.880  1.00  0.00    -0.099 A  
HETATM    7  C   UNL     1     -12.740  12.953  70.683  1.00  0.00    -0.081 A  
HETATM    8  N   UNL     1     -12.531  14.148  70.042  1.00  0.00    -0.335 NA 
HETATM    9  C   UNL     1     -13.233  12.666  72.012  1.00  0.00    -0.427 C  
HETATM   10  N   UNL     1     -13.281  11.302  72.270  1.00  0.00    -0.508 N  
HETATM   11  O   UNL     1     -13.579  13.494  72.849  1.00  0.00    -0.639 OA 
HETATM   12  C   UNL     1     -12.066  13.810  68.857  1.00  0.00    -0.313 A  
HETATM   13  N   UNL     1     -11.978  12.449  68.710  1.00  0.00    -0.282 NA 
HETATM   14  H   UNL     1     -13.626  11.004  73.183  1.00  0.00     0.000 HD 
ENDROOT
BRANCH  13  15
HETATM   15  C   UNL     1     -11.578  11.742  67.514  1.00  0.00    -0.291 C  
BRANCH  15  16
HETATM   16  O   UNL     1     -10.158  11.567  67.435  1.00  0.00    -0.188 OA 
BRANCH  16  17
HETATM   17  C   UNL     1      -9.481  12.323  66.406  1.00  0.00    -0.237 C  
BRANCH  17  18
HETATM   18  C   UNL     1     -10.436  13.184  65.566  1.00  0.00    -0.288 C  
HETATM   19  H   UNL     1     -10.887  15.103  65.356  1.00  0.00     0.000 HD 
HETATM   20  O   UNL     1     -10.296  14.570  65.875  1.00  0.00    -0.291 OA 
ENDBRANCH  17  18
BRANCH  17  21
HETATM   21  C   UNL     1      -8.455  13.222  67.118  1.00  0.00    -0.176 C  
HETATM   22  O   UNL     1      -8.794  13.361  68.499  1.00  0.00    -0.285 OA 
HETATM   23  H   UNL     1      -8.160  13.917  68.938  1.00  0.00     0.000 HD 
ENDBRANCH  17  21
ENDBRANCH  16  17
ENDBRANCH  15  16
ENDBRANCH  13  15
TORSDOF 5
ENDMDL
MODEL      116
REMARK 921   NORMALIZED FREE ENERGY PREDICTED BY IDOCK:   -4.43 KCAL/MOL
REMARK 922        TOTAL FREE ENERGY PREDICTED BY IDOCK:   -6.20 KCAL/MOL
REMARK 923 INTER-LIGAND FREE ENERGY PREDICTED BY IDOCK:   -5.71 KCAL/MOL
REMARK 924 INTRA-LIGAND FREE ENERGY PREDICTED BY IDOCK:   -0.49 KCAL/MOL
REMARK 927      BINDING AFFINITY PREDICTED BY RF-SCORE:    0.00 PKD
ROOT
HETATM    1  N   UNL     1      -7.128  12.366  66.916  1.00  0.00    -0.379 NA 
HETATM    2  C   UNL     1      -8.419  12.465  66.510  1.00  0.00     0.058 C  
HETATM    3  H1  UNL     1      -6.522  11.649  66.517  1.00  0.00     0.000 HD 
HETATM    4  H2  UNL     1      -6.764  13.008  67.619  1.00  0.00     0.000 HD 
HETATM    5  N   UNL     1      -9.195  13.383  67.021  1.00  0.00    -0.235 NA 
HETATM    6  C   UNL     1     -10.459  13.347  66.534  1.00  0.00    -0.283 A  
HETATM    7  C   UNL     1     -10.989  12.487  65.598  1.00  0.00    -0.288 A  
HETATM    8  N   UNL     1     -12.316  12.752  65.372  1.00  0.00    -0.552 NA 
HETATM    9  C   UNL     1     -10.114  11.485  65.031  1.00  0.00    -0.270 C  
HETATM   10  N   UNL     1      -8.828  11.557  65.552  1.00  0.00    -0.398 N  
HETATM   11  O   UNL     1     -10.424  10.648  64.190  1.00  0.00    -0.336 OA 
HETATM   12  C   UNL     1     -12.591  13.765  66.167  1.00  0.00    -0.371 A  
HETATM   13  N   UNL     1     -11.493  14.166  66.885  1.00  0.00    -0.340 NA 
HETATM   14  H   UNL     1      -8.137  10.894  65.202  1.00  0.00     0.000 HD 
ENDROOT
BRANCH  13  15
HETATM   15  C   UNL     1     -11.428  15.291  67.791  1.00  0.00    -0.303 C  
BRANCH  15  16
HETATM   16  O   UNL     1     -11.148  14.889  69.138  1.00  0.00    -0.244 OA 
BRANCH  16  17
HETATM   17  C   UNL     1     -12.193  15.139  70.105  1.00  0.00    -0.352 C  
BRANCH  17  18
HETATM   18  C   UNL     1     -12.850  13.852  70.626  1.00  0.00    -0.222 C  
HETATM   19  H   UNL     1     -12.353  11.953  70.900  1.00  0.00     0.000 HD 
HETATM   20  O   UNL     1     -11.947  12.749  70.578  1.00  0.00    -0.320 OA 
ENDBRANCH  17  18
BRANCH  17  21
HETATM   21  C   UNL     1     -11.544  15.904  71.272  1.00  0.00    -0.452 C  
HETATM   22  O   UNL     1     -11.781  15.222  72.504  1.00  0.00    -0.426 OA 
HETATM   23  H   UNL     1     -11.380  15.694  73.224  1.00  0.00     0.000 HD 
ENDBRANCH  17  21
ENDBRANCH  16  17
ENDBRANCH  15  16
ENDBRANCH  13  15
TORSDOF 5
ENDMDL
MODEL      117
REMARK 921   NORMALIZED FREE ENERGY PREDICTED BY IDOCK:   -4.42 KCAL/MOL
REMARK 922        TOTAL FREE ENERGY PREDICTED BY IDOCK:   -6.20 KCAL/MOL
REMARK 923 INTER-LIGAND FREE ENERGY PREDICTED BY IDOCK:   -6.03 KCAL/MOL
REMARK 924 INTRA-LIGAND FREE ENERGY PREDICTED BY IDOCK:   -0.17 KCAL/MOL
REMARK 927      BINDING AFFINITY PREDICTED BY RF-SCORE:    0.00 PKD
ROOT
HETATM    1  N   UNL     1     -12.702  11.445  62.748  1.00  0.00    -0.722 NA 
HETATM    2  C   UNL     1     -12.288  12.356  63.663  1.00  0.00    -0.548 C  
HETATM    3  H1  UNL     1     -13.156  11.755  61.889  1.00  0.00     0.000 HD 
HETATM    4  H2  UNL     1     -12.558  10.450  62.918  1.00  0.00     0.000 HD 
HETATM    5  N   UNL     1     -11.706  11.959  64.763  1.00  0.00    -0.260 NA 
HETATM    6  C   UNL     1     -11.367  12.979  65.589  1.00  0.00    -0.301 A  
HETATM    7  C   UNL     1     -11.560  14.329  65.400  1.00  0.00    -0.346 A  
HETATM    8  N   UNL     1     -11.096  15.054  66.469  1.00  0.00    -0.336 NA 
HETATM    9  C   UNL     1     -12.192  14.755  64.171  1.00  0.00    -0.295 C  
HETATM   10  N   UNL     1     -12.520  13.682  63.351  1.00  0.00    -1.016 N  
HETATM   11  O   UNL     1     -12.434  15.913  63.846  1.00  0.00    -0.760 OA 
HETATM   12  C   UNL     1     -10.628  14.149  67.303  1.00  0.00    -0.277 A  
HETATM   13  N   UNL     1     -10.763  12.877  66.808  1.00  0.00    -0.260 NA 
HETATM   14  H   UNL     1     -12.962  13.888  62.455  1.00  0.00     0.000 HD 
ENDROOT
BRANCH  13  15
HETATM   15  C   UNL     1     -10.289  11.661  67.432  1.00  0.00    -0.205 C  
BRANCH  15  16
HETATM   16  O   UNL     1      -9.583  10.818  66.513  1.00  0.00    -0.176 OA 
BRANCH  16  17
HETATM   17  C   UNL     1      -8.140  10.858  66.595  1.00  0.00    -0.147 C  
BRANCH  17  18
HETATM   18  C   UNL     1      -7.609  12.156  67.222  1.00  0.00    -0.156 C  
HETATM   19  H   UNL     1      -6.665  12.714  68.872  1.00  0.00     0.000 HD 
HETATM   20  O   UNL     1      -6.994  11.911  68.485  1.00  0.00    -0.072 OA 
ENDBRANCH  17  18
BRANCH  17  21
HETATM   21  C   UNL     1      -7.710   9.651  67.448  1.00  0.00    -0.095 C  
HETATM   22  O   UNL     1      -6.408   9.211  67.062  1.00  0.00    -0.061 OA 
HETATM   23  H   UNL     1      -6.143   8.466  67.588  1.00  0.00     0.000 HD 
ENDBRANCH  17  21
ENDBRANCH  16  17
ENDBRANCH  15  16
ENDBRANCH  13  15
TORSDOF 5
ENDMDL
MODEL      118
REMARK 921   NORMALIZED FREE ENERGY PREDICTED BY IDOCK:   -4.41 KCAL/MOL
REMARK 922        TOTAL FREE ENERGY PREDICTED BY IDOCK:   -6.18 KCAL/MOL
REMARK 923 INTER-LIGAND FREE ENERGY PREDICTED BY IDOCK:   -5.56 KCAL/MOL
REMARK 924 INTRA-LIGAND FREE ENERGY PREDICTED BY IDOCK:   -0.62 KCAL/MOL
REMARK 927      BINDING AFFINITY PREDICTED BY RF-SCORE:    0.00 PKD
ROOT
HETATM    1  N   UNL     1      -7.720  11.499  66.595  1.00  0.00    -0.270 NA 
HETATM    2  C   UNL     1      -8.863  11.988  66.052  1.00  0.00     0.047 C  
HETATM    3  H1  UNL     1      -7.163  10.816  66.081  1.00  0.00     0.000 HD 
HETATM    4  H2  UNL     1      -7.418  11.814  67.517  1.00  0.00     0.000 HD 
HETATM    5  N   UNL     1      -9.577  12.862  66.710  1.00  0.00    -0.240 NA 
HETATM    6  C   UNL     1     -10.698  13.243  66.051  1.00  0.00    -0.277 A  
HETATM    7  C   UNL     1     -11.144  12.829  64.816  1.00  0.00    -0.302 A  
HETATM    8  N   UNL     1     -12.335  13.428  64.489  1.00  0.00    -0.550 NA 
HETATM    9  C   UNL     1     -10.336  11.871  64.093  1.00  0.00    -0.336 C  
HETATM   10  N   UNL     1      -9.195  11.510  64.799  1.00  0.00    -0.415 N  
HETATM   11  O   UNL     1     -10.587  11.404  62.987  1.00  0.00    -0.255 OA 
HETATM   12  C   UNL     1     -12.611  14.199  65.520  1.00  0.00    -0.479 A  
HETATM   13  N   UNL     1     -11.642  14.126  66.488  1.00  0.00    -0.359 NA 
HETATM   14  H   UNL     1      -8.558  10.845  64.360  1.00  0.00     0.000 HD 
ENDROOT
BRANCH  13  15
HETATM   15  C   UNL     1     -11.596  14.896  67.712  1.00  0.00    -0.339 C  
BRANCH  15  16
HETATM   16  O   UNL     1     -11.131  16.234  67.495  1.00  0.00    -0.260 OA 
BRANCH  16  17
HETATM   17  C   UNL     1     -10.004  16.653  68.299  1.00  0.00    -0.261 C  
BRANCH  17  18
HETATM   18  C   UNL     1      -8.655  16.454  67.593  1.00  0.00    -0.174 C  
HETATM   19  H   UNL     1      -7.856  16.816  65.816  1.00  0.00     0.000 HD 
HETATM   20  O   UNL     1      -8.692  16.939  66.253  1.00  0.00    -0.284 OA 
ENDBRANCH  17  18
BRANCH  17  21
HETATM   21  C   UNL     1     -10.214  18.144  68.615  1.00  0.00    -0.366 C  
HETATM   22  O   UNL     1     -10.877  18.791  67.528  1.00  0.00    -0.435 OA 
HETATM   23  H   UNL     1     -11.007  19.712  67.723  1.00  0.00     0.000 HD 
ENDBRANCH  17  21
ENDBRANCH  16  17
ENDBRANCH  15  16
ENDBRANCH  13  15
TORSDOF 5
ENDMDL
MODEL      119
REMARK 921   NORMALIZED FREE ENERGY PREDICTED BY IDOCK:   -4.38 KCAL/MOL
REMARK 922        TOTAL FREE ENERGY PREDICTED BY IDOCK:   -6.15 KCAL/MOL
REMARK 923 INTER-LIGAND FREE ENERGY PREDICTED BY IDOCK:   -5.81 KCAL/MOL
REMARK 924 INTRA-LIGAND FREE ENERGY PREDICTED BY IDOCK:   -0.34 KCAL/MOL
REMARK 927      BINDING AFFINITY PREDICTED BY RF-SCORE:    0.00 PKD
ROOT
HETATM    1  N   UNL     1     -12.788   8.849  73.044  1.00  0.00    -0.594 NA 
HETATM    2  C   UNL     1     -12.153   8.662  71.860  1.00  0.00    -0.356 C  
HETATM    3  H1  UNL     1     -12.993   8.050  73.644  1.00  0.00     0.000 HD 
HETATM    4  H2  UNL     1     -13.060   9.788  73.335  1.00  0.00     0.000 HD 
HETATM    5  N   UNL     1     -11.891   9.686  71.092  1.00  0.00    -0.338 NA 
HETATM    6  C   UNL     1     -11.273   9.343  69.936  1.00  0.00    -0.155 A  
HETATM    7  C   UNL     1     -10.906   8.088  69.504  1.00  0.00    -0.129 A  
HETATM    8  N   UNL     1     -10.314   8.139  68.267  1.00  0.00    -0.206 NA 
HETATM    9  C   UNL     1     -11.190   6.966  70.372  1.00  0.00    -0.312 C  
HETATM   10  N   UNL     1     -11.818   7.359  71.547  1.00  0.00    -0.283 N  
HETATM   11  O   UNL     1     -10.928   5.790  70.141  1.00  0.00    -0.326 OA 
HETATM   12  C   UNL     1     -10.324   9.417  67.948  1.00  0.00    -0.225 A  
HETATM   13  N   UNL     1     -10.888  10.186  68.934  1.00  0.00    -0.215 NA 
HETATM   14  H   UNL     1     -12.049   6.634  72.226  1.00  0.00     0.000 HD 
ENDROOT
BRANCH  13  15
HETATM   15  C   UNL     1     -10.991  11.629  68.939  1.00  0.00    -0.233 C  
BRANCH  15  16
HETATM   16  O   UNL     1     -12.056  12.100  68.105  1.00  0.00    -0.447 OA 
BRANCH  16  17
HETATM   17  C   UNL     1     -11.693  12.453  66.750  1.00  0.00    -0.362 C  
BRANCH  17  18
HETATM   18  C   UNL     1     -12.600  13.535  66.147  1.00  0.00    -0.295 C  
HETATM   19  H   UNL     1     -13.504  13.904  64.422  1.00  0.00     0.000 HD 
HETATM   20  O   UNL     1     -12.942  13.234  64.795  1.00  0.00    -0.710 OA 
ENDBRANCH  17  18
BRANCH  17  21
HETATM   21  C   UNL     1     -10.239  12.957  66.797  1.00  0.00    -0.241 C  
HETATM   22  O   UNL     1      -9.472  12.351  65.756  1.00  0.00    -0.386 OA 
HETATM   23  H   UNL     1      -8.574  12.661  65.785  1.00  0.00     0.000 HD 
ENDBRANCH  17  21
ENDBRANCH  16  17
ENDBRANCH  15  16
ENDBRANCH  13  15
TORSDOF 5
ENDMDL
MODEL      120
REMARK 921   NORMALIZED FREE ENERGY PREDICTED BY IDOCK:   -4.38 KCAL/MOL
REMARK 922        TOTAL FREE ENERGY PREDICTED BY IDOCK:   -6.14 KCAL/MOL
REMARK 923 INTER-LIGAND FREE ENERGY PREDICTED BY IDOCK:   -5.83 KCAL/MOL
REMARK 924 INTRA-LIGAND FREE ENERGY PREDICTED BY IDOCK:   -0.31 KCAL/MOL
REMARK 927      BINDING AFFINITY PREDICTED BY RF-SCORE:    0.00 PKD
ROOT
HETATM    1  N   UNL     1      -9.025  10.153  63.071  1.00  0.00    -0.223 NA 
HETATM    2  C   UNL     1      -9.922  10.904  63.757  1.00  0.00    -0.351 C  
HETATM    3  H1  UNL     1      -9.219   9.881  62.107  1.00  0.00     0.000 HD 
HETATM    4  H2  UNL     1      -8.156   9.860  63.518  1.00  0.00     0.000 HD 
HETATM    5  N   UNL     1      -9.673  11.252  64.992  1.00  0.00    -0.243 NA 
HETATM    6  C   UNL     1     -10.667  11.983  65.553  1.00  0.00    -0.276 A  
HETATM    7  C   UNL     1     -11.856  12.382  64.986  1.00  0.00    -0.388 A  
HETATM    8  N   UNL     1     -12.618  13.098  65.876  1.00  0.00    -0.447 NA 
HETATM    9  C   UNL     1     -12.112  12.001  63.614  1.00  0.00    -0.527 C  
HETATM   10  N   UNL     1     -11.069  11.259  63.074  1.00  0.00    -0.841 N  
HETATM   11  O   UNL     1     -13.114  12.276  62.963  1.00  0.00    -0.476 OA 
HETATM   12  C   UNL     1     -11.895  13.131  66.977  1.00  0.00    -0.379 A  
HETATM   13  N   UNL     1     -10.700  12.475  66.825  1.00  0.00    -0.233 NA 
HETATM   14  H   UNL     1     -11.157  10.954  62.105  1.00  0.00     0.000 HD 
ENDROOT
BRANCH  13  15
HETATM   15  C   UNL     1      -9.644  12.384  67.809  1.00  0.00    -0.202 C  
BRANCH  15  16
HETATM   16  O   UNL     1      -9.353  11.028  68.170  1.00  0.00    -0.160 OA 
BRANCH  16  17
HETATM   17  C   UNL     1     -10.479  10.230  68.601  1.00  0.00    -0.193 C  
BRANCH  17  18
HETATM   18  C   UNL     1     -10.489   8.822  67.986  1.00  0.00    -0.204 C  
HETATM   19  H   UNL     1      -9.228   7.312  67.746  1.00  0.00     0.000 HD 
HETATM   20  O   UNL     1      -9.222   8.183  68.127  1.00  0.00    -0.134 OA 
ENDBRANCH  17  18
BRANCH  17  21
HETATM   21  C   UNL     1     -10.391  10.130  70.134  1.00  0.00    -0.224 C  
HETATM   22  O   UNL     1     -11.600  10.601  70.731  1.00  0.00    -0.333 OA 
HETATM   23  H   UNL     1     -11.545  10.539  71.678  1.00  0.00     0.000 HD 
ENDBRANCH  17  21
ENDBRANCH  16  17
ENDBRANCH  15  16
ENDBRANCH  13  15
TORSDOF 5
ENDMDL
MODEL      121
REMARK 921   NORMALIZED FREE ENERGY PREDICTED BY IDOCK:   -4.38 KCAL/MOL
REMARK 922        TOTAL FREE ENERGY PREDICTED BY IDOCK:   -6.14 KCAL/MOL
REMARK 923 INTER-LIGAND FREE ENERGY PREDICTED BY IDOCK:   -5.67 KCAL/MOL
REMARK 924 INTRA-LIGAND FREE ENERGY PREDICTED BY IDOCK:   -0.47 KCAL/MOL
REMARK 927      BINDING AFFINITY PREDICTED BY RF-SCORE:    0.00 PKD
ROOT
HETATM    1  N   UNL     1     -12.420  13.722  63.135  1.00  0.00    -1.074 NA 
HETATM    2  C   UNL     1     -11.736  13.548  64.294  1.00  0.00    -0.416 C  
HETATM    3  H1  UNL     1     -13.130  14.450  63.067  1.00  0.00     0.000 HD 
HETATM    4  H2  UNL     1     -12.223  13.124  62.333  1.00  0.00     0.000 HD 
HETATM    5  N   UNL     1     -10.825  12.615  64.381  1.00  0.00    -0.332 NA 
HETATM    6  C   UNL     1     -10.241  12.549  65.602  1.00  0.00    -0.267 A  
HETATM    7  C   UNL     1     -10.492  13.327  66.711  1.00  0.00    -0.270 A  
HETATM    8  N   UNL     1      -9.709  12.948  67.773  1.00  0.00    -0.208 NA 
HETATM    9  C   UNL     1     -11.492  14.365  66.594  1.00  0.00    -0.363 C  
HETATM   10  N   UNL     1     -12.062  14.404  65.328  1.00  0.00    -0.386 N  
HETATM   11  O   UNL     1     -11.831  15.143  67.480  1.00  0.00    -0.283 OA 
HETATM   12  C   UNL     1      -8.991  11.945  67.313  1.00  0.00    -0.176 A  
HETATM   13  N   UNL     1      -9.273  11.673  65.998  1.00  0.00    -0.219 NA 
HETATM   14  H   UNL     1     -12.773  15.113  65.151  1.00  0.00     0.000 HD 
ENDROOT
BRANCH  13  15
HETATM   15  C   UNL     1      -8.615  10.687  65.169  1.00  0.00    -0.167 C  
BRANCH  15  16
HETATM   16  O   UNL     1      -9.292   9.424  65.187  1.00  0.00    -0.252 OA 
BRANCH  16  17
HETATM   17  C   UNL     1      -9.128   8.633  66.386  1.00  0.00    -0.174 C  
BRANCH  17  18
HETATM   18  C   UNL     1     -10.443   8.421  67.150  1.00  0.00    -0.310 C  
HETATM   19  H   UNL     1     -11.723   6.948  67.496  1.00  0.00     0.000 HD 
HETATM   20  O   UNL     1     -10.909   7.079  67.023  1.00  0.00    -0.348 OA 
ENDBRANCH  17  18
BRANCH  17  21
HETATM   21  C   UNL     1      -8.553   7.275  65.947  1.00  0.00    -0.149 C  
HETATM   22  O   UNL     1      -8.884   7.016  64.582  1.00  0.00    -0.278 OA 
HETATM   23  H   UNL     1      -8.529   6.177  64.312  1.00  0.00     0.000 HD 
ENDBRANCH  17  21
ENDBRANCH  16  17
ENDBRANCH  15  16
ENDBRANCH  13  15
TORSDOF 5
ENDMDL
MODEL      122
REMARK 921   NORMALIZED FREE ENERGY PREDICTED BY IDOCK:   -4.36 KCAL/MOL
REMARK 922        TOTAL FREE ENERGY PREDICTED BY IDOCK:   -6.12 KCAL/MOL
REMARK 923 INTER-LIGAND FREE ENERGY PREDICTED BY IDOCK:   -5.44 KCAL/MOL
REMARK 924 INTRA-LIGAND FREE ENERGY PREDICTED BY IDOCK:   -0.68 KCAL/MOL
REMARK 927      BINDING AFFINITY PREDICTED BY RF-SCORE:    0.00 PKD
ROOT
HETATM    1  N   UNL     1     -10.034   8.339  66.290  1.00  0.00    -0.458 NA 
HETATM    2  C   UNL     1     -10.334   9.604  66.677  1.00  0.00    -0.208 C  
HETATM    3  H1  UNL     1      -9.650   8.168  65.361  1.00  0.00     0.000 HD 
HETATM    4  H2  UNL     1     -10.191   7.560  66.929  1.00  0.00     0.000 HD 
HETATM    5  N   UNL     1     -10.826   9.824  67.867  1.00  0.00    -0.264 NA 
HETATM    6  C   UNL     1     -11.094  11.131  68.103  1.00  0.00    -0.264 A  
HETATM    7  C   UNL     1     -10.910  12.205  67.262  1.00  0.00    -0.244 A  
HETATM    8  N   UNL     1     -11.316  13.376  67.851  1.00  0.00    -0.274 NA 
HETATM    9  C   UNL     1     -10.352  11.948  65.952  1.00  0.00    -0.242 C  
HETATM   10  N   UNL     1     -10.087  10.600  65.751  1.00  0.00    -0.256 N  
HETATM   11  O   UNL     1     -10.123  12.788  65.088  1.00  0.00    -0.278 OA 
HETATM   12  C   UNL     1     -11.747  13.014  69.042  1.00  0.00    -0.329 A  
HETATM   13  N   UNL     1     -11.623  11.663  69.243  1.00  0.00    -0.291 NA 
HETATM   14  H   UNL     1      -9.681  10.325  64.857  1.00  0.00     0.000 HD 
ENDROOT
BRANCH  13  15
HETATM   15  C   UNL     1     -11.931  10.948  70.462  1.00  0.00    -0.371 C  
BRANCH  15  16
HETATM   16  O   UNL     1     -10.886  10.043  70.840  1.00  0.00    -0.319 OA 
BRANCH  16  17
HETATM   17  C   UNL     1     -11.254   9.006  71.779  1.00  0.00    -0.378 C  
BRANCH  17  18
HETATM   18  C   UNL     1     -12.772   8.881  71.973  1.00  0.00    -0.394 C  
HETATM   19  H   UNL     1     -14.161   7.474  71.840  1.00  0.00     0.000 HD 
HETATM   20  O   UNL     1     -13.221   7.551  71.720  1.00  0.00    -0.340 OA 
ENDBRANCH  17  18
BRANCH  17  21
HETATM   21  C   UNL     1     -10.686   7.687  71.226  1.00  0.00    -0.228 C  
HETATM   22  O   UNL     1     -10.948   7.584  69.826  1.00  0.00    -0.303 OA 
HETATM   23  H   UNL     1     -10.598   6.769  69.485  1.00  0.00     0.000 HD 
ENDBRANCH  17  21
ENDBRANCH  16  17
ENDBRANCH  15  16
ENDBRANCH  13  15
TORSDOF 5
ENDMDL
MODEL      123
REMARK 921   NORMALIZED FREE ENERGY PREDICTED BY IDOCK:   -4.36 KCAL/MOL
REMARK 922        TOTAL FREE ENERGY PREDICTED BY IDOCK:   -6.11 KCAL/MOL
REMARK 923 INTER-LIGAND FREE ENERGY PREDICTED BY IDOCK:   -5.75 KCAL/MOL
REMARK 924 INTRA-LIGAND FREE ENERGY PREDICTED BY IDOCK:   -0.36 KCAL/MOL
REMARK 927      BINDING AFFINITY PREDICTED BY RF-SCORE:    0.00 PKD
ROOT
HETATM    1  N   UNL     1      -9.801   9.590  66.226  1.00  0.00    -0.246 NA 
HETATM    2  C   UNL     1     -10.092   8.627  67.136  1.00  0.00    -0.261 C  
HETATM    3  H1  UNL     1      -9.799   9.367  65.231  1.00  0.00     0.000 HD 
HETATM    4  H2  UNL     1      -9.585  10.537  66.537  1.00  0.00     0.000 HD 
HETATM    5  N   UNL     1     -10.094   8.913  68.411  1.00  0.00    -0.183 NA 
HETATM    6  C   UNL     1     -10.383   7.849  69.198  1.00  0.00    -0.219 A  
HETATM    7  C   UNL     1     -10.663   6.556  68.815  1.00  0.00    -0.272 A  
HETATM    8  N   UNL     1     -10.890   5.751  69.904  1.00  0.00    -0.347 NA 
HETATM    9  C   UNL     1     -10.671   6.258  67.400  1.00  0.00    -0.331 C  
HETATM   10  N   UNL     1     -10.376   7.374  66.628  1.00  0.00    -0.488 N  
HETATM   11  O   UNL     1     -10.904   5.165  66.893  1.00  0.00    -0.164 OA 
HETATM   12  C   UNL     1     -10.744   6.550  70.941  1.00  0.00    -0.242 A  
HETATM   13  N   UNL     1     -10.445   7.833  70.561  1.00  0.00    -0.213 NA 
HETATM   14  H   UNL     1     -10.369   7.261  65.614  1.00  0.00     0.000 HD 
ENDROOT
BRANCH  13  15
HETATM   15  C   UNL     1     -10.293   8.972  71.440  1.00  0.00    -0.326 C  
BRANCH  15  16
HETATM   16  O   UNL     1     -11.499   9.270  72.156  1.00  0.00    -0.301 OA 
BRANCH  16  17
HETATM   17  C   UNL     1     -12.687   9.445  71.351  1.00  0.00    -0.345 C  
BRANCH  17  18
HETATM   18  C   UNL     1     -13.948   8.861  72.007  1.00  0.00    -0.437 C  
HETATM   19  H   UNL     1     -15.054   7.223  71.868  1.00  0.00     0.000 HD 
HETATM   20  O   UNL     1     -14.274   7.584  71.462  1.00  0.00    -0.434 OA 
ENDBRANCH  17  18
BRANCH  17  21
HETATM   21  C   UNL     1     -12.861  10.959  71.139  1.00  0.00    -0.409 C  
HETATM   22  O   UNL     1     -13.559  11.536  72.244  1.00  0.00    -0.535 OA 
HETATM   23  H   UNL     1     -13.667  12.471  72.113  1.00  0.00     0.000 HD 
ENDBRANCH  17  21
ENDBRANCH  16  17
ENDBRANCH  15  16
ENDBRANCH  13  15
TORSDOF 5
ENDMDL
MODEL      124
REMARK 921   NORMALIZED FREE ENERGY PREDICTED BY IDOCK:   -4.35 KCAL/MOL
REMARK 922        TOTAL FREE ENERGY PREDICTED BY IDOCK:   -6.10 KCAL/MOL
REMARK 923 INTER-LIGAND FREE ENERGY PREDICTED BY IDOCK:   -5.49 KCAL/MOL
REMARK 924 INTRA-LIGAND FREE ENERGY PREDICTED BY IDOCK:   -0.61 KCAL/MOL
REMARK 927      BINDING AFFINITY PREDICTED BY RF-SCORE:    0.00 PKD
ROOT
HETATM    1  N   UNL     1     -10.351  11.067  68.642  1.00  0.00    -0.185 NA 
HETATM    2  C   UNL     1     -10.519  12.084  67.762  1.00  0.00    -0.203 C  
HETATM    3  H1  UNL     1     -11.025  10.302  68.672  1.00  0.00     0.000 HD 
HETATM    4  H2  UNL     1      -9.551  11.066  69.274  1.00  0.00     0.000 HD 
HETATM    5  N   UNL     1      -9.655  13.064  67.724  1.00  0.00    -0.201 NA 
HETATM    6  C   UNL     1      -9.964  14.015  66.810  1.00  0.00    -0.268 A  
HETATM    7  C   UNL     1     -11.042  14.058  65.953  1.00  0.00    -0.301 A  
HETATM    8  N   UNL     1     -11.023  15.194  65.184  1.00  0.00    -0.392 NA 
HETATM    9  C   UNL     1     -11.982  12.959  65.997  1.00  0.00    -0.446 C  
HETATM   10  N   UNL     1     -11.628  12.004  66.941  1.00  0.00    -0.343 N  
HETATM   11  O   UNL     1     -12.987  12.841  65.304  1.00  0.00    -0.690 OA 
HETATM   12  C   UNL     1      -9.943  15.839  65.573  1.00  0.00    -0.306 A  
HETATM   13  N   UNL     1      -9.264  15.158  66.551  1.00  0.00    -0.269 NA 
HETATM   14  H   UNL     1     -12.229  11.186  67.036  1.00  0.00     0.000 HD 
ENDROOT
BRANCH  13  15
HETATM   15  C   UNL     1      -8.004  15.546  67.146  1.00  0.00    -0.221 C  
BRANCH  15  16
HETATM   16  O   UNL     1      -7.861  16.969  67.235  1.00  0.00    -0.164 OA 
BRANCH  16  17
HETATM   17  C   UNL     1      -8.043  17.545  68.549  1.00  0.00    -0.275 C  
BRANCH  17  18
HETATM   18  C   UNL     1      -6.879  18.452  68.974  1.00  0.00    -0.265 C  
HETATM   19  H   UNL     1      -6.610  20.331  69.543  1.00  0.00     0.000 HD 
HETATM   20  O   UNL     1      -7.330  19.770  69.280  1.00  0.00    -0.327 OA 
ENDBRANCH  17  18
BRANCH  17  21
HETATM   21  C   UNL     1      -9.349  18.357  68.500  1.00  0.00    -0.335 C  
HETATM   22  O   UNL     1      -9.485  18.999  67.232  1.00  0.00    -0.301 OA 
HETATM   23  H   UNL     1     -10.292  19.501  67.202  1.00  0.00     0.000 HD 
ENDBRANCH  17  21
ENDBRANCH  16  17
ENDBRANCH  15  16
ENDBRANCH  13  15
TORSDOF 5
ENDMDL
MODEL      125
REMARK 921   NORMALIZED FREE ENERGY PREDICTED BY IDOCK:   -4.31 KCAL/MOL
REMARK 922        TOTAL FREE ENERGY PREDICTED BY IDOCK:   -6.05 KCAL/MOL
REMARK 923 INTER-LIGAND FREE ENERGY PREDICTED BY IDOCK:   -5.63 KCAL/MOL
REMARK 924 INTRA-LIGAND FREE ENERGY PREDICTED BY IDOCK:   -0.42 KCAL/MOL
REMARK 927      BINDING AFFINITY PREDICTED BY RF-SCORE:    0.00 PKD
ROOT
HETATM    1  N   UNL     1     -11.112   5.730  66.321  1.00  0.00    -0.755 NA 
HETATM    2  C   UNL     1     -10.929   6.611  67.336  1.00  0.00    -0.360 C  
HETATM    3  H1  UNL     1     -11.176   4.731  66.518  1.00  0.00     0.000 HD 
HETATM    4  H2  UNL     1     -11.187   6.066  65.361  1.00  0.00     0.000 HD 
HETATM    5  N   UNL     1     -10.848   7.890  67.084  1.00  0.00    -0.231 NA 
HETATM    6  C   UNL     1     -10.647   8.643  68.193  1.00  0.00    -0.133 A  
HETATM    7  C   UNL     1     -10.526   8.223  69.498  1.00  0.00    -0.227 A  
HETATM    8  N   UNL     1     -10.311   9.281  70.345  1.00  0.00    -0.221 NA 
HETATM    9  C   UNL     1     -10.632   6.805  69.764  1.00  0.00    -0.228 C  
HETATM   10  N   UNL     1     -10.843   6.069  68.605  1.00  0.00    -0.303 N  
HETATM   11  O   UNL     1     -10.551   6.268  70.864  1.00  0.00    -0.221 OA 
HETATM   12  C   UNL     1     -10.299  10.337  69.558  1.00  0.00    -0.242 A  
HETATM   13  N   UNL     1     -10.507   9.999  68.245  1.00  0.00    -0.200 NA 
HETATM   14  H   UNL     1     -10.941   5.058  68.696  1.00  0.00     0.000 HD 
ENDROOT
BRANCH  13  15
HETATM   15  C   UNL     1     -10.626  10.918  67.134  1.00  0.00    -0.255 C  
BRANCH  15  16
HETATM   16  O   UNL     1     -11.855  11.655  67.168  1.00  0.00    -0.608 OA 
BRANCH  16  17
HETATM   17  C   UNL     1     -11.748  13.079  66.938  1.00  0.00    -0.383 C  
BRANCH  17  18
HETATM   18  C   UNL     1     -11.836  13.905  68.230  1.00  0.00    -0.376 C  
HETATM   19  H   UNL     1     -10.625  14.502  69.680  1.00  0.00     0.000 HD 
HETATM   20  O   UNL     1     -10.570  13.991  68.881  1.00  0.00    -0.244 OA 
ENDBRANCH  17  18
BRANCH  17  21
HETATM   21  C   UNL     1     -10.389  13.317  66.257  1.00  0.00    -0.290 C  
HETATM   22  O   UNL     1     -10.565  13.500  64.851  1.00  0.00    -0.349 OA 
HETATM   23  H   UNL     1      -9.726  13.647  64.431  1.00  0.00     0.000 HD 
ENDBRANCH  17  21
ENDBRANCH  16  17
ENDBRANCH  15  16
ENDBRANCH  13  15
TORSDOF 5
ENDMDL
MODEL      126
REMARK 921   NORMALIZED FREE ENERGY PREDICTED BY IDOCK:   -4.30 KCAL/MOL
REMARK 922        TOTAL FREE ENERGY PREDICTED BY IDOCK:   -6.04 KCAL/MOL
REMARK 923 INTER-LIGAND FREE ENERGY PREDICTED BY IDOCK:   -5.49 KCAL/MOL
REMARK 924 INTRA-LIGAND FREE ENERGY PREDICTED BY IDOCK:   -0.55 KCAL/MOL
REMARK 927      BINDING AFFINITY PREDICTED BY RF-SCORE:    0.00 PKD
ROOT
HETATM    1  N   UNL     1     -11.008   9.387  68.210  1.00  0.00    -0.471 NA 
HETATM    2  C   UNL     1     -11.573  10.100  69.215  1.00  0.00    -0.055 C  
HETATM    3  H1  UNL     1     -10.908   8.376  68.295  1.00  0.00     0.000 HD 
HETATM    4  H2  UNL     1     -10.683   9.862  67.368  1.00  0.00     0.000 HD 
HETATM    5  N   UNL     1     -11.701  11.396  69.106  1.00  0.00    -0.313 NA 
HETATM    6  C   UNL     1     -12.264  11.973  70.194  1.00  0.00    -0.231 A  
HETATM    7  C   UNL     1     -12.699  11.367  71.352  1.00  0.00    -0.384 A  
HETATM    8  N   UNL     1     -13.200  12.286  72.239  1.00  0.00    -0.396 NA 
HETATM    9  C   UNL     1     -12.565   9.930  71.453  1.00  0.00    -0.398 C  
HETATM   10  N   UNL     1     -11.988   9.377  70.317  1.00  0.00    -0.470 N  
HETATM   11  O   UNL     1     -12.902   9.239  72.408  1.00  0.00    -0.387 OA 
HETATM   12  C   UNL     1     -13.067  13.444  71.625  1.00  0.00    -0.375 A  
HETATM   13  N   UNL     1     -12.512  13.302  70.379  1.00  0.00    -0.267 NA 
HETATM   14  H   UNL     1     -11.862   8.365  70.294  1.00  0.00     0.000 HD 
ENDROOT
BRANCH  13  15
HETATM   15  C   UNL     1     -12.296  14.357  69.414  1.00  0.00    -0.191 C  
BRANCH  15  16
HETATM   16  O   UNL     1     -11.026  14.998  69.585  1.00  0.00    -0.259 OA 
BRANCH  16  17
HETATM   17  C   UNL     1     -10.251  15.202  68.381  1.00  0.00    -0.221 C  
BRANCH  17  18
HETATM   18  C   UNL     1     -10.344  16.637  67.842  1.00  0.00    -0.310 C  
HETATM   19  H   UNL     1     -10.571  18.468  68.565  1.00  0.00     0.000 HD 
HETATM   20  O   UNL     1     -10.514  17.580  68.899  1.00  0.00    -0.349 OA 
ENDBRANCH  17  18
BRANCH  17  21
HETATM   21  C   UNL     1      -8.790  14.869  68.732  1.00  0.00    -0.183 C  
HETATM   22  O   UNL     1      -8.138  16.017  69.278  1.00  0.00    -0.232 OA 
HETATM   23  H   UNL     1      -7.236  15.811  69.495  1.00  0.00     0.000 HD 
ENDBRANCH  17  21
ENDBRANCH  16  17
ENDBRANCH  15  16
ENDBRANCH  13  15
TORSDOF 5
ENDMDL
MODEL      127
REMARK 921   NORMALIZED FREE ENERGY PREDICTED BY IDOCK:   -4.28 KCAL/MOL
REMARK 922        TOTAL FREE ENERGY PREDICTED BY IDOCK:   -6.01 KCAL/MOL
REMARK 923 INTER-LIGAND FREE ENERGY PREDICTED BY IDOCK:   -5.62 KCAL/MOL
REMARK 924 INTRA-LIGAND FREE ENERGY PREDICTED BY IDOCK:   -0.39 KCAL/MOL
REMARK 927      BINDING AFFINITY PREDICTED BY RF-SCORE:    0.00 PKD
ROOT
HETATM    1  N   UNL     1     -12.187  12.584  66.183  1.00  0.00    -0.608 NA 
HETATM    2  C   UNL     1     -11.135  13.045  66.904  1.00  0.00    -0.277 C  
HETATM    3  H1  UNL     1     -12.181  11.629  65.825  1.00  0.00     0.000 HD 
HETATM    4  H2  UNL     1     -12.986  13.192  66.000  1.00  0.00     0.000 HD 
HETATM    5  N   UNL     1     -11.143  14.269  67.362  1.00  0.00    -0.295 NA 
HETATM    6  C   UNL     1     -10.019  14.593  68.045  1.00  0.00    -0.220 A  
HETATM    7  C   UNL     1      -8.917  13.806  68.298  1.00  0.00    -0.186 A  
HETATM    8  N   UNL     1      -7.966  14.492  69.010  1.00  0.00    -0.122 NA 
HETATM    9  C   UNL     1      -8.928  12.449  67.796  1.00  0.00    -0.182 C  
HETATM   10  N   UNL     1     -10.098  12.155  67.108  1.00  0.00    -0.206 N  
HETATM   11  O   UNL     1      -8.035  11.620  67.935  1.00  0.00    -0.119 OA 
HETATM   12  C   UNL     1      -8.485  15.690  69.186  1.00  0.00    -0.253 A  
HETATM   13  N   UNL     1      -9.733  15.794  68.625  1.00  0.00    -0.199 NA 
HETATM   14  H   UNL     1     -10.199  11.214  66.726  1.00  0.00     0.000 HD 
ENDROOT
BRANCH  13  15
HETATM   15  C   UNL     1     -10.609  16.943  68.698  1.00  0.00    -0.360 C  
BRANCH  15  16
HETATM   16  O   UNL     1      -9.898  18.179  68.552  1.00  0.00    -0.343 OA 
BRANCH  16  17
HETATM   17  C   UNL     1      -9.428  18.487  67.219  1.00  0.00    -0.288 C  
BRANCH  17  18
HETATM   18  C   UNL     1     -10.464  18.173  66.129  1.00  0.00    -0.364 C  
HETATM   19  H   UNL     1     -10.717  16.847  64.679  1.00  0.00     0.000 HD 
HETATM   20  O   UNL     1     -10.076  17.041  65.353  1.00  0.00    -0.581 OA 
ENDBRANCH  17  18
BRANCH  17  21
HETATM   21  C   UNL     1      -9.092  19.988  67.204  1.00  0.00    -0.363 C  
HETATM   22  O   UNL     1      -9.578  20.592  66.004  1.00  0.00    -0.654 OA 
HETATM   23  H   UNL     1      -9.370  21.519  65.995  1.00  0.00     0.000 HD 
ENDBRANCH  17  21
ENDBRANCH  16  17
ENDBRANCH  15  16
ENDBRANCH  13  15
TORSDOF 5
ENDMDL
MODEL      128
REMARK 921   NORMALIZED FREE ENERGY PREDICTED BY IDOCK:   -4.27 KCAL/MOL
REMARK 922        TOTAL FREE ENERGY PREDICTED BY IDOCK:   -6.01 KCAL/MOL
REMARK 923 INTER-LIGAND FREE ENERGY PREDICTED BY IDOCK:   -5.53 KCAL/MOL
REMARK 924 INTRA-LIGAND FREE ENERGY PREDICTED BY IDOCK:   -0.47 KCAL/MOL
REMARK 927      BINDING AFFINITY PREDICTED BY RF-SCORE:    0.00 PKD
ROOT
HETATM    1  N   UNL     1     -14.242  13.995  72.573  1.00  0.00    -0.648 NA 
HETATM    2  C   UNL     1     -13.473  13.422  71.614  1.00  0.00    -0.299 C  
HETATM    3  H1  UNL     1     -14.493  14.981  72.504  1.00  0.00     0.000 HD 
HETATM    4  H2  UNL     1     -14.571  13.439  73.362  1.00  0.00     0.000 HD 
HETATM    5  N   UNL     1     -13.152  12.159  71.702  1.00  0.00    -0.388 NA 
HETATM    6  C   UNL     1     -12.365  11.733  70.684  1.00  0.00    -0.328 A  
HETATM    7  C   UNL     1     -11.891  12.457  69.613  1.00  0.00    -0.311 A  
HETATM    8  N   UNL     1     -11.107  11.683  68.795  1.00  0.00    -0.212 NA 
HETATM    9  C   UNL     1     -12.266  13.851  69.521  1.00  0.00    -0.306 C  
HETATM   10  N   UNL     1     -13.075  14.247  70.579  1.00  0.00    -0.403 N  
HETATM   11  O   UNL     1     -11.933  14.632  68.635  1.00  0.00    -0.315 OA 
HETATM   12  C   UNL     1     -11.104  10.496  69.367  1.00  0.00    -0.258 A  
HETATM   13  N   UNL     1     -11.861  10.478  70.511  1.00  0.00    -0.319 NA 
HETATM   14  H   UNL     1     -13.398  15.214  70.592  1.00  0.00     0.000 HD 
ENDROOT
BRANCH  13  15
HETATM   15  C   UNL     1     -12.129   9.323  71.339  1.00  0.00    -0.348 C  
BRANCH  15  16
HETATM   16  O   UNL     1     -10.982   8.918  72.096  1.00  0.00    -0.362 OA 
BRANCH  16  17
HETATM   17  C   UNL     1     -10.279   7.752  71.608  1.00  0.00    -0.186 C  
BRANCH  17  18
HETATM   18  C   UNL     1      -9.737   6.862  72.736  1.00  0.00    -0.150 C  
HETATM   19  H   UNL     1      -8.396   5.419  72.957  1.00  0.00     0.000 HD 
HETATM   20  O   UNL     1      -8.731   5.970  72.259  1.00  0.00    -0.131 OA 
ENDBRANCH  17  18
BRANCH  17  21
HETATM   21  C   UNL     1     -11.278   6.958  70.749  1.00  0.00    -0.294 C  
HETATM   22  O   UNL     1     -10.837   5.608  70.597  1.00  0.00    -0.273 OA 
HETATM   23  H   UNL     1     -11.454   5.118  70.067  1.00  0.00     0.000 HD 
ENDBRANCH  17  21
ENDBRANCH  16  17
ENDBRANCH  15  16
ENDBRANCH  13  15
TORSDOF 5
ENDMDL
MODEL      129
REMARK 921   NORMALIZED FREE ENERGY PREDICTED BY IDOCK:   -4.25 KCAL/MOL
REMARK 922        TOTAL FREE ENERGY PREDICTED BY IDOCK:   -5.98 KCAL/MOL
REMARK 923 INTER-LIGAND FREE ENERGY PREDICTED BY IDOCK:   -5.59 KCAL/MOL
REMARK 924 INTRA-LIGAND FREE ENERGY PREDICTED BY IDOCK:   -0.39 KCAL/MOL
REMARK 927      BINDING AFFINITY PREDICTED BY RF-SCORE:    0.00 PKD
ROOT
HETATM    1  N   UNL     1     -12.786  14.984  70.663  1.00  0.00    -0.394 NA 
HETATM    2  C   UNL     1     -12.306  13.814  70.172  1.00  0.00    -0.323 C  
HETATM    3  H1  UNL     1     -13.098  15.040  71.633  1.00  0.00     0.000 HD 
HETATM    4  H2  UNL     1     -12.834  15.808  70.064  1.00  0.00     0.000 HD 
HETATM    5  N   UNL     1     -11.907  13.743  68.930  1.00  0.00    -0.342 NA 
HETATM    6  C   UNL     1     -11.472  12.509  68.577  1.00  0.00    -0.305 A  
HETATM    7  C   UNL     1     -11.408  11.373  69.352  1.00  0.00    -0.297 A  
HETATM    8  N   UNL     1     -10.926  10.306  68.636  1.00  0.00    -0.238 NA 
HETATM    9  C   UNL     1     -11.840  11.471  70.729  1.00  0.00    -0.070 C  
HETATM   10  N   UNL     1     -12.272  12.751  71.053  1.00  0.00    -0.406 N  
HETATM   11  O   UNL     1     -11.845  10.560  71.551  1.00  0.00    -0.255 OA 
HETATM   12  C   UNL     1     -10.702  10.791  67.432  1.00  0.00    -0.268 A  
HETATM   13  N   UNL     1     -11.010  12.125  67.352  1.00  0.00    -0.248 NA 
HETATM   14  H   UNL     1     -12.587  12.917  72.009  1.00  0.00     0.000 HD 
ENDROOT
BRANCH  13  15
HETATM   15  C   UNL     1     -10.815  12.979  66.201  1.00  0.00    -0.279 C  
BRANCH  15  16
HETATM   16  O   UNL     1      -9.838  12.454  65.294  1.00  0.00    -0.245 OA 
BRANCH  16  17
HETATM   17  C   UNL     1     -10.313  12.129  63.967  1.00  0.00    -0.385 C  
BRANCH  17  18
HETATM   18  C   UNL     1     -10.433  10.617  63.726  1.00  0.00     0.005 C  
HETATM   19  H   UNL     1      -9.277   9.128  63.113  1.00  0.00     0.000 HD 
HETATM   20  O   UNL     1      -9.203  10.064  63.262  1.00  0.00    -0.262 OA 
ENDBRANCH  17  18
BRANCH  17  21
HETATM   21  C   UNL     1     -11.692  12.794  63.814  1.00  0.00    -0.493 C  
HETATM   22  O   UNL     1     -12.575  11.940  63.086  1.00  0.00    -0.788 OA 
HETATM   23  H   UNL     1     -13.427  12.350  62.992  1.00  0.00     0.000 HD 
ENDBRANCH  17  21
ENDBRANCH  16  17
ENDBRANCH  15  16
ENDBRANCH  13  15
TORSDOF 5
ENDMDL
MODEL      130
REMARK 921   NORMALIZED FREE ENERGY PREDICTED BY IDOCK:   -4.25 KCAL/MOL
REMARK 922        TOTAL FREE ENERGY PREDICTED BY IDOCK:   -5.98 KCAL/MOL
REMARK 923 INTER-LIGAND FREE ENERGY PREDICTED BY IDOCK:   -5.51 KCAL/MOL
REMARK 924 INTRA-LIGAND FREE ENERGY PREDICTED BY IDOCK:   -0.47 KCAL/MOL
REMARK 927      BINDING AFFINITY PREDICTED BY RF-SCORE:    0.00 PKD
ROOT
HETATM    1  N   UNL     1     -12.284  13.947  68.344  1.00  0.00    -0.498 NA 
HETATM    2  C   UNL     1     -11.984  13.503  67.098  1.00  0.00    -0.381 C  
HETATM    3  H1  UNL     1     -12.819  14.807  68.464  1.00  0.00     0.000 HD 
HETATM    4  H2  UNL     1     -11.974  13.421  69.161  1.00  0.00     0.000 HD 
HETATM    5  N   UNL     1     -11.298  12.402  66.945  1.00  0.00    -0.312 NA 
HETATM    6  C   UNL     1     -11.059  12.096  65.646  1.00  0.00    -0.316 A  
HETATM    7  C   UNL     1     -11.447  12.789  64.522  1.00  0.00    -0.342 A  
HETATM    8  N   UNL     1     -11.002  12.173  63.378  1.00  0.00    -0.431 NA 
HETATM    9  C   UNL     1     -12.218  13.998  64.706  1.00  0.00    -0.433 C  
HETATM   10  N   UNL     1     -12.445  14.274  66.049  1.00  0.00    -0.423 N  
HETATM   11  O   UNL     1     -12.642  14.728  63.816  1.00  0.00    -0.806 OA 
HETATM   12  C   UNL     1     -10.346  11.115  63.807  1.00  0.00    -0.386 A  
HETATM   13  N   UNL     1     -10.362  11.022  65.175  1.00  0.00    -0.281 NA 
HETATM   14  H   UNL     1     -12.991  15.106  66.276  1.00  0.00     0.000 HD 
ENDROOT
BRANCH  13  15
HETATM   15  C   UNL     1      -9.802   9.947  65.965  1.00  0.00    -0.264 C  
BRANCH  15  16
HETATM   16  O   UNL     1      -8.965   9.081  65.189  1.00  0.00    -0.200 OA 
BRANCH  16  17
HETATM   17  C   UNL     1      -7.854   8.476  65.891  1.00  0.00    -0.099 C  
BRANCH  17  18
HETATM   18  C   UNL     1      -8.219   7.141  66.556  1.00  0.00    -0.117 C  
HETATM   19  H   UNL     1      -9.172   5.471  66.079  1.00  0.00     0.000 HD 
HETATM   20  O   UNL     1      -8.946   6.297  65.666  1.00  0.00    -0.123 OA 
ENDBRANCH  17  18
BRANCH  17  21
HETATM   21  C   UNL     1      -6.740   8.256  64.852  1.00  0.00    -0.067 C  
HETATM   22  O   UNL     1      -6.158   6.963  65.018  1.00  0.00    -0.035 OA 
HETATM   23  H   UNL     1      -5.470   6.826  64.377  1.00  0.00     0.000 HD 
ENDBRANCH  17  21
ENDBRANCH  16  17
ENDBRANCH  15  16
ENDBRANCH  13  15
TORSDOF 5
ENDMDL
MODEL      131
REMARK 921   NORMALIZED FREE ENERGY PREDICTED BY IDOCK:   -4.25 KCAL/MOL
REMARK 922        TOTAL FREE ENERGY PREDICTED BY IDOCK:   -5.97 KCAL/MOL
REMARK 923 INTER-LIGAND FREE ENERGY PREDICTED BY IDOCK:   -5.42 KCAL/MOL
REMARK 924 INTRA-LIGAND FREE ENERGY PREDICTED BY IDOCK:   -0.55 KCAL/MOL
REMARK 927      BINDING AFFINITY PREDICTED BY RF-SCORE:    0.00 PKD
ROOT
HETATM    1  N   UNL     1     -10.412   6.811  73.312  1.00  0.00    -0.269 NA 
HETATM    2  C   UNL     1     -11.065   7.768  72.607  1.00  0.00    -0.376 C  
HETATM    3  H1  UNL     1     -10.901   6.292  74.041  1.00  0.00     0.000 HD 
HETATM    4  H2  UNL     1      -9.432   6.610  73.113  1.00  0.00     0.000 HD 
HETATM    5  N   UNL     1     -10.438   8.433  71.673  1.00  0.00    -0.232 NA 
HETATM    6  C   UNL     1     -11.212   9.368  71.069  1.00  0.00    -0.342 A  
HETATM    7  C   UNL     1     -12.530   9.677  71.322  1.00  0.00    -0.355 A  
HETATM    8  N   UNL     1     -12.967  10.697  70.515  1.00  0.00    -0.282 NA 
HETATM    9  C   UNL     1     -13.215   8.923  72.349  1.00  0.00    -0.430 C  
HETATM   10  N   UNL     1     -12.390   7.973  72.939  1.00  0.00    -0.586 N  
HETATM   11  O   UNL     1     -14.383   9.069  72.694  1.00  0.00    -0.603 OA 
HETATM   12  C   UNL     1     -11.920  11.007  69.779  1.00  0.00    -0.356 A  
HETATM   13  N   UNL     1     -10.835  10.222  70.074  1.00  0.00    -0.292 NA 
HETATM   14  H   UNL     1     -12.792   7.385  73.669  1.00  0.00     0.000 HD 
ENDROOT
BRANCH  13  15
HETATM   15  C   UNL     1      -9.553  10.248  69.405  1.00  0.00    -0.218 C  
BRANCH  15  16
HETATM   16  O   UNL     1      -9.391   9.151  68.497  1.00  0.00    -0.136 OA 
BRANCH  16  17
HETATM   17  C   UNL     1      -8.879   9.482  67.186  1.00  0.00    -0.131 C  
BRANCH  17  18
HETATM   18  C   UNL     1      -7.653   8.646  66.791  1.00  0.00    -0.086 C  
HETATM   19  H   UNL     1      -7.040   6.767  66.947  1.00  0.00     0.000 HD 
HETATM   20  O   UNL     1      -7.799   7.285  67.192  1.00  0.00    -0.106 OA 
ENDBRANCH  17  18
BRANCH  17  21
HETATM   21  C   UNL     1     -10.024   9.236  66.187  1.00  0.00    -0.277 C  
HETATM   22  O   UNL     1     -10.748   8.057  66.545  1.00  0.00    -0.342 OA 
HETATM   23  H   UNL     1     -11.455   7.906  65.929  1.00  0.00     0.000 HD 
ENDBRANCH  17  21
ENDBRANCH  16  17
ENDBRANCH  15  16
ENDBRANCH  13  15
TORSDOF 5
ENDMDL
MODEL      132
REMARK 921   NORMALIZED FREE ENERGY PREDICTED BY IDOCK:   -4.24 KCAL/MOL
REMARK 922        TOTAL FREE ENERGY PREDICTED BY IDOCK:   -5.97 KCAL/MOL
REMARK 923 INTER-LIGAND FREE ENERGY PREDICTED BY IDOCK:   -5.28 KCAL/MOL
REMARK 924 INTRA-LIGAND FREE ENERGY PREDICTED BY IDOCK:   -0.69 KCAL/MOL
REMARK 927      BINDING AFFINITY PREDICTED BY RF-SCORE:    0.00 PKD
ROOT
HETATM    1  N   UNL     1     -13.375   8.674  72.419  1.00  0.00    -0.563 NA 
HETATM    2  C   UNL     1     -13.007   9.849  71.851  1.00  0.00    -0.448 C  
HETATM    3  H1  UNL     1     -14.016   8.670  73.212  1.00  0.00     0.000 HD 
HETATM    4  H2  UNL     1     -13.011   7.794  72.053  1.00  0.00     0.000 HD 
HETATM    5  N   UNL     1     -12.185   9.854  70.835  1.00  0.00    -0.316 NA 
HETATM    6  C   UNL     1     -11.894  11.099  70.387  1.00  0.00    -0.369 A  
HETATM    7  C   UNL     1     -12.353  12.306  70.865  1.00  0.00    -0.267 A  
HETATM    8  N   UNL     1     -11.820  13.357  70.160  1.00  0.00    -0.301 NA 
HETATM    9  C   UNL     1     -13.273  12.285  71.981  1.00  0.00    -0.403 C  
HETATM   10  N   UNL     1     -13.549  10.992  72.407  1.00  0.00    -0.401 N  
HETATM   11  O   UNL     1     -13.775  13.264  72.522  1.00  0.00    -0.621 OA 
HETATM   12  C   UNL     1     -11.041  12.790  69.262  1.00  0.00    -0.133 A  
HETATM   13  N   UNL     1     -11.061  11.422  69.355  1.00  0.00    -0.250 NA 
HETATM   14  H   UNL     1     -14.198  10.878  73.185  1.00  0.00     0.000 HD 
ENDROOT
BRANCH  13  15
HETATM   15  C   UNL     1     -10.380  10.495  68.479  1.00  0.00    -0.179 C  
BRANCH  15  16
HETATM   16  O   UNL     1      -9.133  10.047  69.025  1.00  0.00    -0.151 OA 
BRANCH  16  17
HETATM   17  C   UNL     1      -7.973  10.216  68.179  1.00  0.00    -0.104 C  
BRANCH  17  18
HETATM   18  C   UNL     1      -8.086  11.424  67.237  1.00  0.00    -0.148 C  
HETATM   19  H   UNL     1      -7.811  13.385  67.321  1.00  0.00     0.000 HD 
HETATM   20  O   UNL     1      -7.741  12.637  67.903  1.00  0.00    -0.115 OA 
ENDBRANCH  17  18
BRANCH  17  21
HETATM   21  C   UNL     1      -6.764  10.393  69.115  1.00  0.00    -0.061 C  
HETATM   22  O   UNL     1      -7.164  11.044  70.321  1.00  0.00    -0.452 OA 
HETATM   23  H   UNL     1      -6.417  11.154  70.899  1.00  0.00     0.000 HD 
ENDBRANCH  17  21
ENDBRANCH  16  17
ENDBRANCH  15  16
ENDBRANCH  13  15
TORSDOF 5
ENDMDL
MODEL      133
REMARK 921   NORMALIZED FREE ENERGY PREDICTED BY IDOCK:   -4.22 KCAL/MOL
REMARK 922        TOTAL FREE ENERGY PREDICTED BY IDOCK:   -5.93 KCAL/MOL
REMARK 923 INTER-LIGAND FREE ENERGY PREDICTED BY IDOCK:   -5.40 KCAL/MOL
REMARK 924 INTRA-LIGAND FREE ENERGY PREDICTED BY IDOCK:   -0.53 KCAL/MOL
REMARK 927      BINDING AFFINITY PREDICTED BY RF-SCORE:    0.00 PKD
ROOT
HETATM    1  N   UNL     1     -10.280  11.622  68.895  1.00  0.00    -0.361 NA 
HETATM    2  C   UNL     1     -11.135  11.029  69.766  1.00  0.00    -0.235 C  
HETATM    3  H1  UNL     1     -10.236  12.639  68.837  1.00  0.00     0.000 HD 
HETATM    4  H2  UNL     1      -9.681  11.051  68.299  1.00  0.00     0.000 HD 
HETATM    5  N   UNL     1     -11.191   9.726  69.840  1.00  0.00    -0.242 NA 
HETATM    6  C   UNL     1     -12.102   9.279  70.738  1.00  0.00    -0.171 A  
HETATM    7  C   UNL     1     -12.936  10.018  71.546  1.00  0.00    -0.434 A  
HETATM    8  N   UNL     1     -13.735   9.208  72.314  1.00  0.00    -0.472 NA 
HETATM    9  C   UNL     1     -12.853  11.460  71.463  1.00  0.00    -0.403 C  
HETATM   10  N   UNL     1     -11.905  11.877  70.537  1.00  0.00    -0.510 N  
HETATM   11  O   UNL     1     -13.519  12.260  72.112  1.00  0.00    -0.509 OA 
HETATM   12  C   UNL     1     -13.389   7.984  71.972  1.00  0.00    -0.244 A  
HETATM   13  N   UNL     1     -12.396   7.978  71.026  1.00  0.00    -0.214 NA 
HETATM   14  H   UNL     1     -11.770  12.881  70.418  1.00  0.00     0.000 HD 
ENDROOT
BRANCH  13  15
HETATM   15  C   UNL     1     -11.736   6.809  70.486  1.00  0.00    -0.375 C  
BRANCH  15  16
HETATM   16  O   UNL     1     -10.963   6.117  71.474  1.00  0.00    -0.254 OA 
BRANCH  16  17
HETATM   17  C   UNL     1      -9.667   6.682  71.777  1.00  0.00    -0.161 C  
BRANCH  17  18
HETATM   18  C   UNL     1      -9.649   7.472  73.094  1.00  0.00    -0.233 C  
HETATM   19  H   UNL     1     -10.716   7.579  74.761  1.00  0.00     0.000 HD 
HETATM   20  O   UNL     1     -10.727   7.089  73.946  1.00  0.00    -0.324 OA 
ENDBRANCH  17  18
BRANCH  17  21
HETATM   21  C   UNL     1      -8.678   5.507  71.859  1.00  0.00    -0.135 C  
HETATM   22  O   UNL     1      -9.365   4.268  71.672  1.00  0.00    -0.126 OA 
HETATM   23  H   UNL     1      -8.754   3.542  71.723  1.00  0.00     0.000 HD 
ENDBRANCH  17  21
ENDBRANCH  16  17
ENDBRANCH  15  16
ENDBRANCH  13  15
TORSDOF 5
ENDMDL
MODEL      134
REMARK 921   NORMALIZED FREE ENERGY PREDICTED BY IDOCK:   -4.21 KCAL/MOL
REMARK 922        TOTAL FREE ENERGY PREDICTED BY IDOCK:   -5.92 KCAL/MOL
REMARK 923 INTER-LIGAND FREE ENERGY PREDICTED BY IDOCK:   -5.53 KCAL/MOL
REMARK 924 INTRA-LIGAND FREE ENERGY PREDICTED BY IDOCK:   -0.39 KCAL/MOL
REMARK 927      BINDING AFFINITY PREDICTED BY RF-SCORE:    0.00 PKD
ROOT
HETATM    1  N   UNL     1     -11.692   9.092  71.294  1.00  0.00    -0.302 NA 
HETATM    2  C   UNL     1     -11.494   9.751  70.125  1.00  0.00    -0.216 C  
HETATM    3  H1  UNL     1     -11.467   8.100  71.365  1.00  0.00     0.000 HD 
HETATM    4  H2  UNL     1     -12.065   9.589  72.103  1.00  0.00     0.000 HD 
HETATM    5  N   UNL     1     -11.782  11.022  70.034  1.00  0.00    -0.324 NA 
HETATM    6  C   UNL     1     -11.551  11.537  68.803  1.00  0.00    -0.316 A  
HETATM    7  C   UNL     1     -11.063  10.894  67.687  1.00  0.00    -0.313 A  
HETATM    8  N   UNL     1     -10.981  11.748  66.615  1.00  0.00    -0.281 NA 
HETATM    9  C   UNL     1     -10.735   9.491  67.806  1.00  0.00    -0.242 C  
HETATM   10  N   UNL     1     -10.981   9.002  69.083  1.00  0.00    -0.426 N  
HETATM   11  O   UNL     1     -10.290   8.774  66.915  1.00  0.00    -0.271 OA 
HETATM   12  C   UNL     1     -11.419  12.901  67.077  1.00  0.00    -0.339 A  
HETATM   13  N   UNL     1     -11.767  12.823  68.401  1.00  0.00    -0.322 NA 
HETATM   14  H   UNL     1     -10.769   8.021  69.264  1.00  0.00     0.000 HD 
ENDROOT
BRANCH  13  15
HETATM   15  C   UNL     1     -12.214  13.919  69.233  1.00  0.00    -0.277 C  
BRANCH  15  16
HETATM   16  O   UNL     1     -11.926  15.196  68.651  1.00  0.00    -0.315 OA 
BRANCH  16  17
HETATM   17  C   UNL     1     -11.366  16.188  69.541  1.00  0.00    -0.321 C  
BRANCH  17  18
HETATM   18  C   UNL     1     -11.031  15.627  70.931  1.00  0.00    -0.272 C  
HETATM   19  H   UNL     1     -11.647  15.864  72.800  1.00  0.00     0.000 HD 
HETATM   20  O   UNL     1     -11.854  16.211  71.940  1.00  0.00    -0.480 OA 
ENDBRANCH  17  18
BRANCH  17  21
HETATM   21  C   UNL     1     -10.087  16.716  68.868  1.00  0.00    -0.274 C  
HETATM   22  O   UNL     1      -8.962  15.925  69.255  1.00  0.00    -0.242 OA 
HETATM   23  H   UNL     1      -8.172  16.251  68.840  1.00  0.00     0.000 HD 
ENDBRANCH  17  21
ENDBRANCH  16  17
ENDBRANCH  15  16
ENDBRANCH  13  15
TORSDOF 5
ENDMDL
MODEL      135
REMARK 921   NORMALIZED FREE ENERGY PREDICTED BY IDOCK:   -4.20 KCAL/MOL
REMARK 922        TOTAL FREE ENERGY PREDICTED BY IDOCK:   -5.91 KCAL/MOL
REMARK 923 INTER-LIGAND FREE ENERGY PREDICTED BY IDOCK:   -5.59 KCAL/MOL
REMARK 924 INTRA-LIGAND FREE ENERGY PREDICTED BY IDOCK:   -0.32 KCAL/MOL
REMARK 927      BINDING AFFINITY PREDICTED BY RF-SCORE:    0.00 PKD
ROOT
HETATM    1  N   UNL     1     -13.569   8.991  72.705  1.00  0.00    -0.845 NA 
HETATM    2  C   UNL     1     -13.072   9.964  71.902  1.00  0.00    -0.459 C  
HETATM    3  H1  UNL     1     -14.170   9.237  73.492  1.00  0.00     0.000 HD 
HETATM    4  H2  UNL     1     -13.342   8.013  72.523  1.00  0.00     0.000 HD 
HETATM    5  N   UNL     1     -12.303   9.649  70.894  1.00  0.00    -0.288 NA 
HETATM    6  C   UNL     1     -11.868  10.725  70.194  1.00  0.00    -0.343 A  
HETATM    7  C   UNL     1     -12.139  12.056  70.421  1.00  0.00    -0.321 A  
HETATM    8  N   UNL     1     -11.503  12.857  69.507  1.00  0.00    -0.254 NA 
HETATM    9  C   UNL     1     -13.004  12.389  71.531  1.00  0.00    -0.285 C  
HETATM   10  N   UNL     1     -13.432  11.260  72.219  1.00  0.00    -0.521 N  
HETATM   11  O   UNL     1     -13.347  13.518  71.867  1.00  0.00    -0.391 OA 
HETATM   12  C   UNL     1     -10.846  12.018  68.732  1.00  0.00    -0.230 A  
HETATM   13  N   UNL     1     -11.045  10.714  69.106  1.00  0.00    -0.236 NA 
HETATM   14  H   UNL     1     -14.056  11.397  73.014  1.00  0.00     0.000 HD 
ENDROOT
BRANCH  13  15
HETATM   15  C   UNL     1     -10.533   9.543  68.429  1.00  0.00    -0.224 C  
BRANCH  15  16
HETATM   16  O   UNL     1      -9.102   9.541  68.353  1.00  0.00    -0.127 OA 
BRANCH  16  17
HETATM   17  C   UNL     1      -8.534   9.181  67.073  1.00  0.00    -0.123 C  
BRANCH  17  18
HETATM   18  C   UNL     1      -7.814   7.824  67.095  1.00  0.00    -0.113 C  
HETATM   19  H   UNL     1      -7.790   6.190  68.216  1.00  0.00     0.000 HD 
HETATM   20  O   UNL     1      -8.235   7.029  68.202  1.00  0.00    -0.118 OA 
ENDBRANCH  17  18
BRANCH  17  21
HETATM   21  C   UNL     1      -9.698   9.138  66.067  1.00  0.00    -0.287 C  
HETATM   22  O   UNL     1      -9.196   9.144  64.730  1.00  0.00    -0.422 OA 
HETATM   23  H   UNL     1      -9.915   9.118  64.109  1.00  0.00     0.000 HD 
ENDBRANCH  17  21
ENDBRANCH  16  17
ENDBRANCH  15  16
ENDBRANCH  13  15
TORSDOF 5
ENDMDL
MODEL      136
REMARK 921   NORMALIZED FREE ENERGY PREDICTED BY IDOCK:   -4.20 KCAL/MOL
REMARK 922        TOTAL FREE ENERGY PREDICTED BY IDOCK:   -5.91 KCAL/MOL
REMARK 923 INTER-LIGAND FREE ENERGY PREDICTED BY IDOCK:   -5.39 KCAL/MOL
REMARK 924 INTRA-LIGAND FREE ENERGY PREDICTED BY IDOCK:   -0.52 KCAL/MOL
REMARK 927      BINDING AFFINITY PREDICTED BY RF-SCORE:    0.00 PKD
ROOT
HETATM    1  N   UNL     1     -12.075  15.459  63.948  1.00  0.00    -0.981 NA 
HETATM    2  C   UNL     1     -11.679  14.429  64.737  1.00  0.00    -0.416 C  
HETATM    3  H1  UNL     1     -12.612  16.229  64.346  1.00  0.00     0.000 HD 
HETATM    4  H2  UNL     1     -11.835  15.463  62.957  1.00  0.00     0.000 HD 
HETATM    5  N   UNL     1     -10.991  13.443  64.227  1.00  0.00    -0.388 NA 
HETATM    6  C   UNL     1     -10.684  12.481  65.130  1.00  0.00    -0.292 A  
HETATM    7  C   UNL     1     -11.004  12.434  66.469  1.00  0.00    -0.272 A  
HETATM    8  N   UNL     1     -10.532  11.286  67.055  1.00  0.00    -0.223 NA 
HETATM    9  C   UNL     1     -11.754  13.540  67.023  1.00  0.00    -0.383 C  
HETATM   10  N   UNL     1     -12.044  14.506  66.068  1.00  0.00    -0.334 N  
HETATM   11  O   UNL     1     -12.116  13.655  68.189  1.00  0.00    -0.359 OA 
HETATM   12  C   UNL     1      -9.931  10.639  66.078  1.00  0.00    -0.239 A  
HETATM   13  N   UNL     1      -9.990  11.329  64.894  1.00  0.00    -0.257 NA 
HETATM   14  H   UNL     1     -12.563  15.330  66.370  1.00  0.00     0.000 HD 
ENDROOT
BRANCH  13  15
HETATM   15  C   UNL     1      -9.372  10.941  63.646  1.00  0.00    -0.262 C  
BRANCH  15  16
HETATM   16  O   UNL     1      -9.075   9.539  63.600  1.00  0.00    -0.225 OA 
BRANCH  16  17
HETATM   17  C   UNL     1      -7.768   9.184  63.093  1.00  0.00    -0.114 C  
BRANCH  17  18
HETATM   18  C   UNL     1      -6.657   9.327  64.143  1.00  0.00    -0.091 C  
HETATM   19  H   UNL     1      -6.431   9.056  66.093  1.00  0.00     0.000 HD 
HETATM   20  O   UNL     1      -7.119   8.967  65.443  1.00  0.00    -0.079 OA 
ENDBRANCH  17  18
BRANCH  17  21
HETATM   21  C   UNL     1      -7.858   7.721  62.622  1.00  0.00    -0.135 C  
HETATM   22  O   UNL     1      -8.306   6.885  63.689  1.00  0.00    -0.338 OA 
HETATM   23  H   UNL     1      -8.362   5.982  63.399  1.00  0.00     0.000 HD 
ENDBRANCH  17  21
ENDBRANCH  16  17
ENDBRANCH  15  16
ENDBRANCH  13  15
TORSDOF 5
ENDMDL
MODEL      137
REMARK 921   NORMALIZED FREE ENERGY PREDICTED BY IDOCK:   -4.20 KCAL/MOL
REMARK 922        TOTAL FREE ENERGY PREDICTED BY IDOCK:   -5.91 KCAL/MOL
REMARK 923 INTER-LIGAND FREE ENERGY PREDICTED BY IDOCK:   -5.49 KCAL/MOL
REMARK 924 INTRA-LIGAND FREE ENERGY PREDICTED BY IDOCK:   -0.41 KCAL/MOL
REMARK 927      BINDING AFFINITY PREDICTED BY RF-SCORE:    0.00 PKD
ROOT
HETATM    1  N   UNL     1     -14.397   8.866  72.927  1.00  0.00    -1.124 NA 
HETATM    2  C   UNL     1     -13.225   9.099  72.286  1.00  0.00    -0.461 C  
HETATM    3  H1  UNL     1     -15.247   9.339  72.623  1.00  0.00     0.000 HD 
HETATM    4  H2  UNL     1     -14.428   8.217  73.713  1.00  0.00     0.000 HD 
HETATM    5  N   UNL     1     -12.135   8.493  72.676  1.00  0.00    -0.331 NA 
HETATM    6  C   UNL     1     -11.042   8.839  71.954  1.00  0.00    -0.364 A  
HETATM    7  C   UNL     1     -10.960   9.721  70.900  1.00  0.00    -0.341 A  
HETATM    8  N   UNL     1      -9.673   9.824  70.434  1.00  0.00    -0.238 NA 
HETATM    9  C   UNL     1     -12.177  10.373  70.470  1.00  0.00    -0.323 C  
HETATM   10  N   UNL     1     -13.274   9.989  71.230  1.00  0.00    -0.391 N  
HETATM   11  O   UNL     1     -12.278  11.179  69.550  1.00  0.00    -0.323 OA 
HETATM   12  C   UNL     1      -8.977   9.011  71.203  1.00  0.00    -0.235 A  
HETATM   13  N   UNL     1      -9.767   8.386  72.134  1.00  0.00    -0.271 NA 
HETATM   14  H   UNL     1     -14.180  10.392  70.992  1.00  0.00     0.000 HD 
ENDROOT
BRANCH  13  15
HETATM   15  C   UNL     1      -9.338   7.381  73.082  1.00  0.00    -0.188 C  
BRANCH  15  16
HETATM   16  O   UNL     1      -8.707   6.265  72.442  1.00  0.00    -0.122 OA 
BRANCH  16  17
HETATM   17  C   UNL     1      -9.393   4.997  72.554  1.00  0.00    -0.132 C  
BRANCH  17  18
HETATM   18  C   UNL     1      -8.437   3.812  72.756  1.00  0.00    -0.094 C  
HETATM   19  H   UNL     1      -7.151   3.175  74.122  1.00  0.00     0.000 HD 
HETATM   20  O   UNL     1      -7.743   3.908  73.998  1.00  0.00    -0.076 OA 
ENDBRANCH  17  18
BRANCH  17  21
HETATM   21  C   UNL     1     -10.344   5.112  73.758  1.00  0.00    -0.238 C  
HETATM   22  O   UNL     1     -11.458   4.234  73.594  1.00  0.00    -0.242 OA 
HETATM   23  H   UNL     1     -12.046   4.305  74.338  1.00  0.00     0.000 HD 
ENDBRANCH  17  21
ENDBRANCH  16  17
ENDBRANCH  15  16
ENDBRANCH  13  15
TORSDOF 5
ENDMDL
MODEL      138
REMARK 921   NORMALIZED FREE ENERGY PREDICTED BY IDOCK:   -4.18 KCAL/MOL
REMARK 922        TOTAL FREE ENERGY PREDICTED BY IDOCK:   -5.89 KCAL/MOL
REMARK 923 INTER-LIGAND FREE ENERGY PREDICTED BY IDOCK:   -5.13 KCAL/MOL
REMARK 924 INTRA-LIGAND FREE ENERGY PREDICTED BY IDOCK:   -0.75 KCAL/MOL
REMARK 927      BINDING AFFINITY PREDICTED BY RF-SCORE:    0.00 PKD
ROOT
HETATM    1  N   UNL     1     -13.361  11.917  71.898  1.00  0.00    -0.405 NA 
HETATM    2  C   UNL     1     -12.561  11.218  71.054  1.00  0.00    -0.394 C  
HETATM    3  H1  UNL     1     -13.461  11.619  72.868  1.00  0.00     0.000 HD 
HETATM    4  H2  UNL     1     -13.861  12.739  71.562  1.00  0.00     0.000 HD 
HETATM    5  N   UNL     1     -12.432  11.600  69.811  1.00  0.00    -0.098 NA 
HETATM    6  C   UNL     1     -11.617  10.796  69.086  1.00  0.00    -0.305 A  
HETATM    7  C   UNL     1     -10.939   9.671  69.500  1.00  0.00    -0.208 A  
HETATM    8  N   UNL     1     -10.225   9.111  68.470  1.00  0.00    -0.193 NA 
HETATM    9  C   UNL     1     -11.080   9.269  70.882  1.00  0.00    -0.306 C  
HETATM   10  N   UNL     1     -11.918  10.120  71.592  1.00  0.00    -0.317 N  
HETATM   11  O   UNL     1     -10.545   8.300  71.410  1.00  0.00    -0.210 OA 
HETATM   12  C   UNL     1     -10.470   9.890  67.437  1.00  0.00    -0.267 A  
HETATM   13  N   UNL     1     -11.303  10.930  67.764  1.00  0.00    -0.428 NA 
HETATM   14  H   UNL     1     -12.068   9.920  72.581  1.00  0.00     0.000 HD 
ENDROOT
BRANCH  13  15
HETATM   15  C   UNL     1     -11.713  12.005  66.889  1.00  0.00    -0.266 C  
BRANCH  15  16
HETATM   16  O   UNL     1     -10.655  12.942  66.646  1.00  0.00    -0.258 OA 
BRANCH  16  17
HETATM   17  C   UNL     1     -10.505  13.996  67.624  1.00  0.00    -0.245 C  
BRANCH  17  18
HETATM   18  C   UNL     1      -9.479  15.060  67.206  1.00  0.00    -0.208 C  
HETATM   19  H   UNL     1      -7.984  16.067  68.032  1.00  0.00     0.000 HD 
HETATM   20  O   UNL     1      -8.619  15.408  68.290  1.00  0.00    -0.153 OA 
ENDBRANCH  17  18
BRANCH  17  21
HETATM   21  C   UNL     1     -11.890  14.644  67.795  1.00  0.00    -0.329 C  
HETATM   22  O   UNL     1     -12.287  14.606  69.167  1.00  0.00    -0.543 OA 
HETATM   23  H   UNL     1     -13.142  15.006  69.273  1.00  0.00     0.000 HD 
ENDBRANCH  17  21
ENDBRANCH  16  17
ENDBRANCH  15  16
ENDBRANCH  13  15
TORSDOF 5
ENDMDL
MODEL      139
REMARK 921   NORMALIZED FREE ENERGY PREDICTED BY IDOCK:   -4.17 KCAL/MOL
REMARK 922        TOTAL FREE ENERGY PREDICTED BY IDOCK:   -5.88 KCAL/MOL
REMARK 923 INTER-LIGAND FREE ENERGY PREDICTED BY IDOCK:   -5.39 KCAL/MOL
REMARK 924 INTRA-LIGAND FREE ENERGY PREDICTED BY IDOCK:   -0.49 KCAL/MOL
REMARK 927      BINDING AFFINITY PREDICTED BY RF-SCORE:    0.00 PKD
ROOT
HETATM    1  N   UNL     1      -8.940   7.149  67.311  1.00  0.00    -0.122 NA 
HETATM    2  C   UNL     1      -9.706   7.749  68.256  1.00  0.00    -0.159 C  
HETATM    3  H1  UNL     1      -8.729   6.154  67.382  1.00  0.00     0.000 HD 
HETATM    4  H2  UNL     1      -8.576   7.693  66.529  1.00  0.00     0.000 HD 
HETATM    5  N   UNL     1      -9.976   9.024  68.165  1.00  0.00    -0.167 NA 
HETATM    6  C   UNL     1     -10.734   9.486  69.189  1.00  0.00    -0.210 A  
HETATM    7  C   UNL     1     -11.229   8.786  70.266  1.00  0.00    -0.195 A  
HETATM    8  N   UNL     1     -11.942   9.604  71.107  1.00  0.00    -0.341 NA 
HETATM    9  C   UNL     1     -10.934   7.373  70.347  1.00  0.00    -0.251 C  
HETATM   10  N   UNL     1     -10.161   6.938  69.277  1.00  0.00    -0.166 N  
HETATM   11  O   UNL     1     -11.299   6.608  71.233  1.00  0.00    -0.270 OA 
HETATM   12  C   UNL     1     -11.877  10.793  70.545  1.00  0.00    -0.356 A  
HETATM   13  N   UNL     1     -11.162  10.768  69.375  1.00  0.00    -0.253 NA 
HETATM   14  H   UNL     1      -9.911   5.949  69.245  1.00  0.00     0.000 HD 
ENDROOT
BRANCH  13  15
HETATM   15  C   UNL     1     -10.961  11.880  68.472  1.00  0.00    -0.235 C  
BRANCH  15  16
HETATM   16  O   UNL     1     -11.826  11.818  67.332  1.00  0.00    -0.590 OA 
BRANCH  16  17
HETATM   17  C   UNL     1     -11.595  12.810  66.305  1.00  0.00    -0.379 C  
BRANCH  17  18
HETATM   18  C   UNL     1     -12.566  12.687  65.121  1.00  0.00    -0.386 C  
HETATM   19  H   UNL     1     -13.981  13.774  64.260  1.00  0.00     0.000 HD 
HETATM   20  O   UNL     1     -13.380  13.851  64.992  1.00  0.00    -0.582 OA 
ENDBRANCH  17  18
BRANCH  17  21
HETATM   21  C   UNL     1     -11.756  14.187  66.973  1.00  0.00    -0.405 C  
HETATM   22  O   UNL     1     -10.902  15.144  66.345  1.00  0.00    -0.319 OA 
HETATM   23  H   UNL     1     -11.002  15.994  66.758  1.00  0.00     0.000 HD 
ENDBRANCH  17  21
ENDBRANCH  16  17
ENDBRANCH  15  16
ENDBRANCH  13  15
TORSDOF 5
ENDMDL
MODEL      140
REMARK 921   NORMALIZED FREE ENERGY PREDICTED BY IDOCK:   -4.17 KCAL/MOL
REMARK 922        TOTAL FREE ENERGY PREDICTED BY IDOCK:   -5.87 KCAL/MOL
REMARK 923 INTER-LIGAND FREE ENERGY PREDICTED BY IDOCK:   -5.27 KCAL/MOL
REMARK 924 INTRA-LIGAND FREE ENERGY PREDICTED BY IDOCK:   -0.60 KCAL/MOL
REMARK 927      BINDING AFFINITY PREDICTED BY RF-SCORE:    0.00 PKD
ROOT
HETATM    1  N   UNL     1     -12.469  15.144  72.522  1.00  0.00    -0.336 NA 
HETATM    2  C   UNL     1     -11.999  15.106  71.251  1.00  0.00    -0.344 C  
HETATM    3  H1  UNL     1     -12.446  16.017  73.048  1.00  0.00     0.000 HD 
HETATM    4  H2  UNL     1     -12.847  14.300  72.952  1.00  0.00     0.000 HD 
HETATM    5  N   UNL     1     -12.029  13.986  70.577  1.00  0.00    -0.325 NA 
HETATM    6  C   UNL     1     -11.508  14.097  69.331  1.00  0.00    -0.288 A  
HETATM    7  C   UNL     1     -10.977  15.214  68.724  1.00  0.00    -0.255 A  
HETATM    8  N   UNL     1     -10.533  14.930  67.457  1.00  0.00    -0.251 NA 
HETATM    9  C   UNL     1     -10.964  16.449  69.477  1.00  0.00    -0.317 C  
HETATM   10  N   UNL     1     -11.509  16.295  70.746  1.00  0.00    -0.537 N  
HETATM   11  O   UNL     1     -10.532  17.528  69.086  1.00  0.00    -0.347 OA 
HETATM   12  C   UNL     1     -10.790  13.648  67.297  1.00  0.00    -0.284 A  
HETATM   13  N   UNL     1     -11.390  13.103  68.403  1.00  0.00    -0.268 NA 
HETATM   14  H   UNL     1     -11.551  17.118  71.346  1.00  0.00     0.000 HD 
ENDROOT
BRANCH  13  15
HETATM   15  C   UNL     1     -11.870  11.745  68.534  1.00  0.00    -0.303 C  
BRANCH  15  16
HETATM   16  O   UNL     1     -11.669  10.980  67.339  1.00  0.00    -0.539 OA 
BRANCH  16  17
HETATM   17  C   UNL     1     -10.727   9.888  67.435  1.00  0.00    -0.260 C  
BRANCH  17  18
HETATM   18  C   UNL     1      -9.297  10.292  67.045  1.00  0.00    -0.154 C  
HETATM   19  H   UNL     1      -7.663   9.421  66.340  1.00  0.00     0.000 HD 
HETATM   20  O   UNL     1      -8.547   9.171  66.581  1.00  0.00    -0.124 OA 
ENDBRANCH  17  18
BRANCH  17  21
HETATM   21  C   UNL     1     -10.753   9.406  68.896  1.00  0.00    -0.178 C  
HETATM   22  O   UNL     1      -9.423   9.277  69.399  1.00  0.00    -0.158 OA 
HETATM   23  H   UNL     1      -9.440   8.979  70.301  1.00  0.00     0.000 HD 
ENDBRANCH  17  21
ENDBRANCH  16  17
ENDBRANCH  15  16
ENDBRANCH  13  15
TORSDOF 5
ENDMDL
MODEL      141
REMARK 921   NORMALIZED FREE ENERGY PREDICTED BY IDOCK:   -4.15 KCAL/MOL
REMARK 922        TOTAL FREE ENERGY PREDICTED BY IDOCK:   -5.84 KCAL/MOL
REMARK 923 INTER-LIGAND FREE ENERGY PREDICTED BY IDOCK:   -5.53 KCAL/MOL
REMARK 924 INTRA-LIGAND FREE ENERGY PREDICTED BY IDOCK:   -0.32 KCAL/MOL
REMARK 927      BINDING AFFINITY PREDICTED BY RF-SCORE:    0.00 PKD
ROOT
HETATM    1  N   UNL     1     -10.116   6.931  66.241  1.00  0.00    -0.435 NA 
HETATM    2  C   UNL     1     -10.071   6.543  67.540  1.00  0.00    -0.155 C  
HETATM    3  H1  UNL     1      -9.965   6.248  65.499  1.00  0.00     0.000 HD 
HETATM    4  H2  UNL     1     -10.303   7.906  66.006  1.00  0.00     0.000 HD 
HETATM    5  N   UNL     1     -10.265   7.418  68.490  1.00  0.00    -0.179 NA 
HETATM    6  C   UNL     1     -10.170   6.888  69.734  1.00  0.00    -0.196 A  
HETATM    7  C   UNL     1      -9.905   5.584  70.088  1.00  0.00    -0.198 A  
HETATM    8  N   UNL     1      -9.873   5.433  71.451  1.00  0.00    -0.161 NA 
HETATM    9  C   UNL     1      -9.707   4.624  69.024  1.00  0.00    -0.172 C  
HETATM   10  N   UNL     1      -9.816   5.204  67.767  1.00  0.00    -0.148 N  
HETATM   11  O   UNL     1      -9.466   3.429  69.166  1.00  0.00    -0.170 OA 
HETATM   12  C   UNL     1     -10.113   6.640  71.922  1.00  0.00    -0.181 A  
HETATM   13  N   UNL     1     -10.309   7.553  70.918  1.00  0.00    -0.201 NA 
HETATM   14  H   UNL     1      -9.701   4.599  66.954  1.00  0.00     0.000 HD 
ENDROOT
BRANCH  13  15
HETATM   15  C   UNL     1     -10.665   8.944  71.085  1.00  0.00    -0.263 C  
BRANCH  15  16
HETATM   16  O   UNL     1     -11.596   9.142  72.156  1.00  0.00    -0.342 OA 
BRANCH  16  17
HETATM   17  C   UNL     1     -12.707  10.024  71.878  1.00  0.00    -0.398 C  
BRANCH  17  18
HETATM   18  C   UNL     1     -12.630  10.666  70.484  1.00  0.00    -0.348 C  
HETATM   19  H   UNL     1     -12.106  12.405  69.692  1.00  0.00     0.000 HD 
HETATM   20  O   UNL     1     -12.153  12.008  70.555  1.00  0.00    -0.366 OA 
ENDBRANCH  17  18
BRANCH  17  21
HETATM   21  C   UNL     1     -13.986   9.177  71.994  1.00  0.00    -0.371 C  
HETATM   22  O   UNL     1     -14.273   8.900  73.365  1.00  0.00    -1.241 OA 
HETATM   23  H   UNL     1     -15.063   8.376  73.437  1.00  0.00     0.000 HD 
ENDBRANCH  17  21
ENDBRANCH  16  17
ENDBRANCH  15  16
ENDBRANCH  13  15
TORSDOF 5
ENDMDL
MODEL      142
REMARK 921   NORMALIZED FREE ENERGY PREDICTED BY IDOCK:   -4.12 KCAL/MOL
REMARK 922        TOTAL FREE ENERGY PREDICTED BY IDOCK:   -5.81 KCAL/MOL
REMARK 923 INTER-LIGAND FREE ENERGY PREDICTED BY IDOCK:   -5.11 KCAL/MOL
REMARK 924 INTRA-LIGAND FREE ENERGY PREDICTED BY IDOCK:   -0.70 KCAL/MOL
REMARK 927      BINDING AFFINITY PREDICTED BY RF-SCORE:    0.00 PKD
ROOT
HETATM    1  N   UNL     1     -10.999  15.667  66.944  1.00  0.00    -0.288 NA 
HETATM    2  C   UNL     1     -11.385  14.871  67.972  1.00  0.00    -0.324 C  
HETATM    3  H1  UNL     1     -11.055  16.681  67.035  1.00  0.00     0.000 HD 
HETATM    4  H2  UNL     1     -10.653  15.251  66.079  1.00  0.00     0.000 HD 
HETATM    5  N   UNL     1     -11.314  13.572  67.855  1.00  0.00    -0.273 NA 
HETATM    6  C   UNL     1     -11.751  12.910  68.954  1.00  0.00    -0.327 A  
HETATM    7  C   UNL     1     -12.239  13.437  70.129  1.00  0.00    -0.315 A  
HETATM    8  N   UNL     1     -12.600  12.447  71.008  1.00  0.00    -0.325 NA 
HETATM    9  C   UNL     1     -12.299  14.877  70.249  1.00  0.00    -0.341 C  
HETATM   10  N   UNL     1     -11.838  15.518  69.106  1.00  0.00    -0.430 N  
HETATM   11  O   UNL     1     -12.702  15.504  71.223  1.00  0.00    -0.398 OA 
HETATM   12  C   UNL     1     -12.336  11.326  70.369  1.00  0.00    -0.329 A  
HETATM   13  N   UNL     1     -11.811  11.558  69.123  1.00  0.00    -0.324 NA 
HETATM   14  H   UNL     1     -11.834  16.538  69.104  1.00  0.00     0.000 HD 
ENDROOT
BRANCH  13  15
HETATM   15  C   UNL     1     -11.344  10.554  68.192  1.00  0.00    -0.254 C  
BRANCH  15  16
HETATM   16  O   UNL     1      -9.937  10.311  68.315  1.00  0.00    -0.143 OA 
BRANCH  16  17
HETATM   17  C   UNL     1      -9.149  10.521  67.121  1.00  0.00    -0.143 C  
BRANCH  17  18
HETATM   18  C   UNL     1      -8.164   9.376  66.843  1.00  0.00    -0.116 C  
HETATM   19  H   UNL     1      -8.145   7.396  66.929  1.00  0.00     0.000 HD 
HETATM   20  O   UNL     1      -8.756   8.105  67.101  1.00  0.00    -0.124 OA 
ENDBRANCH  17  18
BRANCH  17  21
HETATM   21  C   UNL     1     -10.142  10.652  65.952  1.00  0.00    -0.261 C  
HETATM   22  O   UNL     1      -9.788   9.753  64.900  1.00  0.00    -0.399 OA 
HETATM   23  H   UNL     1     -10.401   9.834  64.178  1.00  0.00     0.000 HD 
ENDBRANCH  17  21
ENDBRANCH  16  17
ENDBRANCH  15  16
ENDBRANCH  13  15
TORSDOF 5
ENDMDL
MODEL      143
REMARK 921   NORMALIZED FREE ENERGY PREDICTED BY IDOCK:   -4.12 KCAL/MOL
REMARK 922        TOTAL FREE ENERGY PREDICTED BY IDOCK:   -5.81 KCAL/MOL
REMARK 923 INTER-LIGAND FREE ENERGY PREDICTED BY IDOCK:   -5.37 KCAL/MOL
REMARK 924 INTRA-LIGAND FREE ENERGY PREDICTED BY IDOCK:   -0.44 KCAL/MOL
REMARK 927      BINDING AFFINITY PREDICTED BY RF-SCORE:    0.00 PKD
ROOT
HETATM    1  N   UNL     1      -7.378  12.016  69.448  1.00  0.00    -0.336 NA 
HETATM    2  C   UNL     1      -7.926  11.689  68.251  1.00  0.00    -0.143 C  
HETATM    3  H1  UNL     1      -6.418  11.744  69.659  1.00  0.00     0.000 HD 
HETATM    4  H2  UNL     1      -7.925  12.533  70.135  1.00  0.00     0.000 HD 
HETATM    5  N   UNL     1      -9.156  12.037  67.980  1.00  0.00    -0.182 NA 
HETATM    6  C   UNL     1      -9.572  11.626  66.757  1.00  0.00    -0.192 A  
HETATM    7  C   UNL     1      -8.868  10.914  65.811  1.00  0.00    -0.191 A  
HETATM    8  N   UNL     1      -9.634  10.669  64.699  1.00  0.00    -0.252 NA 
HETATM    9  C   UNL     1      -7.503  10.549  66.120  1.00  0.00    -0.136 C  
HETATM   10  N   UNL     1      -7.113  10.992  67.378  1.00  0.00    -0.090 N  
HETATM   11  O   UNL     1      -6.741   9.922  65.392  1.00  0.00    -0.090 OA 
HETATM   12  C   UNL     1     -10.797  11.225  64.970  1.00  0.00    -0.216 A  
HETATM   13  N   UNL     1     -10.803  11.825  66.203  1.00  0.00    -0.281 NA 
HETATM   14  H   UNL     1      -6.160  10.788  67.677  1.00  0.00     0.000 HD 
ENDROOT
BRANCH  13  15
HETATM   15  C   UNL     1     -11.890  12.587  66.778  1.00  0.00    -0.346 C  
BRANCH  15  16
HETATM   16  O   UNL     1     -11.526  13.951  67.025  1.00  0.00    -0.315 OA 
BRANCH  16  17
HETATM   17  C   UNL     1     -11.798  14.885  65.956  1.00  0.00    -0.114 C  
BRANCH  17  18
HETATM   18  C   UNL     1     -10.531  15.336  65.214  1.00  0.00    -0.411 C  
HETATM   19  H   UNL     1      -9.857  16.964  64.308  1.00  0.00     0.000 HD 
HETATM   20  O   UNL     1     -10.642  16.686  64.767  1.00  0.00    -0.685 OA 
ENDBRANCH  17  18
BRANCH  17  21
HETATM   21  C   UNL     1     -12.751  14.175  64.978  1.00  0.00    -0.312 C  
HETATM   22  O   UNL     1     -12.453  14.554  63.634  1.00  0.00    -1.072 OA 
HETATM   23  H   UNL     1     -13.041  14.115  63.030  1.00  0.00     0.000 HD 
ENDBRANCH  17  21
ENDBRANCH  16  17
ENDBRANCH  15  16
ENDBRANCH  13  15
TORSDOF 5
ENDMDL
MODEL      144
REMARK 921   NORMALIZED FREE ENERGY PREDICTED BY IDOCK:   -4.11 KCAL/MOL
REMARK 922        TOTAL FREE ENERGY PREDICTED BY IDOCK:   -5.80 KCAL/MOL
REMARK 923 INTER-LIGAND FREE ENERGY PREDICTED BY IDOCK:   -5.08 KCAL/MOL
REMARK 924 INTRA-LIGAND FREE ENERGY PREDICTED BY IDOCK:   -0.71 KCAL/MOL
REMARK 927      BINDING AFFINITY PREDICTED BY RF-SCORE:    0.00 PKD
ROOT
HETATM    1  N   UNL     1     -10.315  11.647  69.013  1.00  0.00    -0.385 NA 
HETATM    2  C   UNL     1     -11.179  11.080  69.892  1.00  0.00    -0.252 C  
HETATM    3  H1  UNL     1     -10.246  12.662  68.950  1.00  0.00     0.000 HD 
HETATM    4  H2  UNL     1      -9.735  11.058  68.417  1.00  0.00     0.000 HD 
HETATM    5  N   UNL     1     -11.268   9.779  69.973  1.00  0.00    -0.251 NA 
HETATM    6  C   UNL     1     -12.185   9.360  70.879  1.00  0.00    -0.227 A  
HETATM    7  C   UNL     1     -12.996  10.125  71.688  1.00  0.00    -0.456 A  
HETATM    8  N   UNL     1     -13.810   9.339  72.464  1.00  0.00    -0.446 NA 
HETATM    9  C   UNL     1     -12.876  11.563  71.597  1.00  0.00    -0.370 C  
HETATM   10  N   UNL     1     -11.923  11.952  70.663  1.00  0.00    -0.478 N  
HETATM   11  O   UNL     1     -13.517  12.384  72.246  1.00  0.00    -0.541 OA 
HETATM   12  C   UNL     1     -13.497   8.105  72.126  1.00  0.00    -0.215 A  
HETATM   13  N   UNL     1     -12.511   8.069  71.174  1.00  0.00    -0.245 NA 
HETATM   14  H   UNL     1     -11.763  12.951  70.538  1.00  0.00     0.000 HD 
ENDROOT
BRANCH  13  15
HETATM   15  C   UNL     1     -11.885   6.881  70.637  1.00  0.00    -0.368 C  
BRANCH  15  16
HETATM   16  O   UNL     1     -10.609   6.621  71.235  1.00  0.00    -0.217 OA 
BRANCH  16  17
HETATM   17  C   UNL     1      -9.502   6.449  70.321  1.00  0.00    -0.161 C  
BRANCH  17  18
HETATM   18  C   UNL     1      -9.928   6.496  68.846  1.00  0.00    -0.151 C  
HETATM   19  H   UNL     1      -9.093   6.847  67.083  1.00  0.00     0.000 HD 
HETATM   20  O   UNL     1      -8.829   6.818  67.996  1.00  0.00    -0.121 OA 
ENDBRANCH  17  18
BRANCH  17  21
HETATM   21  C   UNL     1      -8.504   7.583  70.613  1.00  0.00    -0.132 C  
HETATM   22  O   UNL     1      -7.165   7.129  70.411  1.00  0.00    -0.068 OA 
HETATM   23  H   UNL     1      -6.549   7.830  70.591  1.00  0.00     0.000 HD 
ENDBRANCH  17  21
ENDBRANCH  16  17
ENDBRANCH  15  16
ENDBRANCH  13  15
TORSDOF 5
ENDMDL
MODEL      145
REMARK 921   NORMALIZED FREE ENERGY PREDICTED BY IDOCK:   -4.08 KCAL/MOL
REMARK 922        TOTAL FREE ENERGY PREDICTED BY IDOCK:   -5.76 KCAL/MOL
REMARK 923 INTER-LIGAND FREE ENERGY PREDICTED BY IDOCK:   -5.82 KCAL/MOL
REMARK 924 INTRA-LIGAND FREE ENERGY PREDICTED BY IDOCK:    0.07 KCAL/MOL
REMARK 927      BINDING AFFINITY PREDICTED BY RF-SCORE:    0.00 PKD
ROOT
HETATM    1  N   UNL     1     -13.039  12.035  63.656  1.00  0.00    -0.711 NA 
HETATM    2  C   UNL     1     -12.280  12.665  64.587  1.00  0.00    -0.452 C  
HETATM    3  H1  UNL     1     -13.253  12.500  62.773  1.00  0.00     0.000 HD 
HETATM    4  H2  UNL     1     -13.396  11.097  63.838  1.00  0.00     0.000 HD 
HETATM    5  N   UNL     1     -12.006  12.070  65.717  1.00  0.00    -0.498 NA 
HETATM    6  C   UNL     1     -11.256  12.828  66.553  1.00  0.00    -0.307 A  
HETATM    7  C   UNL     1     -10.772  14.101  66.348  1.00  0.00    -0.288 A  
HETATM    8  N   UNL     1     -10.064  14.547  67.436  1.00  0.00    -0.235 NA 
HETATM    9  C   UNL     1     -11.071  14.741  65.086  1.00  0.00    -0.384 C  
HETATM   10  N   UNL     1     -11.836  13.931  64.256  1.00  0.00    -0.499 N  
HETATM   11  O   UNL     1     -10.715  15.864  64.744  1.00  0.00    -0.559 OA 
HETATM   12  C   UNL     1     -10.122  13.553  68.298  1.00  0.00    -0.247 A  
HETATM   13  N   UNL     1     -10.827  12.486  67.803  1.00  0.00    -0.218 NA 
HETATM   14  H   UNL     1     -12.087  14.297  63.338  1.00  0.00     0.000 HD 
ENDROOT
BRANCH  13  15
HETATM   15  C   UNL     1     -11.018  11.210  68.457  1.00  0.00    -0.220 C  
BRANCH  15  16
HETATM   16  O   UNL     1     -11.477  10.198  67.551  1.00  0.00    -0.249 OA 
BRANCH  16  17
HETATM   17  C   UNL     1     -10.767   8.939  67.593  1.00  0.00    -0.151 C  
BRANCH  17  18
HETATM   18  C   UNL     1      -9.592   8.878  66.605  1.00  0.00    -0.219 C  
HETATM   19  H   UNL     1      -9.216   9.404  64.732  1.00  0.00     0.000 HD 
HETATM   20  O   UNL     1      -9.943   9.442  65.343  1.00  0.00    -0.235 OA 
ENDBRANCH  17  18
BRANCH  17  21
HETATM   21  C   UNL     1     -10.249   8.770  69.032  1.00  0.00    -0.207 C  
HETATM   22  O   UNL     1      -9.003   8.072  69.031  1.00  0.00    -0.144 OA 
HETATM   23  H   UNL     1      -8.683   7.968  69.920  1.00  0.00     0.000 HD 
ENDBRANCH  17  21
ENDBRANCH  16  17
ENDBRANCH  15  16
ENDBRANCH  13  15
TORSDOF 5
ENDMDL
MODEL      146
REMARK 921   NORMALIZED FREE ENERGY PREDICTED BY IDOCK:   -4.07 KCAL/MOL
REMARK 922        TOTAL FREE ENERGY PREDICTED BY IDOCK:   -5.75 KCAL/MOL
REMARK 923 INTER-LIGAND FREE ENERGY PREDICTED BY IDOCK:   -5.41 KCAL/MOL
REMARK 924 INTRA-LIGAND FREE ENERGY PREDICTED BY IDOCK:   -0.34 KCAL/MOL
REMARK 927      BINDING AFFINITY PREDICTED BY RF-SCORE:    0.00 PKD
ROOT
HETATM    1  N   UNL     1     -14.031   8.907  72.172  1.00  0.00    -0.450 NA 
HETATM    2  C   UNL     1     -12.700   8.929  71.915  1.00  0.00    -0.376 C  
HETATM    3  H1  UNL     1     -14.389   8.370  72.962  1.00  0.00     0.000 HD 
HETATM    4  H2  UNL     1     -14.675   9.426  71.575  1.00  0.00     0.000 HD 
HETATM    5  N   UNL     1     -12.242   9.617  70.902  1.00  0.00    -0.299 NA 
HETATM    6  C   UNL     1     -10.897   9.529  70.760  1.00  0.00    -0.318 A  
HETATM    7  C   UNL     1     -10.001   8.826  71.534  1.00  0.00    -0.300 A  
HETATM    8  N   UNL     1      -8.719   8.967  71.066  1.00  0.00    -0.214 NA 
HETATM    9  C   UNL     1     -10.521   8.082  72.660  1.00  0.00    -0.339 C  
HETATM   10  N   UNL     1     -11.900   8.201  72.775  1.00  0.00    -0.557 N  
HETATM   11  O   UNL     1      -9.863   7.409  73.447  1.00  0.00    -0.237 OA 
HETATM   12  C   UNL     1      -8.836   9.749  70.012  1.00  0.00    -0.215 A  
HETATM   13  N   UNL     1     -10.138  10.121  69.793  1.00  0.00    -0.238 NA 
HETATM   14  H   UNL     1     -12.355   7.716  73.548  1.00  0.00     0.000 HD 
ENDROOT
BRANCH  13  15
HETATM   15  C   UNL     1     -10.606  11.030  68.769  1.00  0.00    -0.202 C  
BRANCH  15  16
HETATM   16  O   UNL     1      -9.710  11.099  67.653  1.00  0.00    -0.167 OA 
BRANCH  16  17
HETATM   17  C   UNL     1     -10.292  10.844  66.355  1.00  0.00    -0.251 C  
BRANCH  17  18
HETATM   18  C   UNL     1     -10.209  12.053  65.410  1.00  0.00    -0.263 C  
HETATM   19  H   UNL     1     -10.273  14.029  65.541  1.00  0.00     0.000 HD 
HETATM   20  O   UNL     1     -10.325  13.281  66.126  1.00  0.00    -0.278 OA 
ENDBRANCH  17  18
BRANCH  17  21
HETATM   21  C   UNL     1      -9.526   9.654  65.751  1.00  0.00    -0.246 C  
HETATM   22  O   UNL     1     -10.152   8.425  66.118  1.00  0.00    -0.462 OA 
HETATM   23  H   UNL     1      -9.679   7.690  65.745  1.00  0.00     0.000 HD 
ENDBRANCH  17  21
ENDBRANCH  16  17
ENDBRANCH  15  16
ENDBRANCH  13  15
TORSDOF 5
ENDMDL
MODEL      147
REMARK 921   NORMALIZED FREE ENERGY PREDICTED BY IDOCK:   -4.05 KCAL/MOL
REMARK 922        TOTAL FREE ENERGY PREDICTED BY IDOCK:   -5.71 KCAL/MOL
REMARK 923 INTER-LIGAND FREE ENERGY PREDICTED BY IDOCK:   -5.02 KCAL/MOL
REMARK 924 INTRA-LIGAND FREE ENERGY PREDICTED BY IDOCK:   -0.69 KCAL/MOL
REMARK 927      BINDING AFFINITY PREDICTED BY RF-SCORE:    0.00 PKD
ROOT
HETATM    1  N   UNL     1      -8.137  12.730  68.783  1.00  0.00    -0.344 NA 
HETATM    2  C   UNL     1      -9.151  13.151  67.986  1.00  0.00    -0.207 C  
HETATM    3  H1  UNL     1      -8.048  13.096  69.731  1.00  0.00     0.000 HD 
HETATM    4  H2  UNL     1      -7.464  12.047  68.434  1.00  0.00     0.000 HD 
HETATM    5  N   UNL     1      -9.265  12.683  66.772  1.00  0.00    -0.223 NA 
HETATM    6  C   UNL     1     -10.311  13.209  66.091  1.00  0.00    -0.284 A  
HETATM    7  C   UNL     1     -11.228  14.142  66.523  1.00  0.00    -0.330 A  
HETATM    8  N   UNL     1     -12.137  14.442  65.539  1.00  0.00    -0.372 NA 
HETATM    9  C   UNL     1     -11.098  14.640  67.875  1.00  0.00    -0.291 C  
HETATM   10  N   UNL     1     -10.018  14.074  68.540  1.00  0.00    -0.231 N  
HETATM   11  O   UNL     1     -11.827  15.466  68.414  1.00  0.00    -0.347 OA 
HETATM   12  C   UNL     1     -11.772  13.698  64.515  1.00  0.00    -0.400 A  
HETATM   13  N   UNL     1     -10.675  12.928  64.806  1.00  0.00    -0.315 NA 
HETATM   14  H   UNL     1      -9.853  14.359  69.505  1.00  0.00     0.000 HD 
ENDROOT
BRANCH  13  15
HETATM   15  C   UNL     1     -10.062  11.949  63.936  1.00  0.00    -0.370 C  
BRANCH  15  16
HETATM   16  O   UNL     1     -10.401  10.606  64.305  1.00  0.00    -0.360 OA 
BRANCH  16  17
HETATM   17  C   UNL     1      -9.306   9.662  64.342  1.00  0.00    -0.148 C  
BRANCH  17  18
HETATM   18  C   UNL     1      -7.939  10.319  64.103  1.00  0.00    -0.126 C  
HETATM   19  H   UNL     1      -6.328  10.789  65.157  1.00  0.00     0.000 HD 
HETATM   20  O   UNL     1      -7.174  10.382  65.305  1.00  0.00    -0.143 OA 
ENDBRANCH  17  18
BRANCH  17  21
HETATM   21  C   UNL     1      -9.335   9.004  65.733  1.00  0.00    -0.236 C  
HETATM   22  O   UNL     1      -8.792   7.685  65.667  1.00  0.00    -0.293 OA 
HETATM   23  H   UNL     1      -8.809   7.279  66.526  1.00  0.00     0.000 HD 
ENDBRANCH  17  21
ENDBRANCH  16  17
ENDBRANCH  15  16
ENDBRANCH  13  15
TORSDOF 5
ENDMDL
MODEL      148
REMARK 921   NORMALIZED FREE ENERGY PREDICTED BY IDOCK:   -3.99 KCAL/MOL
REMARK 922        TOTAL FREE ENERGY PREDICTED BY IDOCK:   -5.63 KCAL/MOL
REMARK 923 INTER-LIGAND FREE ENERGY PREDICTED BY IDOCK:   -5.58 KCAL/MOL
REMARK 924 INTRA-LIGAND FREE ENERGY PREDICTED BY IDOCK:   -0.05 KCAL/MOL
REMARK 927      BINDING AFFINITY PREDICTED BY RF-SCORE:    0.00 PKD
ROOT
HETATM    1  N   UNL     1     -11.921  10.006  70.033  1.00  0.00    -0.456 NA 
HETATM    2  C   UNL     1     -11.210  10.873  69.269  1.00  0.00    -0.265 C  
HETATM    3  H1  UNL     1     -11.690   9.013  70.026  1.00  0.00     0.000 HD 
HETATM    4  H2  UNL     1     -12.686  10.347  70.615  1.00  0.00     0.000 HD 
HETATM    5  N   UNL     1     -11.506  12.145  69.278  1.00  0.00    -0.287 NA 
HETATM    6  C   UNL     1     -10.725  12.883  68.453  1.00  0.00    -0.255 A  
HETATM    7  C   UNL     1      -9.696  12.455  67.643  1.00  0.00    -0.195 A  
HETATM    8  N   UNL     1      -9.149  13.497  66.938  1.00  0.00    -0.245 NA 
HETATM    9  C   UNL     1      -9.370  11.045  67.655  1.00  0.00    -0.157 C  
HETATM   10  N   UNL     1     -10.190  10.325  68.516  1.00  0.00    -0.165 N  
HETATM   11  O   UNL     1      -8.487  10.503  66.999  1.00  0.00    -0.126 OA 
HETATM   12  C   UNL     1      -9.843  14.551  67.315  1.00  0.00    -0.236 A  
HETATM   13  N   UNL     1     -10.804  14.228  68.239  1.00  0.00    -0.241 NA 
HETATM   14  H   UNL     1     -10.026   9.322  68.596  1.00  0.00     0.000 HD 
ENDROOT
BRANCH  13  15
HETATM   15  C   UNL     1     -11.687  15.154  68.913  1.00  0.00    -0.333 C  
BRANCH  15  16
HETATM   16  O   UNL     1     -12.677  14.483  69.703  1.00  0.00    -0.165 OA 
BRANCH  16  17
HETATM   17  C   UNL     1     -12.956  15.063  70.998  1.00  0.00    -0.404 C  
BRANCH  17  18
HETATM   18  C   UNL     1     -13.647  14.084  71.959  1.00  0.00    -0.463 C  
HETATM   19  H   UNL     1     -13.832  13.828  73.915  1.00  0.00     0.000 HD 
HETATM   20  O   UNL     1     -13.405  14.434  73.320  1.00  0.00    -0.616 OA 
ENDBRANCH  17  18
BRANCH  17  21
HETATM   21  C   UNL     1     -11.605  15.508  71.585  1.00  0.00    -0.430 C  
HETATM   22  O   UNL     1     -11.776  16.675  72.391  1.00  0.00    -0.543 OA 
HETATM   23  H   UNL     1     -10.942  16.949  72.753  1.00  0.00     0.000 HD 
ENDBRANCH  17  21
ENDBRANCH  16  17
ENDBRANCH  15  16
ENDBRANCH  13  15
TORSDOF 5
ENDMDL
MODEL      149
REMARK 921   NORMALIZED FREE ENERGY PREDICTED BY IDOCK:   -3.98 KCAL/MOL
REMARK 922        TOTAL FREE ENERGY PREDICTED BY IDOCK:   -5.63 KCAL/MOL
REMARK 923 INTER-LIGAND FREE ENERGY PREDICTED BY IDOCK:   -5.10 KCAL/MOL
REMARK 924 INTRA-LIGAND FREE ENERGY PREDICTED BY IDOCK:   -0.53 KCAL/MOL
REMARK 927      BINDING AFFINITY PREDICTED BY RF-SCORE:    0.00 PKD
ROOT
HETATM    1  N   UNL     1     -12.712  13.464  63.985  1.00  0.00    -0.659 NA 
HETATM    2  C   UNL     1     -12.162  13.153  65.185  1.00  0.00    -0.450 C  
HETATM    3  H1  UNL     1     -13.195  14.354  63.861  1.00  0.00     0.000 HD 
HETATM    4  H2  UNL     1     -12.643  12.809  63.206  1.00  0.00     0.000 HD 
HETATM    5  N   UNL     1     -11.543  12.014  65.343  1.00  0.00    -0.323 NA 
HETATM    6  C   UNL     1     -11.063  11.835  66.598  1.00  0.00    -0.310 A  
HETATM    7  C   UNL     1     -11.151  12.688  67.675  1.00  0.00    -0.263 A  
HETATM    8  N   UNL     1     -10.556  12.150  68.788  1.00  0.00    -0.224 NA 
HETATM    9  C   UNL     1     -11.826  13.953  67.480  1.00  0.00    -0.396 C  
HETATM   10  N   UNL     1     -12.299  14.100  66.182  1.00  0.00    -0.459 N  
HETATM   11  O   UNL     1     -11.989  14.823  68.329  1.00  0.00    -0.298 OA 
HETATM   12  C   UNL     1     -10.112  10.976  68.390  1.00  0.00    -0.184 A  
HETATM   13  N   UNL     1     -10.389  10.745  67.067  1.00  0.00    -0.217 NA 
HETATM   14  H   UNL     1     -12.781  14.968  65.949  1.00  0.00     0.000 HD 
ENDROOT
BRANCH  13  15
HETATM   15  C   UNL     1      -9.980   9.591  66.297  1.00  0.00    -0.274 C  
BRANCH  15  16
HETATM   16  O   UNL     1     -10.651   8.395  66.711  1.00  0.00    -0.295 OA 
BRANCH  16  17
HETATM   17  C   UNL     1      -9.839   7.419  67.403  1.00  0.00    -0.169 C  
BRANCH  17  18
HETATM   18  C   UNL     1      -8.332   7.672  67.248  1.00  0.00    -0.115 C  
HETATM   19  H   UNL     1      -6.633   6.761  67.706  1.00  0.00     0.000 HD 
HETATM   20  O   UNL     1      -7.565   6.604  67.802  1.00  0.00    -0.101 OA 
ENDBRANCH  17  18
BRANCH  17  21
HETATM   21  C   UNL     1     -10.231   7.488  68.889  1.00  0.00    -0.208 C  
HETATM   22  O   UNL     1      -9.872   6.275  69.553  1.00  0.00    -0.150 OA 
HETATM   23  H   UNL     1     -10.114   6.318  70.470  1.00  0.00     0.000 HD 
ENDBRANCH  17  21
ENDBRANCH  16  17
ENDBRANCH  15  16
ENDBRANCH  13  15
TORSDOF 5
ENDMDL
MODEL      150
REMARK 921   NORMALIZED FREE ENERGY PREDICTED BY IDOCK:   -3.97 KCAL/MOL
REMARK 922        TOTAL FREE ENERGY PREDICTED BY IDOCK:   -5.61 KCAL/MOL
REMARK 923 INTER-LIGAND FREE ENERGY PREDICTED BY IDOCK:   -4.63 KCAL/MOL
REMARK 924 INTRA-LIGAND FREE ENERGY PREDICTED BY IDOCK:   -0.98 KCAL/MOL
REMARK 927      BINDING AFFINITY PREDICTED BY RF-SCORE:    0.00 PKD
ROOT
HETATM    1  N   UNL     1     -10.872   8.347  66.903  1.00  0.00    -0.302 NA 
HETATM    2  C   UNL     1     -10.552   7.072  67.235  1.00  0.00    -0.325 C  
HETATM    3  H1  UNL     1     -11.049   8.591  65.928  1.00  0.00     0.000 HD 
HETATM    4  H2  UNL     1     -10.936   9.062  67.627  1.00  0.00     0.000 HD 
HETATM    5  N   UNL     1     -10.325   6.760  68.483  1.00  0.00    -0.179 NA 
HETATM    6  C   UNL     1      -9.998   5.456  68.659  1.00  0.00    -0.170 A  
HETATM    7  C   UNL     1      -9.887   4.469  67.706  1.00  0.00    -0.112 A  
HETATM    8  N   UNL     1      -9.519   3.272  68.267  1.00  0.00    -0.180 NA 
HETATM    9  C   UNL     1     -10.155   4.826  66.330  1.00  0.00    -0.264 C  
HETATM   10  N   UNL     1     -10.490   6.167  66.193  1.00  0.00    -0.433 N  
HETATM   11  O   UNL     1     -10.103   4.071  65.364  1.00  0.00    -0.195 OA 
HETATM   12  C   UNL     1      -9.405   3.532  69.553  1.00  0.00    -0.173 A  
HETATM   13  N   UNL     1      -9.695   4.842  69.839  1.00  0.00    -0.185 NA 
HETATM   14  H   UNL     1     -10.706   6.508  65.256  1.00  0.00     0.000 HD 
ENDROOT
BRANCH  13  15
HETATM   15  C   UNL     1      -9.738   5.440  71.155  1.00  0.00    -0.174 C  
BRANCH  15  16
HETATM   16  O   UNL     1     -11.069   5.495  71.684  1.00  0.00    -0.220 OA 
BRANCH  16  17
HETATM   17  C   UNL     1     -11.444   6.731  72.333  1.00  0.00    -0.264 C  
BRANCH  17  18
HETATM   18  C   UNL     1     -10.388   7.835  72.179  1.00  0.00    -0.224 C  
HETATM   19  H   UNL     1     -10.300   9.709  71.542  1.00  0.00     0.000 HD 
HETATM   20  O   UNL     1     -10.954   9.026  71.637  1.00  0.00    -0.315 OA 
ENDBRANCH  17  18
BRANCH  17  21
HETATM   21  C   UNL     1     -12.769   7.183  71.695  1.00  0.00    -0.379 C  
HETATM   22  O   UNL     1     -12.755   6.925  70.290  1.00  0.00    -0.539 OA 
HETATM   23  H   UNL     1     -13.573   7.204  69.896  1.00  0.00     0.000 HD 
ENDBRANCH  17  21
ENDBRANCH  16  17
ENDBRANCH  15  16
ENDBRANCH  13  15
TORSDOF 5
ENDMDL
MODEL      151
REMARK 921   NORMALIZED FREE ENERGY PREDICTED BY IDOCK:   -3.95 KCAL/MOL
REMARK 922        TOTAL FREE ENERGY PREDICTED BY IDOCK:   -5.58 KCAL/MOL
REMARK 923 INTER-LIGAND FREE ENERGY PREDICTED BY IDOCK:   -4.97 KCAL/MOL
REMARK 924 INTRA-LIGAND FREE ENERGY PREDICTED BY IDOCK:   -0.61 KCAL/MOL
REMARK 927      BINDING AFFINITY PREDICTED BY RF-SCORE:    0.00 PKD
ROOT
HETATM    1  N   UNL     1     -12.483  11.722  62.893  1.00  0.00    -0.799 NA 
HETATM    2  C   UNL     1     -11.576  12.025  63.855  1.00  0.00    -0.449 C  
HETATM    3  H1  UNL     1     -13.027  12.464  62.453  1.00  0.00     0.000 HD 
HETATM    4  H2  UNL     1     -12.620  10.752  62.609  1.00  0.00     0.000 HD 
HETATM    5  N   UNL     1     -10.879  11.075  64.418  1.00  0.00    -0.287 NA 
HETATM    6  C   UNL     1     -10.029  11.527  65.373  1.00  0.00    -0.248 A  
HETATM    7  C   UNL     1      -9.830  12.823  65.792  1.00  0.00    -0.214 A  
HETATM    8  N   UNL     1      -8.895  12.885  66.795  1.00  0.00    -0.187 NA 
HETATM    9  C   UNL     1     -10.598  13.866  65.149  1.00  0.00    -0.379 C  
HETATM   10  N   UNL     1     -11.452  13.364  64.175  1.00  0.00    -0.459 N  
HETATM   11  O   UNL     1     -10.540  15.066  65.401  1.00  0.00    -0.322 OA 
HETATM   12  C   UNL     1      -8.532  11.633  66.986  1.00  0.00    -0.168 A  
HETATM   13  N   UNL     1      -9.187  10.775  66.139  1.00  0.00    -0.174 NA 
HETATM   14  H   UNL     1     -12.028  14.030  63.661  1.00  0.00     0.000 HD 
ENDROOT
BRANCH  13  15
HETATM   15  C   UNL     1      -8.972   9.349  66.033  1.00  0.00    -0.168 C  
BRANCH  15  16
HETATM   16  O   UNL     1     -10.012   8.594  66.668  1.00  0.00    -0.241 OA 
BRANCH  16  17
HETATM   17  C   UNL     1      -9.581   7.468  67.467  1.00  0.00    -0.142 C  
BRANCH  17  18
HETATM   18  C   UNL     1      -8.714   7.878  68.666  1.00  0.00    -0.128 C  
HETATM   19  H   UNL     1      -8.868   9.044  70.262  1.00  0.00     0.000 HD 
HETATM   20  O   UNL     1      -9.404   8.790  69.519  1.00  0.00    -0.154 OA 
ENDBRANCH  17  18
BRANCH  17  21
HETATM   21  C   UNL     1     -10.855   6.760  67.960  1.00  0.00    -0.235 C  
HETATM   22  O   UNL     1     -10.631   6.176  69.244  1.00  0.00    -0.221 OA 
HETATM   23  H   UNL     1     -11.418   5.739  69.548  1.00  0.00     0.000 HD 
ENDBRANCH  17  21
ENDBRANCH  16  17
ENDBRANCH  15  16
ENDBRANCH  13  15
TORSDOF 5
ENDMDL
MODEL      152
REMARK 921   NORMALIZED FREE ENERGY PREDICTED BY IDOCK:   -3.93 KCAL/MOL
REMARK 922        TOTAL FREE ENERGY PREDICTED BY IDOCK:   -5.57 KCAL/MOL
REMARK 923 INTER-LIGAND FREE ENERGY PREDICTED BY IDOCK:   -5.24 KCAL/MOL
REMARK 924 INTRA-LIGAND FREE ENERGY PREDICTED BY IDOCK:   -0.33 KCAL/MOL
REMARK 927      BINDING AFFINITY PREDICTED BY RF-SCORE:    0.00 PKD
ROOT
HETATM    1  N   UNL     1     -10.432  10.880  62.615  1.00  0.00    -0.723 NA 
HETATM    2  C   UNL     1     -10.073  10.682  63.908  1.00  0.00    -0.289 C  
HETATM    3  H1  UNL     1     -10.203  10.179  61.910  1.00  0.00     0.000 HD 
HETATM    4  H2  UNL     1     -10.930  11.728  62.348  1.00  0.00     0.000 HD 
HETATM    5  N   UNL     1     -10.367  11.579  64.812  1.00  0.00    -0.272 NA 
HETATM    6  C   UNL     1      -9.929  11.253  66.052  1.00  0.00    -0.231 A  
HETATM    7  C   UNL     1      -9.241  10.127  66.445  1.00  0.00    -0.158 A  
HETATM    8  N   UNL     1      -8.955  10.160  67.787  1.00  0.00    -0.128 NA 
HETATM    9  C   UNL     1      -8.936   9.136  65.437  1.00  0.00    -0.207 C  
HETATM   10  N   UNL     1      -9.405   9.504  64.182  1.00  0.00    -0.418 N  
HETATM   11  O   UNL     1      -8.336   8.082  65.619  1.00  0.00    -0.127 OA 
HETATM   12  C   UNL     1      -9.464  11.301  68.205  1.00  0.00    -0.190 A  
HETATM   13  N   UNL     1     -10.072  11.993  67.190  1.00  0.00    -0.201 NA 
HETATM   14  H   UNL     1      -9.243   8.859  63.408  1.00  0.00     0.000 HD 
ENDROOT
BRANCH  13  15
HETATM   15  C   UNL     1     -10.792  13.241  67.317  1.00  0.00    -0.264 C  
BRANCH  15  16
HETATM   16  O   UNL     1     -10.129  14.164  68.191  1.00  0.00    -0.226 OA 
BRANCH  16  17
HETATM   17  C   UNL     1     -10.965  14.822  69.171  1.00  0.00    -0.267 C  
BRANCH  17  18
HETATM   18  C   UNL     1     -11.515  16.170  68.684  1.00  0.00    -0.340 C  
HETATM   19  H   UNL     1     -10.991  18.080  68.741  1.00  0.00     0.000 HD 
HETATM   20  O   UNL     1     -10.650  17.246  69.043  1.00  0.00    -0.323 OA 
ENDBRANCH  17  18
BRANCH  17  21
HETATM   21  C   UNL     1     -12.128  13.862  69.478  1.00  0.00    -0.342 C  
HETATM   22  O   UNL     1     -11.759  12.955  70.518  1.00  0.00    -0.530 OA 
HETATM   23  H   UNL     1     -12.477  12.362  70.708  1.00  0.00     0.000 HD 
ENDBRANCH  17  21
ENDBRANCH  16  17
ENDBRANCH  15  16
ENDBRANCH  13  15
TORSDOF 5
ENDMDL
MODEL      153
REMARK 921   NORMALIZED FREE ENERGY PREDICTED BY IDOCK:   -3.88 KCAL/MOL
REMARK 922        TOTAL FREE ENERGY PREDICTED BY IDOCK:   -5.50 KCAL/MOL
REMARK 923 INTER-LIGAND FREE ENERGY PREDICTED BY IDOCK:   -4.98 KCAL/MOL
REMARK 924 INTRA-LIGAND FREE ENERGY PREDICTED BY IDOCK:   -0.52 KCAL/MOL
REMARK 927      BINDING AFFINITY PREDICTED BY RF-SCORE:    0.00 PKD
ROOT
HETATM    1  N   UNL     1     -11.268   5.997  71.188  1.00  0.00    -0.286 NA 
HETATM    2  C   UNL     1     -11.688   7.287  71.215  1.00  0.00    -0.296 C  
HETATM    3  H1  UNL     1     -11.673   5.315  71.829  1.00  0.00     0.000 HD 
HETATM    4  H2  UNL     1     -10.547   5.710  70.527  1.00  0.00     0.000 HD 
HETATM    5  N   UNL     1     -11.168   8.160  70.395  1.00  0.00    -0.252 NA 
HETATM    6  C   UNL     1     -11.672   9.408  70.551  1.00  0.00    -0.198 A  
HETATM    7  C   UNL     1     -12.632   9.835  71.442  1.00  0.00    -0.386 A  
HETATM    8  N   UNL     1     -12.870  11.181  71.312  1.00  0.00    -0.415 NA 
HETATM    9  C   UNL     1     -13.209   8.854  72.334  1.00  0.00    -0.430 C  
HETATM   10  N   UNL     1     -12.670   7.588  72.139  1.00  0.00    -0.494 N  
HETATM   11  O   UNL     1     -14.071   9.066  73.180  1.00  0.00    -0.313 OA 
HETATM   12  C   UNL     1     -12.058  11.569  70.351  1.00  0.00    -0.382 A  
HETATM   13  N   UNL     1     -11.318  10.526  69.853  1.00  0.00    -0.286 NA 
HETATM   14  H   UNL     1     -13.025   6.828  72.719  1.00  0.00     0.000 HD 
ENDROOT
BRANCH  13  15
HETATM   15  C   UNL     1     -10.388  10.589  68.748  1.00  0.00    -0.191 C  
BRANCH  15  16
HETATM   16  O   UNL     1      -9.747  11.867  68.648  1.00  0.00    -0.184 OA 
BRANCH  16  17
HETATM   17  C   UNL     1      -8.412  11.867  68.094  1.00  0.00    -0.163 C  
BRANCH  17  18
HETATM   18  C   UNL     1      -7.409  11.070  68.943  1.00  0.00    -0.111 C  
HETATM   19  H   UNL     1      -6.314   9.428  68.771  1.00  0.00     0.000 HD 
HETATM   20  O   UNL     1      -6.934   9.921  68.245  1.00  0.00    -0.070 OA 
ENDBRANCH  17  18
BRANCH  17  21
HETATM   21  C   UNL     1      -8.514  11.248  66.689  1.00  0.00    -0.168 C  
HETATM   22  O   UNL     1      -7.363  11.586  65.915  1.00  0.00    -0.350 OA 
HETATM   23  H   UNL     1      -7.426  11.204  65.047  1.00  0.00     0.000 HD 
ENDBRANCH  17  21
ENDBRANCH  16  17
ENDBRANCH  15  16
ENDBRANCH  13  15
TORSDOF 5
ENDMDL
MODEL      154
REMARK 921   NORMALIZED FREE ENERGY PREDICTED BY IDOCK:   -3.88 KCAL/MOL
REMARK 922        TOTAL FREE ENERGY PREDICTED BY IDOCK:   -5.50 KCAL/MOL
REMARK 923 INTER-LIGAND FREE ENERGY PREDICTED BY IDOCK:   -5.30 KCAL/MOL
REMARK 924 INTRA-LIGAND FREE ENERGY PREDICTED BY IDOCK:   -0.20 KCAL/MOL
REMARK 927      BINDING AFFINITY PREDICTED BY RF-SCORE:    0.00 PKD
ROOT
HETATM    1  N   UNL     1     -13.390  12.463  64.352  1.00  0.00    -0.606 NA 
HETATM    2  C   UNL     1     -12.353  12.832  65.143  1.00  0.00    -0.496 C  
HETATM    3  H1  UNL     1     -13.800  13.133  63.702  1.00  0.00     0.000 HD 
HETATM    4  H2  UNL     1     -13.761  11.514  64.407  1.00  0.00     0.000 HD 
HETATM    5  N   UNL     1     -11.828  11.973  65.976  1.00  0.00    -0.531 NA 
HETATM    6  C   UNL     1     -10.814  12.490  66.712  1.00  0.00    -0.249 A  
HETATM    7  C   UNL     1     -10.300  13.767  66.676  1.00  0.00    -0.279 A  
HETATM    8  N   UNL     1      -9.284  13.921  67.586  1.00  0.00    -0.192 NA 
HETATM    9  C   UNL     1     -10.881  14.703  65.739  1.00  0.00    -0.323 C  
HETATM   10  N   UNL     1     -11.912  14.134  65.002  1.00  0.00    -0.388 N  
HETATM   11  O   UNL     1     -10.541  15.871  65.580  1.00  0.00    -0.363 OA 
HETATM   12  C   UNL     1      -9.184  12.746  68.172  1.00  0.00    -0.212 A  
HETATM   13  N   UNL     1     -10.086  11.844  67.668  1.00  0.00    -0.189 NA 
HETATM   14  H   UNL     1     -12.376  14.719  64.307  1.00  0.00     0.000 HD 
ENDROOT
BRANCH  13  15
HETATM   15  C   UNL     1     -10.196  10.449  68.034  1.00  0.00    -0.169 C  
BRANCH  15  16
HETATM   16  O   UNL     1      -9.968  10.235  69.433  1.00  0.00    -0.214 OA 
BRANCH  16  17
HETATM   17  C   UNL     1      -9.399   8.956  69.794  1.00  0.00    -0.166 C  
BRANCH  17  18
HETATM   18  C   UNL     1      -8.346   9.059  70.907  1.00  0.00    -0.197 C  
HETATM   19  H   UNL     1      -7.020   7.882  71.792  1.00  0.00     0.000 HD 
HETATM   20  O   UNL     1      -7.672   7.817  71.103  1.00  0.00    -0.081 OA 
ENDBRANCH  17  18
BRANCH  17  21
HETATM   21  C   UNL     1     -10.566   8.067  70.260  1.00  0.00    -0.231 C  
HETATM   22  O   UNL     1     -11.711   8.869  70.556  1.00  0.00    -0.413 OA 
HETATM   23  H   UNL     1     -12.431   8.320  70.844  1.00  0.00     0.000 HD 
ENDBRANCH  17  21
ENDBRANCH  16  17
ENDBRANCH  15  16
ENDBRANCH  13  15
TORSDOF 5
ENDMDL
MODEL      155
REMARK 921   NORMALIZED FREE ENERGY PREDICTED BY IDOCK:   -3.87 KCAL/MOL
REMARK 922        TOTAL FREE ENERGY PREDICTED BY IDOCK:   -5.49 KCAL/MOL
REMARK 923 INTER-LIGAND FREE ENERGY PREDICTED BY IDOCK:   -4.95 KCAL/MOL
REMARK 924 INTRA-LIGAND FREE ENERGY PREDICTED BY IDOCK:   -0.54 KCAL/MOL
REMARK 927      BINDING AFFINITY PREDICTED BY RF-SCORE:    0.00 PKD
ROOT
HETATM    1  N   UNL     1      -6.868   6.547  70.127  1.00  0.00    -0.056 NA 
HETATM    2  C   UNL     1      -7.846   6.124  70.966  1.00  0.00    -0.114 C  
HETATM    3  H1  UNL     1      -5.901   6.267  70.290  1.00  0.00     0.000 HD 
HETATM    4  H2  UNL     1      -7.099   7.144  69.334  1.00  0.00     0.000 HD 
HETATM    5  N   UNL     1      -9.085   6.482  70.758  1.00  0.00    -0.154 NA 
HETATM    6  C   UNL     1      -9.946   6.000  71.686  1.00  0.00    -0.179 A  
HETATM    7  C   UNL     1      -9.668   5.206  72.777  1.00  0.00    -0.153 A  
HETATM    8  N   UNL     1     -10.802   4.934  73.499  1.00  0.00    -0.278 NA 
HETATM    9  C   UNL     1      -8.294   4.805  72.986  1.00  0.00    -0.101 C  
HETATM   10  N   UNL     1      -7.445   5.315  72.012  1.00  0.00    -0.094 N  
HETATM   11  O   UNL     1      -7.878   4.102  73.901  1.00  0.00    -0.082 OA 
HETATM   12  C   UNL     1     -11.763   5.562  72.852  1.00  0.00    -0.151 A  
HETATM   13  N   UNL     1     -11.292   6.214  71.742  1.00  0.00    -0.287 NA 
HETATM   14  H   UNL     1      -6.455   5.076  72.074  1.00  0.00     0.000 HD 
ENDROOT
BRANCH  13  15
HETATM   15  C   UNL     1     -12.088   6.936  70.773  1.00  0.00    -0.349 C  
BRANCH  15  16
HETATM   16  O   UNL     1     -11.729   8.321  70.699  1.00  0.00    -0.254 OA 
BRANCH  16  17
HETATM   17  C   UNL     1     -12.377   9.197  71.650  1.00  0.00    -0.360 C  
BRANCH  17  18
HETATM   18  C   UNL     1     -12.231  10.684  71.296  1.00  0.00    -0.341 C  
HETATM   19  H   UNL     1     -13.091  12.403  71.777  1.00  0.00     0.000 HD 
HETATM   20  O   UNL     1     -13.182  11.482  71.997  1.00  0.00    -0.509 OA 
ENDBRANCH  17  18
BRANCH  17  21
HETATM   21  C   UNL     1     -13.865   8.807  71.669  1.00  0.00    -0.397 C  
HETATM   22  O   UNL     1     -14.346   8.755  73.013  1.00  0.00    -1.089 OA 
HETATM   23  H   UNL     1     -15.265   8.515  73.024  1.00  0.00     0.000 HD 
ENDBRANCH  17  21
ENDBRANCH  16  17
ENDBRANCH  15  16
ENDBRANCH  13  15
TORSDOF 5
ENDMDL
MODEL      156
REMARK 921   NORMALIZED FREE ENERGY PREDICTED BY IDOCK:   -3.86 KCAL/MOL
REMARK 922        TOTAL FREE ENERGY PREDICTED BY IDOCK:   -5.47 KCAL/MOL
REMARK 923 INTER-LIGAND FREE ENERGY PREDICTED BY IDOCK:   -5.07 KCAL/MOL
REMARK 924 INTRA-LIGAND FREE ENERGY PREDICTED BY IDOCK:   -0.40 KCAL/MOL
REMARK 927      BINDING AFFINITY PREDICTED BY RF-SCORE:    0.00 PKD
ROOT
HETATM    1  N   UNL     1      -8.136   7.809  68.326  1.00  0.00    -0.122 NA 
HETATM    2  C   UNL     1      -9.139   8.641  68.704  1.00  0.00    -0.138 C  
HETATM    3  H1  UNL     1      -8.065   6.877  68.736  1.00  0.00     0.000 HD 
HETATM    4  H2  UNL     1      -7.454   8.114  67.632  1.00  0.00     0.000 HD 
HETATM    5  N   UNL     1      -9.230   9.834  68.180  1.00  0.00    -0.129 NA 
HETATM    6  C   UNL     1     -10.267  10.556  68.668  1.00  0.00    -0.183 A  
HETATM    7  C   UNL     1     -11.196  10.183  69.614  1.00  0.00    -0.261 A  
HETATM    8  N   UNL     1     -12.089  11.195  69.863  1.00  0.00    -0.330 NA 
HETATM    9  C   UNL     1     -11.091   8.854  70.175  1.00  0.00    -0.201 C  
HETATM   10  N   UNL     1     -10.020   8.145  69.646  1.00  0.00    -0.189 N  
HETATM   11  O   UNL     1     -11.834   8.366  71.020  1.00  0.00    -0.282 OA 
HETATM   12  C   UNL     1     -11.703  12.177  69.075  1.00  0.00    -0.322 A  
HETATM   13  N   UNL     1     -10.607  11.832  68.325  1.00  0.00    -0.203 NA 
HETATM   14  H   UNL     1      -9.873   7.192  69.977  1.00  0.00     0.000 HD 
ENDROOT
BRANCH  13  15
HETATM   15  C   UNL     1      -9.975  12.646  67.311  1.00  0.00    -0.212 C  
BRANCH  15  16
HETATM   16  O   UNL     1     -10.904  13.094  66.316  1.00  0.00    -0.277 OA 
BRANCH  16  17
HETATM   17  C   UNL     1     -10.638  12.668  64.960  1.00  0.00    -0.303 C  
BRANCH  17  18
HETATM   18  C   UNL     1     -10.333  11.167  64.851  1.00  0.00    -0.313 C  
HETATM   19  H   UNL     1      -9.994   9.834  63.424  1.00  0.00     0.000 HD 
HETATM   20  O   UNL     1     -10.183  10.763  63.491  1.00  0.00    -0.338 OA 
ENDBRANCH  17  18
BRANCH  17  21
HETATM   21  C   UNL     1     -11.890  13.008  64.134  1.00  0.00    -0.416 C  
HETATM   22  O   UNL     1     -13.071  12.705  64.877  1.00  0.00    -0.850 OA 
HETATM   23  H   UNL     1     -13.845  12.915  64.367  1.00  0.00     0.000 HD 
ENDBRANCH  17  21
ENDBRANCH  16  17
ENDBRANCH  15  16
ENDBRANCH  13  15
TORSDOF 5
ENDMDL
MODEL      157
REMARK 921   NORMALIZED FREE ENERGY PREDICTED BY IDOCK:   -3.85 KCAL/MOL
REMARK 922        TOTAL FREE ENERGY PREDICTED BY IDOCK:   -5.46 KCAL/MOL
REMARK 923 INTER-LIGAND FREE ENERGY PREDICTED BY IDOCK:   -5.11 KCAL/MOL
REMARK 924 INTRA-LIGAND FREE ENERGY PREDICTED BY IDOCK:   -0.35 KCAL/MOL
REMARK 927      BINDING AFFINITY PREDICTED BY RF-SCORE:    0.00 PKD
ROOT
HETATM    1  N   UNL     1     -11.119   6.207  66.718  1.00  0.00    -0.725 NA 
HETATM    2  C   UNL     1     -10.892   6.551  68.010  1.00  0.00    -0.295 C  
HETATM    3  H1  UNL     1     -11.049   5.231  66.431  1.00  0.00     0.000 HD 
HETATM    4  H2  UNL     1     -11.360   6.924  66.034  1.00  0.00     0.000 HD 
HETATM    5  N   UNL     1     -10.982   7.801  68.379  1.00  0.00     0.087 NA 
HETATM    6  C   UNL     1     -10.710   7.994  69.692  1.00  0.00    -0.207 A  
HETATM    7  C   UNL     1     -10.368   7.054  70.639  1.00  0.00    -0.207 A  
HETATM    8  N   UNL     1     -10.151   7.636  71.863  1.00  0.00    -0.175 NA 
HETATM    9  C   UNL     1     -10.286   5.672  70.220  1.00  0.00    -0.266 C  
HETATM   10  N   UNL     1     -10.576   5.516  68.870  1.00  0.00    -0.217 N  
HETATM   11  O   UNL     1      -9.999   4.717  70.933  1.00  0.00    -0.193 OA 
HETATM   12  C   UNL     1     -10.359   8.920  71.660  1.00  0.00    -0.345 A  
HETATM   13  N   UNL     1     -10.709   9.183  70.360  1.00  0.00    -0.223 NA 
HETATM   14  H   UNL     1     -10.553   4.572  68.487  1.00  0.00     0.000 HD 
ENDROOT
BRANCH  13  15
HETATM   15  C   UNL     1     -11.076  10.473  69.818  1.00  0.00    -0.295 C  
BRANCH  15  16
HETATM   16  O   UNL     1      -9.996  11.090  69.106  1.00  0.00    -0.195 OA 
BRANCH  16  17
HETATM   17  C   UNL     1     -10.308  12.330  68.431  1.00  0.00    -0.224 C  
BRANCH  17  18
HETATM   18  C   UNL     1     -10.568  12.148  66.928  1.00  0.00    -0.229 C  
HETATM   19  H   UNL     1     -12.124  11.947  65.718  1.00  0.00     0.000 HD 
HETATM   20  O   UNL     1     -11.964  12.061  66.648  1.00  0.00    -0.614 OA 
ENDBRANCH  17  18
BRANCH  17  21
HETATM   21  C   UNL     1     -11.563  12.904  69.113  1.00  0.00    -0.322 C  
HETATM   22  O   UNL     1     -11.201  13.951  70.014  1.00  0.00    -0.466 OA 
HETATM   23  H   UNL     1     -11.976  14.305  70.435  1.00  0.00     0.000 HD 
ENDBRANCH  17  21
ENDBRANCH  16  17
ENDBRANCH  15  16
ENDBRANCH  13  15
TORSDOF 5
ENDMDL
MODEL      158
REMARK 921   NORMALIZED FREE ENERGY PREDICTED BY IDOCK:   -3.85 KCAL/MOL
REMARK 922        TOTAL FREE ENERGY PREDICTED BY IDOCK:   -5.45 KCAL/MOL
REMARK 923 INTER-LIGAND FREE ENERGY PREDICTED BY IDOCK:   -4.98 KCAL/MOL
REMARK 924 INTRA-LIGAND FREE ENERGY PREDICTED BY IDOCK:   -0.47 KCAL/MOL
REMARK 927      BINDING AFFINITY PREDICTED BY RF-SCORE:    0.00 PKD
ROOT
HETATM    1  N   UNL     1     -10.696  19.626  65.611  1.00  0.00    -0.444 NA 
HETATM    2  C   UNL     1      -9.714  19.057  66.354  1.00  0.00    -0.367 C  
HETATM    3  H1  UNL     1     -10.486  20.429  65.018  1.00  0.00     0.000 HD 
HETATM    4  H2  UNL     1     -11.643  19.251  65.644  1.00  0.00     0.000 HD 
HETATM    5  N   UNL     1      -9.983  18.029  67.113  1.00  0.00    -0.311 NA 
HETATM    6  C   UNL     1      -8.910  17.581  67.809  1.00  0.00    -0.241 A  
HETATM    7  C   UNL     1      -7.623  18.072  67.801  1.00  0.00    -0.220 A  
HETATM    8  N   UNL     1      -6.814  17.364  68.654  1.00  0.00    -0.207 NA 
HETATM    9  C   UNL     1      -7.337  19.202  66.945  1.00  0.00    -0.209 C  
HETATM   10  N   UNL     1      -8.460  19.627  66.246  1.00  0.00    -0.354 N  
HETATM   11  O   UNL     1      -6.250  19.756  66.819  1.00  0.00    -0.182 OA 
HETATM   12  C   UNL     1      -7.605  16.451  69.178  1.00  0.00    -0.225 A  
HETATM   13  N   UNL     1      -8.883  16.539  68.689  1.00  0.00    -0.228 NA 
HETATM   14  H   UNL     1      -8.350  20.415  65.608  1.00  0.00     0.000 HD 
ENDROOT
BRANCH  13  15
HETATM   15  C   UNL     1      -9.980  15.647  68.997  1.00  0.00    -0.233 C  
BRANCH  15  16
HETATM   16  O   UNL     1      -9.679  14.284  68.673  1.00  0.00    -0.225 OA 
BRANCH  16  17
HETATM   17  C   UNL     1     -10.748  13.527  68.061  1.00  0.00    -0.251 C  
BRANCH  17  18
HETATM   18  C   UNL     1     -10.362  12.068  67.772  1.00  0.00    -0.197 C  
HETATM   19  H   UNL     1     -11.172  10.474  66.918  1.00  0.00     0.000 HD 
HETATM   20  O   UNL     1     -11.411  11.376  67.097  1.00  0.00    -0.354 OA 
ENDBRANCH  17  18
BRANCH  17  21
HETATM   21  C   UNL     1     -11.937  13.569  69.037  1.00  0.00    -0.335 C  
HETATM   22  O   UNL     1     -11.839  12.504  69.983  1.00  0.00    -0.402 OA 
HETATM   23  H   UNL     1     -12.573  12.530  70.586  1.00  0.00     0.000 HD 
ENDBRANCH  17  21
ENDBRANCH  16  17
ENDBRANCH  15  16
ENDBRANCH  13  15
TORSDOF 5
ENDMDL
MODEL      159
REMARK 921   NORMALIZED FREE ENERGY PREDICTED BY IDOCK:   -3.85 KCAL/MOL
REMARK 922        TOTAL FREE ENERGY PREDICTED BY IDOCK:   -5.45 KCAL/MOL
REMARK 923 INTER-LIGAND FREE ENERGY PREDICTED BY IDOCK:   -5.11 KCAL/MOL
REMARK 924 INTRA-LIGAND FREE ENERGY PREDICTED BY IDOCK:   -0.34 KCAL/MOL
REMARK 927      BINDING AFFINITY PREDICTED BY RF-SCORE:    0.00 PKD
ROOT
HETATM    1  N   UNL     1      -8.544   7.002  66.723  1.00  0.00    -0.117 NA 
HETATM    2  C   UNL     1      -8.629   7.945  65.752  1.00  0.00    -0.147 C  
HETATM    3  H1  UNL     1      -8.019   6.145  66.557  1.00  0.00     0.000 HD 
HETATM    4  H2  UNL     1      -9.006   7.152  67.621  1.00  0.00     0.000 HD 
HETATM    5  N   UNL     1      -9.303   9.044  65.964  1.00  0.00    -0.224 NA 
HETATM    6  C   UNL     1      -9.315   9.880  64.898  1.00  0.00    -0.268 A  
HETATM    7  C   UNL     1      -8.718   9.704  63.670  1.00  0.00    -0.224 A  
HETATM    8  N   UNL     1      -8.967  10.767  62.837  1.00  0.00    -0.244 NA 
HETATM    9  C   UNL     1      -7.963   8.489  63.454  1.00  0.00    -0.161 C  
HETATM   10  N   UNL     1      -7.971   7.662  64.570  1.00  0.00    -0.159 N  
HETATM   11  O   UNL     1      -7.371   8.180  62.425  1.00  0.00    -0.093 OA 
HETATM   12  C   UNL     1      -9.713  11.581  63.555  1.00  0.00    -0.336 A  
HETATM   13  N   UNL     1      -9.943  11.088  64.815  1.00  0.00    -0.270 NA 
HETATM   14  H   UNL     1      -7.455   6.785  64.513  1.00  0.00     0.000 HD 
ENDROOT
BRANCH  13  15
HETATM   15  C   UNL     1     -10.658  11.759  65.878  1.00  0.00    -0.271 C  
BRANCH  15  16
HETATM   16  O   UNL     1     -10.105  13.047  66.177  1.00  0.00    -0.274 OA 
BRANCH  16  17
HETATM   17  C   UNL     1     -11.035  14.154  66.174  1.00  0.00    -0.309 C  
BRANCH  17  18
HETATM   18  C   UNL     1     -10.930  15.023  64.912  1.00  0.00    -0.413 C  
HETATM   19  H   UNL     1     -10.487  16.899  64.450  1.00  0.00     0.000 HD 
HETATM   20  O   UNL     1     -10.551  16.361  65.231  1.00  0.00    -0.548 OA 
ENDBRANCH  17  18
BRANCH  17  21
HETATM   21  C   UNL     1     -12.446  13.549  66.277  1.00  0.00    -0.326 C  
HETATM   22  O   UNL     1     -13.178  13.795  65.076  1.00  0.00    -0.733 OA 
HETATM   23  H   UNL     1     -14.050  13.421  65.140  1.00  0.00     0.000 HD 
ENDBRANCH  17  21
ENDBRANCH  16  17
ENDBRANCH  15  16
ENDBRANCH  13  15
TORSDOF 5
ENDMDL
MODEL      160
REMARK 921   NORMALIZED FREE ENERGY PREDICTED BY IDOCK:   -3.83 KCAL/MOL
REMARK 922        TOTAL FREE ENERGY PREDICTED BY IDOCK:   -5.44 KCAL/MOL
REMARK 923 INTER-LIGAND FREE ENERGY PREDICTED BY IDOCK:   -4.92 KCAL/MOL
REMARK 924 INTRA-LIGAND FREE ENERGY PREDICTED BY IDOCK:   -0.52 KCAL/MOL
REMARK 927      BINDING AFFINITY PREDICTED BY RF-SCORE:    0.00 PKD
ROOT
HETATM    1  N   UNL     1     -10.374  20.341  67.826  1.00  0.00    -0.324 NA 
HETATM    2  C   UNL     1      -9.637  19.247  68.141  1.00  0.00    -0.353 C  
HETATM    3  H1  UNL     1      -9.915  21.241  67.683  1.00  0.00     0.000 HD 
HETATM    4  H2  UNL     1     -11.387  20.265  67.733  1.00  0.00     0.000 HD 
HETATM    5  N   UNL     1     -10.226  18.094  68.325  1.00  0.00    -0.376 NA 
HETATM    6  C   UNL     1      -9.365  17.100  68.652  1.00  0.00    -0.269 A  
HETATM    7  C   UNL     1      -7.998  17.170  68.802  1.00  0.00    -0.255 A  
HETATM    8  N   UNL     1      -7.472  15.953  69.156  1.00  0.00    -0.197 NA 
HETATM    9  C   UNL     1      -7.359  18.449  68.582  1.00  0.00    -0.295 C  
HETATM   10  N   UNL     1      -8.273  19.439  68.245  1.00  0.00    -0.327 N  
HETATM   11  O   UNL     1      -6.158  18.681  68.672  1.00  0.00    -0.203 OA 
HETATM   12  C   UNL     1      -8.514  15.149  69.222  1.00  0.00    -0.209 A  
HETATM   13  N   UNL     1      -9.682  15.799  68.916  1.00  0.00    -0.211 NA 
HETATM   14  H   UNL     1      -7.911  20.375  68.060  1.00  0.00     0.000 HD 
ENDROOT
BRANCH  13  15
HETATM   15  C   UNL     1     -10.995  15.200  68.822  1.00  0.00    -0.255 C  
BRANCH  15  16
HETATM   16  O   UNL     1     -11.458  14.705  70.085  1.00  0.00    -0.260 OA 
BRANCH  16  17
HETATM   17  C   UNL     1     -11.716  13.284  70.155  1.00  0.00    -0.184 C  
BRANCH  17  18
HETATM   18  C   UNL     1     -12.852  12.926  71.124  1.00  0.00    -0.238 C  
HETATM   19  H   UNL     1     -13.715  11.292  71.839  1.00  0.00     0.000 HD 
HETATM   20  O   UNL     1     -13.012  11.513  71.240  1.00  0.00    -0.380 OA 
ENDBRANCH  17  18
BRANCH  17  21
HETATM   21  C   UNL     1     -12.080  12.829  68.731  1.00  0.00    -0.128 C  
HETATM   22  O   UNL     1     -11.950  11.411  68.616  1.00  0.00    -0.452 OA 
HETATM   23  H   UNL     1     -12.174  11.130  67.737  1.00  0.00     0.000 HD 
ENDBRANCH  17  21
ENDBRANCH  16  17
ENDBRANCH  15  16
ENDBRANCH  13  15
TORSDOF 5
ENDMDL
MODEL      161
REMARK 921   NORMALIZED FREE ENERGY PREDICTED BY IDOCK:   -3.82 KCAL/MOL
REMARK 922        TOTAL FREE ENERGY PREDICTED BY IDOCK:   -5.42 KCAL/MOL
REMARK 923 INTER-LIGAND FREE ENERGY PREDICTED BY IDOCK:   -4.97 KCAL/MOL
REMARK 924 INTRA-LIGAND FREE ENERGY PREDICTED BY IDOCK:   -0.45 KCAL/MOL
REMARK 927      BINDING AFFINITY PREDICTED BY RF-SCORE:    0.00 PKD
ROOT
HETATM    1  N   UNL     1     -14.410   8.362  71.295  1.00  0.00    -0.644 NA 
HETATM    2  C   UNL     1     -13.071   8.520  71.439  1.00  0.00    -0.230 C  
HETATM    3  H1  UNL     1     -14.914   8.903  70.594  1.00  0.00     0.000 HD 
HETATM    4  H2  UNL     1     -14.912   7.701  71.887  1.00  0.00     0.000 HD 
HETATM    5  N   UNL     1     -12.424   7.826  72.338  1.00  0.00    -0.182 NA 
HETATM    6  C   UNL     1     -11.099   8.104  72.379  1.00  0.00    -0.369 A  
HETATM    7  C   UNL     1     -10.391   8.999  71.608  1.00  0.00    -0.350 A  
HETATM    8  N   UNL     1      -9.063   9.015  71.953  1.00  0.00    -0.369 NA 
HETATM    9  C   UNL     1     -11.117   9.750  70.607  1.00  0.00    -0.332 C  
HETATM   10  N   UNL     1     -12.470   9.433  70.594  1.00  0.00    -0.492 N  
HETATM   11  O   UNL     1     -10.641  10.580  69.840  1.00  0.00    -0.259 OA 
HETATM   12  C   UNL     1      -8.966   8.137  72.931  1.00  0.00    -0.260 A  
HETATM   13  N   UNL     1     -10.174   7.553  73.217  1.00  0.00    -0.319 NA 
HETATM   14  H   UNL     1     -13.061   9.907  69.912  1.00  0.00     0.000 HD 
ENDROOT
BRANCH  13  15
HETATM   15  C   UNL     1     -10.407   6.499  74.180  1.00  0.00    -0.329 C  
BRANCH  15  16
HETATM   16  O   UNL     1      -9.302   5.592  74.271  1.00  0.00    -0.127 OA 
BRANCH  16  17
HETATM   17  C   UNL     1      -9.602   4.199  74.024  1.00  0.00    -0.106 C  
BRANCH  17  18
HETATM   18  C   UNL     1     -11.000   3.983  73.424  1.00  0.00    -0.249 C  
HETATM   19  H   UNL     1     -12.150   2.462  72.885  1.00  0.00     0.000 HD 
HETATM   20  O   UNL     1     -11.286   2.596  73.256  1.00  0.00    -0.168 OA 
ENDBRANCH  17  18
BRANCH  17  21
HETATM   21  C   UNL     1      -8.530   3.679  73.050  1.00  0.00    -0.090 C  
HETATM   22  O   UNL     1      -7.920   4.770  72.359  1.00  0.00    -0.096 OA 
HETATM   23  H   UNL     1      -7.257   4.449  71.758  1.00  0.00     0.000 HD 
ENDBRANCH  17  21
ENDBRANCH  16  17
ENDBRANCH  15  16
ENDBRANCH  13  15
TORSDOF 5
ENDMDL
MODEL      162
REMARK 921   NORMALIZED FREE ENERGY PREDICTED BY IDOCK:   -3.80 KCAL/MOL
REMARK 922        TOTAL FREE ENERGY PREDICTED BY IDOCK:   -5.39 KCAL/MOL
REMARK 923 INTER-LIGAND FREE ENERGY PREDICTED BY IDOCK:   -4.89 KCAL/MOL
REMARK 924 INTRA-LIGAND FREE ENERGY PREDICTED BY IDOCK:   -0.50 KCAL/MOL
REMARK 927      BINDING AFFINITY PREDICTED BY RF-SCORE:    0.00 PKD
ROOT
HETATM    1  N   UNL     1      -9.950  13.872  68.093  1.00  0.00    -0.233 NA 
HETATM    2  C   UNL     1     -10.567  13.490  66.947  1.00  0.00    -0.270 C  
HETATM    3  H1  UNL     1     -10.384  14.570  68.697  1.00  0.00     0.000 HD 
HETATM    4  H2  UNL     1      -9.053  13.462  68.351  1.00  0.00     0.000 HD 
HETATM    5  N   UNL     1     -10.011  12.597  66.173  1.00  0.00    -0.257 NA 
HETATM    6  C   UNL     1     -10.732  12.330  65.057  1.00  0.00    -0.298 A  
HETATM    7  C   UNL     1     -11.936  12.875  64.670  1.00  0.00    -0.392 A  
HETATM    8  N   UNL     1     -12.350  12.366  63.465  1.00  0.00    -0.632 NA 
HETATM    9  C   UNL     1     -12.547  13.852  65.544  1.00  0.00    -0.526 C  
HETATM   10  N   UNL     1     -11.780  14.093  66.677  1.00  0.00    -0.384 N  
HETATM   11  O   UNL     1     -13.613  14.428  65.351  1.00  0.00    -0.428 OA 
HETATM   12  C   UNL     1     -11.401  11.520  63.121  1.00  0.00     0.032 A  
HETATM   13  N   UNL     1     -10.403  11.459  64.060  1.00  0.00    -0.328 NA 
HETATM   14  H   UNL     1     -12.139  14.763  67.358  1.00  0.00     0.000 HD 
ENDROOT
BRANCH  13  15
HETATM   15  C   UNL     1      -9.254  10.581  64.031  1.00  0.00    -0.253 C  
BRANCH  15  16
HETATM   16  O   UNL     1      -9.392   9.475  64.931  1.00  0.00    -0.246 OA 
BRANCH  16  17
HETATM   17  C   UNL     1      -8.330   9.306  65.897  1.00  0.00    -0.118 C  
BRANCH  17  18
HETATM   18  C   UNL     1      -7.201  10.335  65.736  1.00  0.00    -0.133 C  
HETATM   19  H   UNL     1      -6.456  11.871  66.741  1.00  0.00     0.000 HD 
HETATM   20  O   UNL     1      -7.154  11.234  66.842  1.00  0.00    -0.123 OA 
ENDBRANCH  17  18
BRANCH  17  21
HETATM   21  C   UNL     1      -8.969   9.445  67.290  1.00  0.00    -0.130 C  
HETATM   22  O   UNL     1      -9.981   8.453  67.471  1.00  0.00    -0.171 OA 
HETATM   23  H   UNL     1     -10.376   8.540  68.331  1.00  0.00     0.000 HD 
ENDBRANCH  17  21
ENDBRANCH  16  17
ENDBRANCH  15  16
ENDBRANCH  13  15
TORSDOF 5
ENDMDL
MODEL      163
REMARK 921   NORMALIZED FREE ENERGY PREDICTED BY IDOCK:   -3.80 KCAL/MOL
REMARK 922        TOTAL FREE ENERGY PREDICTED BY IDOCK:   -5.39 KCAL/MOL
REMARK 923 INTER-LIGAND FREE ENERGY PREDICTED BY IDOCK:   -5.08 KCAL/MOL
REMARK 924 INTRA-LIGAND FREE ENERGY PREDICTED BY IDOCK:   -0.31 KCAL/MOL
REMARK 927      BINDING AFFINITY PREDICTED BY RF-SCORE:    0.00 PKD
ROOT
HETATM    1  N   UNL     1      -8.641   8.866  63.839  1.00  0.00    -0.371 NA 
HETATM    2  C   UNL     1      -9.375   9.225  64.922  1.00  0.00    -0.073 C  
HETATM    3  H1  UNL     1      -8.304   7.908  63.746  1.00  0.00     0.000 HD 
HETATM    4  H2  UNL     1      -8.426   9.554  63.118  1.00  0.00     0.000 HD 
HETATM    5  N   UNL     1      -9.806  10.452  65.041  1.00  0.00    -0.297 NA 
HETATM    6  C   UNL     1     -10.507  10.666  66.180  1.00  0.00    -0.194 A  
HETATM    7  C   UNL     1     -10.802   9.767  67.181  1.00  0.00    -0.136 A  
HETATM    8  N   UNL     1     -11.521  10.361  68.189  1.00  0.00    -0.343 NA 
HETATM    9  C   UNL     1     -10.331   8.408  67.029  1.00  0.00    -0.315 C  
HETATM   10  N   UNL     1      -9.622   8.229  65.847  1.00  0.00    -0.451 N  
HETATM   11  O   UNL     1     -10.508   7.489  67.821  1.00  0.00    -0.210 OA 
HETATM   12  C   UNL     1     -11.658  11.612  67.803  1.00  0.00    -0.289 A  
HETATM   13  N   UNL     1     -11.067  11.842  66.587  1.00  0.00    -0.298 NA 
HETATM   14  H   UNL     1      -9.259   7.297  65.650  1.00  0.00     0.000 HD 
ENDROOT
BRANCH  13  15
HETATM   15  C   UNL     1     -11.094  13.082  65.843  1.00  0.00    -0.280 C  
BRANCH  15  16
HETATM   16  O   UNL     1     -11.487  14.195  66.657  1.00  0.00    -0.337 OA 
BRANCH  16  17
HETATM   17  C   UNL     1     -10.511  15.252  66.799  1.00  0.00    -0.293 C  
BRANCH  17  18
HETATM   18  C   UNL     1     -10.939  16.561  66.120  1.00  0.00     0.081 C  
HETATM   19  H   UNL     1     -10.856  17.379  64.317  1.00  0.00     0.000 HD 
HETATM   20  O   UNL     1     -10.591  16.568  64.737  1.00  0.00    -0.684 OA 
ENDBRANCH  17  18
BRANCH  17  21
HETATM   21  C   UNL     1     -10.324  15.483  68.309  1.00  0.00    -0.235 C  
HETATM   22  O   UNL     1     -11.444  16.190  68.844  1.00  0.00    -0.352 OA 
HETATM   23  H   UNL     1     -11.329  16.332  69.776  1.00  0.00     0.000 HD 
ENDBRANCH  17  21
ENDBRANCH  16  17
ENDBRANCH  15  16
ENDBRANCH  13  15
TORSDOF 5
ENDMDL
MODEL      164
REMARK 921   NORMALIZED FREE ENERGY PREDICTED BY IDOCK:   -3.79 KCAL/MOL
REMARK 922        TOTAL FREE ENERGY PREDICTED BY IDOCK:   -5.38 KCAL/MOL
REMARK 923 INTER-LIGAND FREE ENERGY PREDICTED BY IDOCK:   -5.16 KCAL/MOL
REMARK 924 INTRA-LIGAND FREE ENERGY PREDICTED BY IDOCK:   -0.22 KCAL/MOL
REMARK 927      BINDING AFFINITY PREDICTED BY RF-SCORE:    0.00 PKD
ROOT
HETATM    1  N   UNL     1     -10.064  16.052  65.051  1.00  0.00    -0.419 NA 
HETATM    2  C   UNL     1     -10.380  16.040  66.370  1.00  0.00    -0.305 C  
HETATM    3  H1  UNL     1      -9.749  16.915  64.610  1.00  0.00     0.000 HD 
HETATM    4  H2  UNL     1     -10.140  15.196  64.501  1.00  0.00     0.000 HD 
HETATM    5  N   UNL     1     -10.783  14.934  66.936  1.00  0.00    -0.302 NA 
HETATM    6  C   UNL     1     -11.081  15.081  68.249  1.00  0.00    -0.286 A  
HETATM    7  C   UNL     1     -11.004  16.220  69.019  1.00  0.00    -0.325 A  
HETATM    8  N   UNL     1     -11.406  15.979  70.309  1.00  0.00    -0.365 NA 
HETATM    9  C   UNL     1     -10.542  17.435  68.383  1.00  0.00    -0.355 C  
HETATM   10  N   UNL     1     -10.244  17.241  67.040  1.00  0.00    -0.312 N  
HETATM   11  O   UNL     1     -10.414  18.529  68.922  1.00  0.00    -0.212 OA 
HETATM   12  C   UNL     1     -11.727  14.702  70.321  1.00  0.00    -0.297 A  
HETATM   13  N   UNL     1     -11.537  14.114  69.097  1.00  0.00    -0.285 NA 
HETATM   14  H   UNL     1      -9.900  18.043  66.511  1.00  0.00     0.000 HD 
ENDROOT
BRANCH  13  15
HETATM   15  C   UNL     1     -11.721  12.714  68.783  1.00  0.00    -0.323 C  
BRANCH  15  16
HETATM   16  O   UNL     1     -10.475  12.016  68.663  1.00  0.00    -0.223 OA 
BRANCH  16  17
HETATM   17  C   UNL     1     -10.109  11.595  67.329  1.00  0.00    -0.199 C  
BRANCH  17  18
HETATM   18  C   UNL     1      -8.625  11.221  67.203  1.00  0.00    -0.147 C  
HETATM   19  H   UNL     1      -6.877  12.149  67.102  1.00  0.00     0.000 HD 
HETATM   20  O   UNL     1      -7.795  12.381  67.180  1.00  0.00    -0.170 OA 
ENDBRANCH  17  18
BRANCH  17  21
HETATM   21  C   UNL     1     -10.987  10.377  66.991  1.00  0.00    -0.154 C  
HETATM   22  O   UNL     1     -11.156   9.554  68.146  1.00  0.00    -0.482 OA 
HETATM   23  H   UNL     1     -11.698   8.802  67.938  1.00  0.00     0.000 HD 
ENDBRANCH  17  21
ENDBRANCH  16  17
ENDBRANCH  15  16
ENDBRANCH  13  15
TORSDOF 5
ENDMDL
MODEL      165
REMARK 921   NORMALIZED FREE ENERGY PREDICTED BY IDOCK:   -3.78 KCAL/MOL
REMARK 922        TOTAL FREE ENERGY PREDICTED BY IDOCK:   -5.37 KCAL/MOL
REMARK 923 INTER-LIGAND FREE ENERGY PREDICTED BY IDOCK:   -5.11 KCAL/MOL
REMARK 924 INTRA-LIGAND FREE ENERGY PREDICTED BY IDOCK:   -0.27 KCAL/MOL
REMARK 927      BINDING AFFINITY PREDICTED BY RF-SCORE:    0.00 PKD
ROOT
HETATM    1  N   UNL     1     -13.033  15.247  70.051  1.00  0.00    -0.646 NA 
HETATM    2  C   UNL     1     -11.898  14.995  69.352  1.00  0.00    -0.329 C  
HETATM    3  H1  UNL     1     -13.645  14.477  70.322  1.00  0.00     0.000 HD 
HETATM    4  H2  UNL     1     -13.274  16.204  70.305  1.00  0.00     0.000 HD 
HETATM    5  N   UNL     1     -11.114  15.981  69.004  1.00  0.00    -0.297 NA 
HETATM    6  C   UNL     1     -10.031  15.579  68.296  1.00  0.00    -0.213 A  
HETATM    7  C   UNL     1      -9.682  14.301  67.922  1.00  0.00    -0.222 A  
HETATM    8  N   UNL     1      -8.518  14.293  67.195  1.00  0.00    -0.210 NA 
HETATM    9  C   UNL     1     -10.552  13.218  68.327  1.00  0.00    -0.251 C  
HETATM   10  N   UNL     1     -11.647  13.670  69.054  1.00  0.00    -0.289 N  
HETATM   11  O   UNL     1     -10.387  12.028  68.080  1.00  0.00    -0.186 OA 
HETATM   12  C   UNL     1      -8.164  15.560  67.125  1.00  0.00    -0.215 A  
HETATM   13  N   UNL     1      -9.047  16.376  67.786  1.00  0.00    -0.199 NA 
HETATM   14  H   UNL     1     -12.311  12.974  69.391  1.00  0.00     0.000 HD 
ENDROOT
BRANCH  13  15
HETATM   15  C   UNL     1      -8.919  17.805  67.967  1.00  0.00    -0.263 C  
BRANCH  15  16
HETATM   16  O   UNL     1      -7.551  18.217  68.084  1.00  0.00    -0.252 OA 
BRANCH  16  17
HETATM   17  C   UNL     1      -7.306  19.639  67.983  1.00  0.00    -0.285 C  
BRANCH  17  18
HETATM   18  C   UNL     1      -6.440  20.183  69.129  1.00  0.00    -0.306 C  
HETATM   19  H   UNL     1      -5.494  19.477  70.721  1.00  0.00     0.000 HD 
HETATM   20  O   UNL     1      -6.030  19.140  70.011  1.00  0.00    -0.252 OA 
ENDBRANCH  17  18
BRANCH  17  21
HETATM   21  C   UNL     1      -6.599  19.872  66.636  1.00  0.00    -0.196 C  
HETATM   22  O   UNL     1      -7.227  20.940  65.926  1.00  0.00    -0.495 OA 
HETATM   23  H   UNL     1      -6.790  21.084  65.095  1.00  0.00     0.000 HD 
ENDBRANCH  17  21
ENDBRANCH  16  17
ENDBRANCH  15  16
ENDBRANCH  13  15
TORSDOF 5
ENDMDL
MODEL      166
REMARK 921   NORMALIZED FREE ENERGY PREDICTED BY IDOCK:   -3.77 KCAL/MOL
REMARK 922        TOTAL FREE ENERGY PREDICTED BY IDOCK:   -5.35 KCAL/MOL
REMARK 923 INTER-LIGAND FREE ENERGY PREDICTED BY IDOCK:   -5.00 KCAL/MOL
REMARK 924 INTRA-LIGAND FREE ENERGY PREDICTED BY IDOCK:   -0.35 KCAL/MOL
REMARK 927      BINDING AFFINITY PREDICTED BY RF-SCORE:    0.00 PKD
ROOT
HETATM    1  N   UNL     1      -9.066   9.137  65.518  1.00  0.00    -0.211 NA 
HETATM    2  C   UNL     1      -9.359   8.063  66.292  1.00  0.00    -0.184 C  
HETATM    3  H1  UNL     1      -8.795   9.005  64.544  1.00  0.00     0.000 HD 
HETATM    4  H2  UNL     1      -9.118  10.078  65.910  1.00  0.00     0.000 HD 
HETATM    5  N   UNL     1      -9.707   8.232  67.540  1.00  0.00    -0.156 NA 
HETATM    6  C   UNL     1      -9.949   7.069  68.191  1.00  0.00    -0.151 A  
HETATM    7  C   UNL     1      -9.874   5.785  67.700  1.00  0.00    -0.126 A  
HETATM    8  N   UNL     1     -10.177   4.861  68.669  1.00  0.00    -0.096 NA 
HETATM    9  C   UNL     1      -9.501   5.613  66.313  1.00  0.00    -0.155 C  
HETATM   10  N   UNL     1      -9.266   6.827  65.680  1.00  0.00    -0.376 N  
HETATM   11  O   UNL     1      -9.391   4.544  65.722  1.00  0.00    -0.142 OA 
HETATM   12  C   UNL     1     -10.432   5.581  69.743  1.00  0.00    -0.319 A  
HETATM   13  N   UNL     1     -10.315   6.925  69.498  1.00  0.00    -0.199 NA 
HETATM   14  H   UNL     1      -9.007   6.805  64.694  1.00  0.00     0.000 HD 
ENDROOT
BRANCH  13  15
HETATM   15  C   UNL     1     -10.595   7.992  70.434  1.00  0.00    -0.224 C  
BRANCH  15  16
HETATM   16  O   UNL     1     -11.964   7.996  70.858  1.00  0.00    -0.278 OA 
BRANCH  16  17
HETATM   17  C   UNL     1     -12.186   7.940  72.286  1.00  0.00    -0.287 C  
BRANCH  17  18
HETATM   18  C   UNL     1     -10.885   7.811  73.092  1.00  0.00    -0.339 C  
HETATM   19  H   UNL     1      -9.867   6.389  74.025  1.00  0.00     0.000 HD 
HETATM   20  O   UNL     1     -10.672   6.469  73.526  1.00  0.00    -0.285 OA 
ENDBRANCH  17  18
BRANCH  17  21
HETATM   21  C   UNL     1     -12.915   9.239  72.673  1.00  0.00    -0.212 C  
HETATM   22  O   UNL     1     -14.127   8.938  73.367  1.00  0.00    -1.256 OA 
HETATM   23  H   UNL     1     -14.577   9.740  73.606  1.00  0.00     0.000 HD 
ENDBRANCH  17  21
ENDBRANCH  16  17
ENDBRANCH  15  16
ENDBRANCH  13  15
TORSDOF 5
ENDMDL
MODEL      167
REMARK 921   NORMALIZED FREE ENERGY PREDICTED BY IDOCK:   -3.76 KCAL/MOL
REMARK 922        TOTAL FREE ENERGY PREDICTED BY IDOCK:   -5.34 KCAL/MOL
REMARK 923 INTER-LIGAND FREE ENERGY PREDICTED BY IDOCK:   -4.86 KCAL/MOL
REMARK 924 INTRA-LIGAND FREE ENERGY PREDICTED BY IDOCK:   -0.48 KCAL/MOL
REMARK 927      BINDING AFFINITY PREDICTED BY RF-SCORE:    0.00 PKD
ROOT
HETATM    1  N   UNL     1      -6.521  11.781  70.128  1.00  0.00    -0.416 NA 
HETATM    2  C   UNL     1      -7.187  10.940  69.298  1.00  0.00    -0.128 C  
HETATM    3  H1  UNL     1      -5.510  11.696  70.235  1.00  0.00     0.000 HD 
HETATM    4  H2  UNL     1      -7.030  12.498  70.645  1.00  0.00     0.000 HD 
HETATM    5  N   UNL     1      -8.482  11.048  69.161  1.00  0.00    -0.074 NA 
HETATM    6  C   UNL     1      -9.009  10.130  68.316  1.00  0.00    -0.120 A  
HETATM    7  C   UNL     1      -8.356   9.140  67.616  1.00  0.00    -0.116 A  
HETATM    8  N   UNL     1      -9.234   8.392  66.872  1.00  0.00    -0.148 NA 
HETATM    9  C   UNL     1      -6.921   9.042  67.767  1.00  0.00    -0.078 C  
HETATM   10  N   UNL     1      -6.418  10.002  68.636  1.00  0.00    -0.049 N  
HETATM   11  O   UNL     1      -6.191   8.224  67.215  1.00  0.00    -0.053 OA 
HETATM   12  C   UNL     1     -10.413   8.922  67.122  1.00  0.00    -0.274 A  
HETATM   13  N   UNL     1     -10.325   9.985  67.985  1.00  0.00    -0.186 NA 
HETATM   14  H   UNL     1      -5.411  10.015  68.796  1.00  0.00     0.000 HD 
ENDROOT
BRANCH  13  15
HETATM   15  C   UNL     1     -11.416  10.835  68.409  1.00  0.00    -0.288 C  
BRANCH  15  16
HETATM   16  O   UNL     1     -12.055  11.489  67.306  1.00  0.00    -0.548 OA 
BRANCH  16  17
HETATM   17  C   UNL     1     -11.343  12.610  66.735  1.00  0.00    -0.320 C  
BRANCH  17  18
HETATM   18  C   UNL     1     -12.105  13.283  65.584  1.00  0.00    -0.441 C  
HETATM   19  H   UNL     1     -13.472  12.789  64.237  1.00  0.00     0.000 HD 
HETATM   20  O   UNL     1     -13.001  12.372  64.949  1.00  0.00    -0.762 OA 
ENDBRANCH  17  18
BRANCH  17  21
HETATM   21  C   UNL     1     -11.117  13.620  67.874  1.00  0.00    -0.261 C  
HETATM   22  O   UNL     1     -12.318  14.347  68.135  1.00  0.00    -0.601 OA 
HETATM   23  H   UNL     1     -12.178  14.971  68.839  1.00  0.00     0.000 HD 
ENDBRANCH  17  21
ENDBRANCH  16  17
ENDBRANCH  15  16
ENDBRANCH  13  15
TORSDOF 5
ENDMDL
MODEL      168
REMARK 921   NORMALIZED FREE ENERGY PREDICTED BY IDOCK:   -3.71 KCAL/MOL
REMARK 922        TOTAL FREE ENERGY PREDICTED BY IDOCK:   -5.27 KCAL/MOL
REMARK 923 INTER-LIGAND FREE ENERGY PREDICTED BY IDOCK:   -5.50 KCAL/MOL
REMARK 924 INTRA-LIGAND FREE ENERGY PREDICTED BY IDOCK:    0.22 KCAL/MOL
REMARK 927      BINDING AFFINITY PREDICTED BY RF-SCORE:    0.00 PKD
ROOT
HETATM    1  N   UNL     1     -12.318  16.421  72.062  1.00  0.00    -0.544 NA 
HETATM    2  C   UNL     1     -12.308  15.226  71.419  1.00  0.00    -0.359 C  
HETATM    3  H1  UNL     1     -12.693  16.487  73.008  1.00  0.00     0.000 HD 
HETATM    4  H2  UNL     1     -11.949  17.252  71.600  1.00  0.00     0.000 HD 
HETATM    5  N   UNL     1     -11.826  15.141  70.208  1.00  0.00    -0.287 NA 
HETATM    6  C   UNL     1     -11.901  13.891  69.689  1.00  0.00    -0.327 A  
HETATM    7  C   UNL     1     -12.405  12.752  70.276  1.00  0.00    -0.204 A  
HETATM    8  N   UNL     1     -12.323  11.676  69.428  1.00  0.00    -0.153 NA 
HETATM    9  C   UNL     1     -12.921  12.859  71.623  1.00  0.00    -0.313 C  
HETATM   10  N   UNL     1     -12.822  14.153  72.120  1.00  0.00    -0.340 N  
HETATM   11  O   UNL     1     -13.400  11.946  72.287  1.00  0.00    -0.471 OA 
HETATM   12  C   UNL     1     -11.776  12.159  68.332  1.00  0.00    -0.332 A  
HETATM   13  N   UNL     1     -11.494  13.497  68.447  1.00  0.00    -0.289 NA 
HETATM   14  H   UNL     1     -13.154  14.321  73.070  1.00  0.00     0.000 HD 
ENDROOT
BRANCH  13  15
HETATM   15  C   UNL     1     -10.827  14.318  67.461  1.00  0.00    -0.280 C  
BRANCH  15  16
HETATM   16  O   UNL     1      -9.744  13.629  66.823  1.00  0.00    -0.258 OA 
BRANCH  16  17
HETATM   17  C   UNL     1     -10.115  12.555  65.928  1.00  0.00    -0.254 C  
BRANCH  17  18
HETATM   18  C   UNL     1     -10.343  13.027  64.485  1.00  0.00    -0.364 C  
HETATM   19  H   UNL     1     -10.208  12.281  62.654  1.00  0.00     0.000 HD 
HETATM   20  O   UNL     1     -10.067  11.988  63.547  1.00  0.00    -0.408 OA 
ENDBRANCH  17  18
BRANCH  17  21
HETATM   21  C   UNL     1      -8.969  11.529  65.968  1.00  0.00    -0.176 C  
HETATM   22  O   UNL     1      -8.579  11.276  67.319  1.00  0.00    -0.137 OA 
HETATM   23  H   UNL     1      -7.871  10.642  67.343  1.00  0.00     0.000 HD 
ENDBRANCH  17  21
ENDBRANCH  16  17
ENDBRANCH  15  16
ENDBRANCH  13  15
TORSDOF 5
ENDMDL
MODEL      169
REMARK 921   NORMALIZED FREE ENERGY PREDICTED BY IDOCK:   -3.70 KCAL/MOL
REMARK 922        TOTAL FREE ENERGY PREDICTED BY IDOCK:   -5.27 KCAL/MOL
REMARK 923 INTER-LIGAND FREE ENERGY PREDICTED BY IDOCK:   -4.88 KCAL/MOL
REMARK 924 INTRA-LIGAND FREE ENERGY PREDICTED BY IDOCK:   -0.39 KCAL/MOL
REMARK 927      BINDING AFFINITY PREDICTED BY RF-SCORE:    0.00 PKD
ROOT
HETATM    1  N   UNL     1     -11.332   4.453  64.862  1.00  0.00    -1.085 NA 
HETATM    2  C   UNL     1     -10.486   4.624  65.908  1.00  0.00    -0.268 C  
HETATM    3  H1  UNL     1     -11.012   3.972  64.021  1.00  0.00     0.000 HD 
HETATM    4  H2  UNL     1     -12.288   4.804  64.915  1.00  0.00     0.000 HD 
HETATM    5  N   UNL     1     -10.896   5.240  66.985  1.00  0.00    -0.089 NA 
HETATM    6  C   UNL     1      -9.937   5.353  67.935  1.00  0.00    -0.160 A  
HETATM    7  C   UNL     1      -8.636   4.906  67.891  1.00  0.00    -0.103 A  
HETATM    8  N   UNL     1      -7.960   5.221  69.043  1.00  0.00    -0.085 NA 
HETATM    9  C   UNL     1      -8.200   4.212  66.699  1.00  0.00    -0.101 C  
HETATM   10  N   UNL     1      -9.212   4.114  65.752  1.00  0.00    -0.139 N  
HETATM   11  O   UNL     1      -7.082   3.751  66.500  1.00  0.00    -0.061 OA 
HETATM   12  C   UNL     1      -8.846   5.859  69.781  1.00  0.00    -0.128 A  
HETATM   13  N   UNL     1     -10.061   5.955  69.154  1.00  0.00    -0.174 NA 
HETATM   14  H   UNL     1      -8.999   3.630  64.880  1.00  0.00     0.000 HD 
ENDROOT
BRANCH  13  15
HETATM   15  C   UNL     1     -11.268   6.526  69.710  1.00  0.00    -0.395 C  
BRANCH  15  16
HETATM   16  O   UNL     1     -11.396   6.264  71.113  1.00  0.00    -0.294 OA 
BRANCH  16  17
HETATM   17  C   UNL     1     -11.612   7.418  71.958  1.00  0.00    -0.284 C  
BRANCH  17  18
HETATM   18  C   UNL     1     -10.736   8.618  71.570  1.00  0.00    -0.282 C  
HETATM   19  H   UNL     1     -10.938  10.578  71.350  1.00  0.00     0.000 HD 
HETATM   20  O   UNL     1     -11.480   9.835  71.590  1.00  0.00    -0.364 OA 
ENDBRANCH  17  18
BRANCH  17  21
HETATM   21  C   UNL     1     -13.099   7.792  71.827  1.00  0.00    -0.322 C  
HETATM   22  O   UNL     1     -13.921   6.691  72.217  1.00  0.00    -0.547 OA 
HETATM   23  H   UNL     1     -14.840   6.922  72.136  1.00  0.00     0.000 HD 
ENDBRANCH  17  21
ENDBRANCH  16  17
ENDBRANCH  15  16
ENDBRANCH  13  15
TORSDOF 5
ENDMDL
MODEL      170
REMARK 921   NORMALIZED FREE ENERGY PREDICTED BY IDOCK:   -3.70 KCAL/MOL
REMARK 922        TOTAL FREE ENERGY PREDICTED BY IDOCK:   -5.26 KCAL/MOL
REMARK 923 INTER-LIGAND FREE ENERGY PREDICTED BY IDOCK:   -5.11 KCAL/MOL
REMARK 924 INTRA-LIGAND FREE ENERGY PREDICTED BY IDOCK:   -0.16 KCAL/MOL
REMARK 927      BINDING AFFINITY PREDICTED BY RF-SCORE:    0.00 PKD
ROOT
HETATM    1  N   UNL     1     -12.700  14.283  71.093  1.00  0.00    -0.339 NA 
HETATM    2  C   UNL     1     -11.892  14.134  70.013  1.00  0.00    -0.323 C  
HETATM    3  H1  UNL     1     -13.438  13.604  71.274  1.00  0.00     0.000 HD 
HETATM    4  H2  UNL     1     -12.568  15.075  71.723  1.00  0.00     0.000 HD 
HETATM    5  N   UNL     1     -10.946  15.005  69.781  1.00  0.00    -0.266 NA 
HETATM    6  C   UNL     1     -10.234  14.736  68.659  1.00  0.00    -0.236 A  
HETATM    7  C   UNL     1     -10.393  13.689  67.779  1.00  0.00    -0.241 A  
HETATM    8  N   UNL     1      -9.491  13.763  66.747  1.00  0.00    -0.267 NA 
HETATM    9  C   UNL     1     -11.436  12.725  68.057  1.00  0.00    -0.318 C  
HETATM   10  N   UNL     1     -12.137  13.033  69.216  1.00  0.00    -0.249 N  
HETATM   11  O   UNL     1     -11.707  11.739  67.380  1.00  0.00    -0.532 OA 
HETATM   12  C   UNL     1      -8.790  14.849  66.999  1.00  0.00    -0.232 A  
HETATM   13  N   UNL     1      -9.200  15.467  68.153  1.00  0.00    -0.187 NA 
HETATM   14  H   UNL     1     -12.887  12.402  69.497  1.00  0.00     0.000 HD 
ENDROOT
BRANCH  13  15
HETATM   15  C   UNL     1      -8.599  16.637  68.756  1.00  0.00    -0.261 C  
BRANCH  15  16
HETATM   16  O   UNL     1      -8.624  17.772  67.882  1.00  0.00    -0.240 OA 
BRANCH  16  17
HETATM   17  C   UNL     1      -7.409  18.031  67.142  1.00  0.00    -0.195 C  
BRANCH  17  18
HETATM   18  C   UNL     1      -7.651  18.814  65.843  1.00  0.00    -0.158 C  
HETATM   19  H   UNL     1      -6.693  19.185  64.149  1.00  0.00     0.000 HD 
HETATM   20  O   UNL     1      -6.543  18.700  64.952  1.00  0.00    -0.514 OA 
ENDBRANCH  17  18
BRANCH  17  21
HETATM   21  C   UNL     1      -6.485  18.835  68.073  1.00  0.00    -0.218 C  
HETATM   22  O   UNL     1      -7.250  19.749  68.860  1.00  0.00    -0.334 OA 
HETATM   23  H   UNL     1      -6.679  20.246  69.435  1.00  0.00     0.000 HD 
ENDBRANCH  17  21
ENDBRANCH  16  17
ENDBRANCH  15  16
ENDBRANCH  13  15
TORSDOF 5
ENDMDL
MODEL      171
REMARK 921   NORMALIZED FREE ENERGY PREDICTED BY IDOCK:   -3.67 KCAL/MOL
REMARK 922        TOTAL FREE ENERGY PREDICTED BY IDOCK:   -5.23 KCAL/MOL
REMARK 923 INTER-LIGAND FREE ENERGY PREDICTED BY IDOCK:   -4.59 KCAL/MOL
REMARK 924 INTRA-LIGAND FREE ENERGY PREDICTED BY IDOCK:   -0.64 KCAL/MOL
REMARK 927      BINDING AFFINITY PREDICTED BY RF-SCORE:    0.00 PKD
ROOT
HETATM    1  N   UNL     1      -8.877   8.093  69.084  1.00  0.00    -0.144 NA 
HETATM    2  C   UNL     1      -9.693   9.168  69.222  1.00  0.00    -0.164 C  
HETATM    3  H1  UNL     1      -9.049   7.249  69.629  1.00  0.00     0.000 HD 
HETATM    4  H2  UNL     1      -8.092   8.130  68.434  1.00  0.00     0.000 HD 
HETATM    5  N   UNL     1      -9.473  10.250  68.524  1.00  0.00    -0.153 NA 
HETATM    6  C   UNL     1     -10.357  11.244  68.782  1.00  0.00    -0.205 A  
HETATM    7  C   UNL     1     -11.416  11.236  69.662  1.00  0.00    -0.309 A  
HETATM    8  N   UNL     1     -12.076  12.439  69.660  1.00  0.00    -0.249 NA 
HETATM    9  C   UNL     1     -11.657  10.026  70.418  1.00  0.00    -0.302 C  
HETATM   10  N   UNL     1     -10.734   9.031  70.121  1.00  0.00    -0.227 N  
HETATM   11  O   UNL     1     -12.554   9.852  71.236  1.00  0.00    -0.327 OA 
HETATM   12  C   UNL     1     -11.419  13.174  68.786  1.00  0.00    -0.307 A  
HETATM   13  N   UNL     1     -10.374  12.488  68.223  1.00  0.00    -0.231 NA 
HETATM   14  H   UNL     1     -10.832   8.136  70.601  1.00  0.00     0.000 HD 
ENDROOT
BRANCH  13  15
HETATM   15  C   UNL     1      -9.498  12.972  67.178  1.00  0.00    -0.230 C  
BRANCH  15  16
HETATM   16  O   UNL     1      -9.465  14.403  67.116  1.00  0.00    -0.208 OA 
BRANCH  16  17
HETATM   17  C   UNL     1      -9.746  14.988  65.824  1.00  0.00    -0.340 C  
BRANCH  17  18
HETATM   18  C   UNL     1     -10.581  14.072  64.917  1.00  0.00    -0.424 C  
HETATM   19  H   UNL     1     -12.493  13.653  64.609  1.00  0.00     0.000 HD 
HETATM   20  O   UNL     1     -11.977  14.220  65.170  1.00  0.00    -0.363 OA 
ENDBRANCH  17  18
BRANCH  17  21
HETATM   21  C   UNL     1     -10.508  16.299  66.086  1.00  0.00    -0.322 C  
HETATM   22  O   UNL     1     -11.362  16.156  67.222  1.00  0.00    -0.084 OA 
HETATM   23  H   UNL     1     -11.833  16.965  67.384  1.00  0.00     0.000 HD 
ENDBRANCH  17  21
ENDBRANCH  16  17
ENDBRANCH  15  16
ENDBRANCH  13  15
TORSDOF 5
ENDMDL
MODEL      172
REMARK 921   NORMALIZED FREE ENERGY PREDICTED BY IDOCK:   -3.65 KCAL/MOL
REMARK 922        TOTAL FREE ENERGY PREDICTED BY IDOCK:   -5.21 KCAL/MOL
REMARK 923 INTER-LIGAND FREE ENERGY PREDICTED BY IDOCK:   -4.80 KCAL/MOL
REMARK 924 INTRA-LIGAND FREE ENERGY PREDICTED BY IDOCK:   -0.40 KCAL/MOL
REMARK 927      BINDING AFFINITY PREDICTED BY RF-SCORE:    0.00 PKD
ROOT
HETATM    1  N   UNL     1     -10.556  14.747  67.226  1.00  0.00    -0.269 NA 
HETATM    2  C   UNL     1     -11.118  14.110  68.283  1.00  0.00    -0.254 C  
HETATM    3  H1  UNL     1     -10.718  15.744  67.086  1.00  0.00     0.000 HD 
HETATM    4  H2  UNL     1      -9.970  14.228  66.571  1.00  0.00     0.000 HD 
HETATM    5  N   UNL     1     -10.911  12.833  68.462  1.00  0.00    -0.246 NA 
HETATM    6  C   UNL     1     -11.551  12.332  69.546  1.00  0.00    -0.298 A  
HETATM    7  C   UNL     1     -12.360  12.997  70.441  1.00  0.00    -0.277 A  
HETATM    8  N   UNL     1     -12.844  12.146  71.403  1.00  0.00    -0.342 NA 
HETATM    9  C   UNL     1     -12.569  14.414  70.238  1.00  0.00    -0.323 C  
HETATM   10  N   UNL     1     -11.893  14.888  69.122  1.00  0.00    -0.361 N  
HETATM   11  O   UNL     1     -13.255  15.150  70.940  1.00  0.00    -0.425 OA 
HETATM   12  C   UNL     1     -12.335  10.972  71.093  1.00  0.00    -0.359 A  
HETATM   13  N   UNL     1     -11.537  11.038  69.979  1.00  0.00    -0.318 NA 
HETATM   14  H   UNL     1     -11.974  15.882  68.906  1.00  0.00     0.000 HD 
ENDROOT
BRANCH  13  15
HETATM   15  C   UNL     1     -10.769   9.952  69.412  1.00  0.00    -0.232 C  
BRANCH  15  16
HETATM   16  O   UNL     1     -11.090   8.689  70.009  1.00  0.00    -0.237 OA 
BRANCH  16  17
HETATM   17  C   UNL     1     -10.011   7.730  70.084  1.00  0.00    -0.186 C  
BRANCH  17  18
HETATM   18  C   UNL     1     -10.422   6.415  70.764  1.00  0.00    -0.222 C  
HETATM   19  H   UNL     1      -9.557   4.737  71.366  1.00  0.00     0.000 HD 
HETATM   20  O   UNL     1      -9.303   5.551  70.946  1.00  0.00    -0.151 OA 
ENDBRANCH  17  18
BRANCH  17  21
HETATM   21  C   UNL     1      -9.562   7.453  68.639  1.00  0.00    -0.146 C  
HETATM   22  O   UNL     1     -10.394   6.457  68.044  1.00  0.00    -0.154 OA 
HETATM   23  H   UNL     1     -10.116   6.286  67.151  1.00  0.00     0.000 HD 
ENDBRANCH  17  21
ENDBRANCH  16  17
ENDBRANCH  15  16
ENDBRANCH  13  15
TORSDOF 5
ENDMDL
MODEL      173
REMARK 921   NORMALIZED FREE ENERGY PREDICTED BY IDOCK:   -3.65 KCAL/MOL
REMARK 922        TOTAL FREE ENERGY PREDICTED BY IDOCK:   -5.20 KCAL/MOL
REMARK 923 INTER-LIGAND FREE ENERGY PREDICTED BY IDOCK:   -4.59 KCAL/MOL
REMARK 924 INTRA-LIGAND FREE ENERGY PREDICTED BY IDOCK:   -0.62 KCAL/MOL
REMARK 927      BINDING AFFINITY PREDICTED BY RF-SCORE:    0.00 PKD
ROOT
HETATM    1  N   UNL     1      -7.659  14.186  69.427  1.00  0.00    -0.342 NA 
HETATM    2  C   UNL     1      -8.799  14.186  68.692  1.00  0.00    -0.132 C  
HETATM    3  H1  UNL     1      -7.383  15.024  69.939  1.00  0.00     0.000 HD 
HETATM    4  H2  UNL     1      -7.079  13.349  69.469  1.00  0.00     0.000 HD 
HETATM    5  N   UNL     1      -9.153  13.113  68.037  1.00  0.00    -0.200 NA 
HETATM    6  C   UNL     1     -10.301  13.269  67.334  1.00  0.00    -0.243 A  
HETATM    7  C   UNL     1     -11.100  14.386  67.241  1.00  0.00    -0.311 A  
HETATM    8  N   UNL     1     -12.174  14.165  66.417  1.00  0.00    -0.459 NA 
HETATM    9  C   UNL     1     -10.703  15.563  67.984  1.00  0.00    -0.283 C  
HETATM   10  N   UNL     1      -9.526  15.361  68.694  1.00  0.00    -0.197 N  
HETATM   11  O   UNL     1     -11.300  16.634  68.013  1.00  0.00    -0.251 OA 
HETATM   12  C   UNL     1     -12.027  12.922  66.009  1.00  0.00    -0.446 A  
HETATM   13  N   UNL     1     -10.909  12.335  66.546  1.00  0.00    -0.250 NA 
HETATM   14  H   UNL     1      -9.174  16.135  69.257  1.00  0.00     0.000 HD 
ENDROOT
BRANCH  13  15
HETATM   15  C   UNL     1     -10.494  10.962  66.365  1.00  0.00    -0.250 C  
BRANCH  15  16
HETATM   16  O   UNL     1     -10.864  10.132  67.473  1.00  0.00    -0.281 OA 
BRANCH  16  17
HETATM   17  C   UNL     1      -9.778   9.469  68.160  1.00  0.00    -0.147 C  
BRANCH  17  18
HETATM   18  C   UNL     1      -9.677   9.859  69.642  1.00  0.00    -0.229 C  
HETATM   19  H   UNL     1     -10.792   9.732  71.276  1.00  0.00     0.000 HD 
HETATM   20  O   UNL     1     -10.854   9.491  70.359  1.00  0.00    -0.238 OA 
ENDBRANCH  17  18
BRANCH  17  21
HETATM   21  C   UNL     1     -10.031   7.956  68.033  1.00  0.00    -0.177 C  
HETATM   22  O   UNL     1      -9.523   7.272  69.179  1.00  0.00    -0.149 OA 
HETATM   23  H   UNL     1      -9.679   6.338  69.101  1.00  0.00     0.000 HD 
ENDBRANCH  17  21
ENDBRANCH  16  17
ENDBRANCH  15  16
ENDBRANCH  13  15
TORSDOF 5
ENDMDL
MODEL      174
REMARK 921   NORMALIZED FREE ENERGY PREDICTED BY IDOCK:   -3.65 KCAL/MOL
REMARK 922        TOTAL FREE ENERGY PREDICTED BY IDOCK:   -5.20 KCAL/MOL
REMARK 923 INTER-LIGAND FREE ENERGY PREDICTED BY IDOCK:   -5.01 KCAL/MOL
REMARK 924 INTRA-LIGAND FREE ENERGY PREDICTED BY IDOCK:   -0.19 KCAL/MOL
REMARK 927      BINDING AFFINITY PREDICTED BY RF-SCORE:    0.00 PKD
ROOT
HETATM    1  N   UNL     1      -8.561   8.830  64.010  1.00  0.00    -0.387 NA 
HETATM    2  C   UNL     1      -9.167   9.009  65.210  1.00  0.00    -0.140 C  
HETATM    3  H1  UNL     1      -8.537   7.903  63.584  1.00  0.00     0.000 HD 
HETATM    4  H2  UNL     1      -8.129   9.621  63.533  1.00  0.00     0.000 HD 
HETATM    5  N   UNL     1      -9.198  10.197  65.754  1.00  0.00    -0.167 NA 
HETATM    6  C   UNL     1      -9.819  10.218  66.958  1.00  0.00    -0.193 A  
HETATM    7  C   UNL     1     -10.398   9.169  67.638  1.00  0.00    -0.255 A  
HETATM    8  N   UNL     1     -10.915   9.579  68.841  1.00  0.00    -0.142 NA 
HETATM    9  C   UNL     1     -10.369   7.864  67.016  1.00  0.00    -0.341 C  
HETATM   10  N   UNL     1      -9.729   7.885  65.783  1.00  0.00    -0.341 N  
HETATM   11  O   UNL     1     -10.838   6.831  67.483  1.00  0.00    -0.270 OA 
HETATM   12  C   UNL     1     -10.650  10.868  68.893  1.00  0.00    -0.210 A  
HETATM   13  N   UNL     1      -9.994  11.302  67.769  1.00  0.00    -0.174 NA 
HETATM   14  H   UNL     1      -9.669   7.008  65.265  1.00  0.00     0.000 HD 
ENDROOT
BRANCH  13  15
HETATM   15  C   UNL     1      -9.621  12.667  67.469  1.00  0.00    -0.184 C  
BRANCH  15  16
HETATM   16  O   UNL     1     -10.026  13.065  66.153  1.00  0.00    -0.269 OA 
BRANCH  16  17
HETATM   17  C   UNL     1     -11.221  13.875  66.075  1.00  0.00    -0.300 C  
BRANCH  17  18
HETATM   18  C   UNL     1     -10.944  15.310  65.605  1.00  0.00    -0.344 C  
HETATM   19  H   UNL     1     -10.445  17.051  66.410  1.00  0.00     0.000 HD 
HETATM   20  O   UNL     1     -10.616  16.162  66.701  1.00  0.00    -0.311 OA 
ENDBRANCH  17  18
BRANCH  17  21
HETATM   21  C   UNL     1     -12.168  13.174  65.085  1.00  0.00    -0.450 C  
HETATM   22  O   UNL     1     -11.644  13.253  63.759  1.00  0.00    -0.530 OA 
HETATM   23  H   UNL     1     -12.229  12.820  63.147  1.00  0.00     0.000 HD 
ENDBRANCH  17  21
ENDBRANCH  16  17
ENDBRANCH  15  16
ENDBRANCH  13  15
TORSDOF 5
ENDMDL
MODEL      175
REMARK 921   NORMALIZED FREE ENERGY PREDICTED BY IDOCK:   -3.65 KCAL/MOL
REMARK 922        TOTAL FREE ENERGY PREDICTED BY IDOCK:   -5.20 KCAL/MOL
REMARK 923 INTER-LIGAND FREE ENERGY PREDICTED BY IDOCK:   -4.79 KCAL/MOL
REMARK 924 INTRA-LIGAND FREE ENERGY PREDICTED BY IDOCK:   -0.41 KCAL/MOL
REMARK 927      BINDING AFFINITY PREDICTED BY RF-SCORE:    0.00 PKD
ROOT
HETATM    1  N   UNL     1     -11.502   4.591  65.051  1.00  0.00    -1.108 NA 
HETATM    2  C   UNL     1     -10.638   4.685  66.092  1.00  0.00    -0.156 C  
HETATM    3  H1  UNL     1     -11.502   3.759  64.462  1.00  0.00     0.000 HD 
HETATM    4  H2  UNL     1     -12.153   5.353  64.858  1.00  0.00     0.000 HD 
HETATM    5  N   UNL     1     -10.638   5.752  66.847  1.00  0.00    -0.284 NA 
HETATM    6  C   UNL     1      -9.709   5.711  67.832  1.00  0.00    -0.125 A  
HETATM    7  C   UNL     1      -8.806   4.710  68.112  1.00  0.00    -0.106 A  
HETATM    8  N   UNL     1      -8.012   5.038  69.183  1.00  0.00    -0.079 NA 
HETATM    9  C   UNL     1      -8.827   3.529  67.277  1.00  0.00    -0.131 C  
HETATM   10  N   UNL     1      -9.795   3.607  66.284  1.00  0.00    -0.412 N  
HETATM   11  O   UNL     1      -8.097   2.550  67.392  1.00  0.00    -0.068 OA 
HETATM   12  C   UNL     1      -8.428   6.233  69.548  1.00  0.00    -0.129 A  
HETATM   13  N   UNL     1      -9.462   6.678  68.763  1.00  0.00    -0.130 NA 
HETATM   14  H   UNL     1      -9.890   2.813  65.651  1.00  0.00     0.000 HD 
ENDROOT
BRANCH  13  15
HETATM   15  C   UNL     1     -10.198   7.911  68.936  1.00  0.00    -0.205 C  
BRANCH  15  16
HETATM   16  O   UNL     1     -11.275   7.774  69.871  1.00  0.00    -0.190 OA 
BRANCH  16  17
HETATM   17  C   UNL     1     -11.488   8.894  70.762  1.00  0.00    -0.275 C  
BRANCH  17  18
HETATM   18  C   UNL     1     -11.096   8.589  72.215  1.00  0.00    -0.360 C  
HETATM   19  H   UNL     1      -9.453   8.163  73.238  1.00  0.00     0.000 HD 
HETATM   20  O   UNL     1      -9.695   8.352  72.338  1.00  0.00    -0.268 OA 
ENDBRANCH  17  18
BRANCH  17  21
HETATM   21  C   UNL     1     -10.637  10.057  70.223  1.00  0.00    -0.295 C  
HETATM   22  O   UNL     1     -11.380  11.277  70.271  1.00  0.00    -0.465 OA 
HETATM   23  H   UNL     1     -10.854  11.995  69.939  1.00  0.00     0.000 HD 
ENDBRANCH  17  21
ENDBRANCH  16  17
ENDBRANCH  15  16
ENDBRANCH  13  15
TORSDOF 5
ENDMDL
MODEL      176
REMARK 921   NORMALIZED FREE ENERGY PREDICTED BY IDOCK:   -3.63 KCAL/MOL
REMARK 922        TOTAL FREE ENERGY PREDICTED BY IDOCK:   -5.18 KCAL/MOL
REMARK 923 INTER-LIGAND FREE ENERGY PREDICTED BY IDOCK:   -4.53 KCAL/MOL
REMARK 924 INTRA-LIGAND FREE ENERGY PREDICTED BY IDOCK:   -0.65 KCAL/MOL
REMARK 927      BINDING AFFINITY PREDICTED BY RF-SCORE:    0.00 PKD
ROOT
HETATM    1  N   UNL     1     -10.066   8.450  66.329  1.00  0.00    -0.455 NA 
HETATM    2  C   UNL     1      -9.922   7.981  67.593  1.00  0.00    -0.180 C  
HETATM    3  H1  UNL     1      -9.502   8.062  65.573  1.00  0.00     0.000 HD 
HETATM    4  H2  UNL     1     -10.739   9.192  66.133  1.00  0.00     0.000 HD 
HETATM    5  N   UNL     1     -10.644   8.479  68.561  1.00  0.00    -0.160 NA 
HETATM    6  C   UNL     1     -10.377   7.926  69.768  1.00  0.00    -0.219 A  
HETATM    7  C   UNL     1      -9.467   6.938  70.071  1.00  0.00    -0.158 A  
HETATM    8  N   UNL     1      -9.470   6.650  71.413  1.00  0.00    -0.158 NA 
HETATM    9  C   UNL     1      -8.684   6.386  68.987  1.00  0.00    -0.123 C  
HETATM   10  N   UNL     1      -8.991   6.975  67.767  1.00  0.00    -0.122 N  
HETATM   11  O   UNL     1      -7.838   5.503  69.084  1.00  0.00    -0.088 OA 
HETATM   12  C   UNL     1     -10.375   7.462  71.922  1.00  0.00    -0.192 A  
HETATM   13  N   UNL     1     -10.957   8.248  70.961  1.00  0.00    -0.239 NA 
HETATM   14  H   UNL     1      -8.494   6.641  66.942  1.00  0.00     0.000 HD 
ENDROOT
BRANCH  13  15
HETATM   15  C   UNL     1     -12.034   9.191  71.165  1.00  0.00    -0.308 C  
BRANCH  15  16
HETATM   16  O   UNL     1     -11.570  10.546  71.201  1.00  0.00    -0.307 OA 
BRANCH  16  17
HETATM   17  C   UNL     1     -12.352  11.505  70.453  1.00  0.00    -0.305 C  
BRANCH  17  18
HETATM   18  C   UNL     1     -12.623  12.800  71.234  1.00  0.00    -0.250 C  
HETATM   19  H   UNL     1     -13.704  13.380  72.791  1.00  0.00     0.000 HD 
HETATM   20  O   UNL     1     -13.536  12.579  72.307  1.00  0.00    -0.530 OA 
ENDBRANCH  17  18
BRANCH  17  21
HETATM   21  C   UNL     1     -11.558  11.823  69.174  1.00  0.00    -0.310 C  
HETATM   22  O   UNL     1     -10.165  11.595  69.386  1.00  0.00    -0.425 OA 
HETATM   23  H   UNL     1      -9.675  11.791  68.596  1.00  0.00     0.000 HD 
ENDBRANCH  17  21
ENDBRANCH  16  17
ENDBRANCH  15  16
ENDBRANCH  13  15
TORSDOF 5
ENDMDL
MODEL      177
REMARK 921   NORMALIZED FREE ENERGY PREDICTED BY IDOCK:   -3.63 KCAL/MOL
REMARK 922        TOTAL FREE ENERGY PREDICTED BY IDOCK:   -5.17 KCAL/MOL
REMARK 923 INTER-LIGAND FREE ENERGY PREDICTED BY IDOCK:   -4.20 KCAL/MOL
REMARK 924 INTRA-LIGAND FREE ENERGY PREDICTED BY IDOCK:   -0.97 KCAL/MOL
REMARK 927      BINDING AFFINITY PREDICTED BY RF-SCORE:    0.00 PKD
ROOT
HETATM    1  N   UNL     1      -7.939   6.946  68.467  1.00  0.00    -0.118 NA 
HETATM    2  C   UNL     1      -9.034   7.260  69.202  1.00  0.00    -0.135 C  
HETATM    3  H1  UNL     1      -7.517   6.021  68.550  1.00  0.00     0.000 HD 
HETATM    4  H2  UNL     1      -7.537   7.635  67.831  1.00  0.00     0.000 HD 
HETATM    5  N   UNL     1      -9.574   8.445  69.096  1.00  0.00    -0.162 NA 
HETATM    6  C   UNL     1     -10.648   8.619  69.904  1.00  0.00    -0.224 A  
HETATM    7  C   UNL     1     -11.207   7.720  70.785  1.00  0.00    -0.271 A  
HETATM    8  N   UNL     1     -12.280   8.267  71.442  1.00  0.00    -0.297 NA 
HETATM    9  C   UNL     1     -10.608   6.407  70.881  1.00  0.00    -0.236 C  
HETATM   10  N   UNL     1      -9.515   6.267  70.035  1.00  0.00    -0.154 N  
HETATM   11  O   UNL     1     -10.982   5.494  71.609  1.00  0.00    -0.238 OA 
HETATM   12  C   UNL     1     -12.370   9.492  70.966  1.00  0.00    -0.282 A  
HETATM   13  N   UNL     1     -11.406   9.747  70.024  1.00  0.00    -0.239 NA 
HETATM   14  H   UNL     1      -9.033   5.368  70.028  1.00  0.00     0.000 HD 
ENDROOT
BRANCH  13  15
HETATM   15  C   UNL     1     -11.265  10.962  69.252  1.00  0.00    -0.265 C  
BRANCH  15  16
HETATM   16  O   UNL     1     -11.588  10.768  67.870  1.00  0.00    -0.504 OA 
BRANCH  16  17
HETATM   17  C   UNL     1     -10.803  11.528  66.922  1.00  0.00    -0.284 C  
BRANCH  17  18
HETATM   18  C   UNL     1      -9.576  12.197  67.558  1.00  0.00    -0.179 C  
HETATM   19  H   UNL     1      -7.624  11.878  67.679  1.00  0.00     0.000 HD 
HETATM   20  O   UNL     1      -8.383  11.464  67.285  1.00  0.00    -0.138 OA 
ENDBRANCH  17  18
BRANCH  17  21
HETATM   21  C   UNL     1     -10.354  10.544  65.828  1.00  0.00    -0.200 C  
HETATM   22  O   UNL     1     -10.116   9.253  66.390  1.00  0.00    -0.271 OA 
HETATM   23  H   UNL     1      -9.839   8.646  65.715  1.00  0.00     0.000 HD 
ENDBRANCH  17  21
ENDBRANCH  16  17
ENDBRANCH  15  16
ENDBRANCH  13  15
TORSDOF 5
ENDMDL
MODEL      178
REMARK 921   NORMALIZED FREE ENERGY PREDICTED BY IDOCK:   -3.62 KCAL/MOL
REMARK 922        TOTAL FREE ENERGY PREDICTED BY IDOCK:   -5.17 KCAL/MOL
REMARK 923 INTER-LIGAND FREE ENERGY PREDICTED BY IDOCK:   -4.64 KCAL/MOL
REMARK 924 INTRA-LIGAND FREE ENERGY PREDICTED BY IDOCK:   -0.53 KCAL/MOL
REMARK 927      BINDING AFFINITY PREDICTED BY RF-SCORE:    0.00 PKD
ROOT
HETATM    1  N   UNL     1     -10.125   9.808  68.742  1.00  0.00    -0.167 NA 
HETATM    2  C   UNL     1      -9.603   9.162  67.670  1.00  0.00    -0.149 C  
HETATM    3  H1  UNL     1     -10.182   9.335  69.644  1.00  0.00     0.000 HD 
HETATM    4  H2  UNL     1     -10.461  10.766  68.646  1.00  0.00     0.000 HD 
HETATM    5  N   UNL     1      -9.531   9.768  66.514  1.00  0.00    -0.167 NA 
HETATM    6  C   UNL     1      -9.006   8.992  65.535  1.00  0.00    -0.204 A  
HETATM    7  C   UNL     1      -8.558   7.693  65.623  1.00  0.00    -0.123 A  
HETATM    8  N   UNL     1      -8.108   7.237  64.410  1.00  0.00    -0.107 NA 
HETATM    9  C   UNL     1      -8.630   7.041  66.912  1.00  0.00    -0.120 C  
HETATM   10  N   UNL     1      -9.169   7.869  67.889  1.00  0.00    -0.134 N  
HETATM   11  O   UNL     1      -8.274   5.894  67.163  1.00  0.00    -0.105 OA 
HETATM   12  C   UNL     1      -8.284   8.251  63.589  1.00  0.00    -0.082 A  
HETATM   13  N   UNL     1      -8.818   9.341  64.229  1.00  0.00    -0.185 NA 
HETATM   14  H   UNL     1      -9.250   7.495  68.835  1.00  0.00     0.000 HD 
ENDROOT
BRANCH  13  15
HETATM   15  C   UNL     1      -9.070  10.639  63.642  1.00  0.00    -0.232 C  
BRANCH  15  16
HETATM   16  O   UNL     1     -10.459  10.989  63.671  1.00  0.00    -0.363 OA 
BRANCH  16  17
HETATM   17  C   UNL     1     -10.758  12.403  63.654  1.00  0.00    -0.455 C  
BRANCH  17  18
HETATM   18  C   UNL     1     -12.237  12.702  63.367  1.00  0.00    -0.517 C  
HETATM   19  H   UNL     1     -13.616  14.000  63.950  1.00  0.00     0.000 HD 
HETATM   20  O   UNL     1     -12.700  13.816  64.128  1.00  0.00    -0.664 OA 
ENDBRANCH  17  18
BRANCH  17  21
HETATM   21  C   UNL     1     -10.372  12.955  65.038  1.00  0.00    -0.315 C  
HETATM   22  O   UNL     1      -9.828  14.269  64.912  1.00  0.00    -0.545 OA 
HETATM   23  H   UNL     1      -9.590  14.610  65.767  1.00  0.00     0.000 HD 
ENDBRANCH  17  21
ENDBRANCH  16  17
ENDBRANCH  15  16
ENDBRANCH  13  15
TORSDOF 5
ENDMDL
MODEL      179
REMARK 921   NORMALIZED FREE ENERGY PREDICTED BY IDOCK:   -3.62 KCAL/MOL
REMARK 922        TOTAL FREE ENERGY PREDICTED BY IDOCK:   -5.16 KCAL/MOL
REMARK 923 INTER-LIGAND FREE ENERGY PREDICTED BY IDOCK:   -4.58 KCAL/MOL
REMARK 924 INTRA-LIGAND FREE ENERGY PREDICTED BY IDOCK:   -0.59 KCAL/MOL
REMARK 927      BINDING AFFINITY PREDICTED BY RF-SCORE:    0.00 PKD
ROOT
HETATM    1  N   UNL     1     -11.095  17.253  64.808  1.00  0.00    -0.920 NA 
HETATM    2  C   UNL     1     -10.052  16.685  65.464  1.00  0.00    -0.134 C  
HETATM    3  H1  UNL     1     -11.071  18.246  64.577  1.00  0.00     0.000 HD 
HETATM    4  H2  UNL     1     -11.902  16.687  64.547  1.00  0.00     0.000 HD 
HETATM    5  N   UNL     1     -10.082  15.413  65.761  1.00  0.00    -0.334 NA 
HETATM    6  C   UNL     1      -8.982  14.993  66.431  1.00  0.00    -0.251 A  
HETATM    7  C   UNL     1      -7.884  15.730  66.814  1.00  0.00    -0.213 A  
HETATM    8  N   UNL     1      -6.976  14.956  67.493  1.00  0.00    -0.182 NA 
HETATM    9  C   UNL     1      -7.858  17.134  66.466  1.00  0.00    -0.290 C  
HETATM   10  N   UNL     1      -8.999  17.523  65.777  1.00  0.00     0.134 N  
HETATM   11  O   UNL     1      -6.959  17.926  66.728  1.00  0.00    -0.171 OA 
HETATM   12  C   UNL     1      -7.521  13.758  67.524  1.00  0.00    -0.169 A  
HETATM   13  N   UNL     1      -8.735  13.730  66.885  1.00  0.00    -0.196 NA 
HETATM   14  H   UNL     1      -9.065  18.497  65.481  1.00  0.00     0.000 HD 
ENDROOT
BRANCH  13  15
HETATM   15  C   UNL     1      -9.562  12.563  66.672  1.00  0.00    -0.239 C  
BRANCH  15  16
HETATM   16  O   UNL     1      -8.819  11.459  66.141  1.00  0.00    -0.193 OA 
BRANCH  16  17
HETATM   17  C   UNL     1      -9.439  10.743  65.049  1.00  0.00    -0.241 C  
BRANCH  17  18
HETATM   18  C   UNL     1     -10.231  11.658  64.103  1.00  0.00    -0.326 C  
HETATM   19  H   UNL     1      -9.933  12.622  62.398  1.00  0.00     0.000 HD 
HETATM   20  O   UNL     1      -9.443  12.056  62.983  1.00  0.00    -0.332 OA 
ENDBRANCH  17  18
BRANCH  17  21
HETATM   21  C   UNL     1      -8.306  10.045  64.276  1.00  0.00    -0.169 C  
HETATM   22  O   UNL     1      -7.064  10.709  64.513  1.00  0.00    -0.351 OA 
HETATM   23  H   UNL     1      -6.365  10.278  64.035  1.00  0.00     0.000 HD 
ENDBRANCH  17  21
ENDBRANCH  16  17
ENDBRANCH  15  16
ENDBRANCH  13  15
TORSDOF 5
ENDMDL
MODEL      180
REMARK 921   NORMALIZED FREE ENERGY PREDICTED BY IDOCK:   -3.59 KCAL/MOL
REMARK 922        TOTAL FREE ENERGY PREDICTED BY IDOCK:   -5.12 KCAL/MOL
REMARK 923 INTER-LIGAND FREE ENERGY PREDICTED BY IDOCK:   -4.65 KCAL/MOL
REMARK 924 INTRA-LIGAND FREE ENERGY PREDICTED BY IDOCK:   -0.46 KCAL/MOL
REMARK 927      BINDING AFFINITY PREDICTED BY RF-SCORE:    0.00 PKD
ROOT
HETATM    1  N   UNL     1      -9.885   4.080  70.622  1.00  0.00    -0.194 NA 
HETATM    2  C   UNL     1     -10.153   5.366  70.961  1.00  0.00    -0.216 C  
HETATM    3  H1  UNL     1      -9.822   3.365  71.347  1.00  0.00     0.000 HD 
HETATM    4  H2  UNL     1      -9.747   3.829  69.644  1.00  0.00     0.000 HD 
HETATM    5  N   UNL     1     -10.234   6.282  70.033  1.00  0.00    -0.180 NA 
HETATM    6  C   UNL     1     -10.487   7.520  70.523  1.00  0.00    -0.219 A  
HETATM    7  C   UNL     1     -10.663   7.898  71.836  1.00  0.00    -0.237 A  
HETATM    8  N   UNL     1     -10.886   9.249  71.941  1.00  0.00    -0.299 NA 
HETATM    9  C   UNL     1     -10.585   6.871  72.851  1.00  0.00    -0.261 C  
HETATM   10  N   UNL     1     -10.329   5.617  72.308  1.00  0.00    -0.199 N  
HETATM   11  O   UNL     1     -10.719   7.037  74.058  1.00  0.00    -0.263 OA 
HETATM   12  C   UNL     1     -10.842   9.687  70.699  1.00  0.00    -0.320 A  
HETATM   13  N   UNL     1     -10.612   8.673  69.805  1.00  0.00    -0.224 NA 
HETATM   14  H   UNL     1     -10.267   4.827  72.950  1.00  0.00     0.000 HD 
ENDROOT
BRANCH  13  15
HETATM   15  C   UNL     1     -10.579   8.796  68.364  1.00  0.00    -0.137 C  
BRANCH  15  16
HETATM   16  O   UNL     1     -10.151  10.096  67.939  1.00  0.00    -0.163 OA 
BRANCH  16  17
HETATM   17  C   UNL     1     -10.882  10.674  66.833  1.00  0.00    -0.205 C  
BRANCH  17  18
HETATM   18  C   UNL     1     -11.620  11.967  67.211  1.00  0.00    -0.293 C  
HETATM   19  H   UNL     1     -12.730  13.343  66.316  1.00  0.00     0.000 HD 
HETATM   20  O   UNL     1     -12.273  12.542  66.082  1.00  0.00    -0.609 OA 
ENDBRANCH  17  18
BRANCH  17  21
HETATM   21  C   UNL     1      -9.854  10.963  65.725  1.00  0.00    -0.237 C  
HETATM   22  O   UNL     1      -9.379  12.306  65.828  1.00  0.00    -0.398 OA 
HETATM   23  H   UNL     1      -8.745  12.484  65.144  1.00  0.00     0.000 HD 
ENDBRANCH  17  21
ENDBRANCH  16  17
ENDBRANCH  15  16
ENDBRANCH  13  15
TORSDOF 5
ENDMDL
MODEL      181
REMARK 921   NORMALIZED FREE ENERGY PREDICTED BY IDOCK:   -3.56 KCAL/MOL
REMARK 922        TOTAL FREE ENERGY PREDICTED BY IDOCK:   -5.08 KCAL/MOL
REMARK 923 INTER-LIGAND FREE ENERGY PREDICTED BY IDOCK:   -4.61 KCAL/MOL
REMARK 924 INTRA-LIGAND FREE ENERGY PREDICTED BY IDOCK:   -0.47 KCAL/MOL
REMARK 927      BINDING AFFINITY PREDICTED BY RF-SCORE:    0.00 PKD
ROOT
HETATM    1  N   UNL     1     -10.148   5.302  67.740  1.00  0.00    -0.163 NA 
HETATM    2  C   UNL     1     -10.185   5.145  69.087  1.00  0.00    -0.189 C  
HETATM    3  H1  UNL     1      -9.697   4.597  67.157  1.00  0.00     0.000 HD 
HETATM    4  H2  UNL     1     -10.573   6.123  67.311  1.00  0.00     0.000 HD 
HETATM    5  N   UNL     1     -10.763   6.048  69.834  1.00  0.00    -0.291 NA 
HETATM    6  C   UNL     1     -10.704   5.766  71.158  1.00  0.00    -0.261 A  
HETATM    7  C   UNL     1     -10.127   4.677  71.773  1.00  0.00    -0.191 A  
HETATM    8  N   UNL     1     -10.255   4.750  73.138  1.00  0.00    -0.161 NA 
HETATM    9  C   UNL     1      -9.503   3.679  70.933  1.00  0.00    -0.165 C  
HETATM   10  N   UNL     1      -9.589   4.002  69.584  1.00  0.00    -0.196 N  
HETATM   11  O   UNL     1      -8.950   2.654  71.318  1.00  0.00    -0.076 OA 
HETATM   12  C   UNL     1     -10.903   5.877  73.350  1.00  0.00    -0.245 A  
HETATM   13  N   UNL     1     -11.204   6.522  72.178  1.00  0.00    -0.258 NA 
HETATM   14  H   UNL     1      -9.184   3.349  68.914  1.00  0.00     0.000 HD 
ENDROOT
BRANCH  13  15
HETATM   15  C   UNL     1     -11.970   7.742  72.046  1.00  0.00    -0.308 C  
BRANCH  15  16
HETATM   16  O   UNL     1     -11.135   8.907  72.014  1.00  0.00    -0.356 OA 
BRANCH  16  17
HETATM   17  C   UNL     1     -11.600   9.998  71.187  1.00  0.00    -0.378 C  
BRANCH  17  18
HETATM   18  C   UNL     1     -11.215   9.838  69.709  1.00  0.00    -0.202 C  
HETATM   19  H   UNL     1      -9.649   9.239  68.653  1.00  0.00     0.000 HD 
HETATM   20  O   UNL     1      -9.887   9.338  69.568  1.00  0.00    -0.169 OA 
ENDBRANCH  17  18
BRANCH  17  21
HETATM   21  C   UNL     1     -13.132  10.040  71.327  1.00  0.00    -0.402 C  
HETATM   22  O   UNL     1     -13.517  11.070  72.239  1.00  0.00    -0.603 OA 
HETATM   23  H   UNL     1     -14.462  11.096  72.325  1.00  0.00     0.000 HD 
ENDBRANCH  17  21
ENDBRANCH  16  17
ENDBRANCH  15  16
ENDBRANCH  13  15
TORSDOF 5
ENDMDL
MODEL      182
REMARK 921   NORMALIZED FREE ENERGY PREDICTED BY IDOCK:   -3.56 KCAL/MOL
REMARK 922        TOTAL FREE ENERGY PREDICTED BY IDOCK:   -5.08 KCAL/MOL
REMARK 923 INTER-LIGAND FREE ENERGY PREDICTED BY IDOCK:   -4.80 KCAL/MOL
REMARK 924 INTRA-LIGAND FREE ENERGY PREDICTED BY IDOCK:   -0.28 KCAL/MOL
REMARK 927      BINDING AFFINITY PREDICTED BY RF-SCORE:    0.00 PKD
ROOT
HETATM    1  N   UNL     1     -12.019   5.953  72.469  1.00  0.00    -0.497 NA 
HETATM    2  C   UNL     1     -11.828   7.122  71.808  1.00  0.00    -0.303 C  
HETATM    3  H1  UNL     1     -12.653   5.916  73.267  1.00  0.00     0.000 HD 
HETATM    4  H2  UNL     1     -11.528   5.111  72.168  1.00  0.00     0.000 HD 
HETATM    5  N   UNL     1     -11.016   7.169  70.786  1.00  0.00    -0.245 NA 
HETATM    6  C   UNL     1     -10.913   8.405  70.240  1.00  0.00    -0.232 A  
HETATM    7  C   UNL     1     -11.547   9.565  70.629  1.00  0.00    -0.283 A  
HETATM    8  N   UNL     1     -11.176  10.625  69.840  1.00  0.00    -0.288 NA 
HETATM    9  C   UNL     1     -12.454   9.494  71.753  1.00  0.00    -0.401 C  
HETATM   10  N   UNL     1     -12.535   8.211  72.280  1.00  0.00    -0.468 N  
HETATM   11  O   UNL     1     -13.097  10.427  72.222  1.00  0.00    -0.397 OA 
HETATM   12  C   UNL     1     -10.320  10.112  68.979  1.00  0.00    -0.212 A  
HETATM   13  N   UNL     1     -10.136   8.768  69.178  1.00  0.00    -0.192 NA 
HETATM   14  H   UNL     1     -13.161   8.063  73.072  1.00  0.00     0.000 HD 
ENDROOT
BRANCH  13  15
HETATM   15  C   UNL     1      -9.324   7.887  68.368  1.00  0.00    -0.140 C  
BRANCH  15  16
HETATM   16  O   UNL     1      -9.933   7.597  67.104  1.00  0.00    -0.185 OA 
BRANCH  16  17
HETATM   17  C   UNL     1      -9.212   6.681  66.248  1.00  0.00    -0.127 C  
BRANCH  17  18
HETATM   18  C   UNL     1      -7.713   6.608  66.573  1.00  0.00    -0.102 C  
HETATM   19  H   UNL     1      -5.992   6.632  65.591  1.00  0.00     0.000 HD 
HETATM   20  O   UNL     1      -6.919   6.677  65.389  1.00  0.00    -0.053 OA 
ENDBRANCH  17  18
BRANCH  17  21
HETATM   21  C   UNL     1      -9.856   5.296  66.438  1.00  0.00    -0.186 C  
HETATM   22  O   UNL     1     -10.713   4.994  65.335  1.00  0.00    -0.487 OA 
HETATM   23  H   UNL     1     -11.111   4.139  65.452  1.00  0.00     0.000 HD 
ENDBRANCH  17  21
ENDBRANCH  16  17
ENDBRANCH  15  16
ENDBRANCH  13  15
TORSDOF 5
ENDMDL
MODEL      183
REMARK 921   NORMALIZED FREE ENERGY PREDICTED BY IDOCK:   -3.56 KCAL/MOL
REMARK 922        TOTAL FREE ENERGY PREDICTED BY IDOCK:   -5.08 KCAL/MOL
REMARK 923 INTER-LIGAND FREE ENERGY PREDICTED BY IDOCK:   -4.66 KCAL/MOL
REMARK 924 INTRA-LIGAND FREE ENERGY PREDICTED BY IDOCK:   -0.42 KCAL/MOL
REMARK 927      BINDING AFFINITY PREDICTED BY RF-SCORE:    0.00 PKD
ROOT
HETATM    1  N   UNL     1      -9.138   9.518  70.926  1.00  0.00    -0.324 NA 
HETATM    2  C   UNL     1      -9.407   9.701  69.609  1.00  0.00    -0.211 C  
HETATM    3  H1  UNL     1      -9.353   8.626  71.371  1.00  0.00     0.000 HD 
HETATM    4  H2  UNL     1      -8.720  10.272  71.471  1.00  0.00     0.000 HD 
HETATM    5  N   UNL     1      -9.131  10.844  69.039  1.00  0.00    -0.140 NA 
HETATM    6  C   UNL     1      -9.472  10.885  67.728  1.00  0.00    -0.157 A  
HETATM    7  C   UNL     1     -10.051   9.894  66.966  1.00  0.00    -0.218 A  
HETATM    8  N   UNL     1     -10.263  10.316  65.677  1.00  0.00    -0.261 NA 
HETATM    9  C   UNL     1     -10.337   8.630  67.607  1.00  0.00    -0.254 C  
HETATM   10  N   UNL     1      -9.969   8.626  68.947  1.00  0.00    -0.184 N  
HETATM   11  O   UNL     1     -10.845   7.649  67.075  1.00  0.00    -0.334 OA 
HETATM   12  C   UNL     1      -9.818  11.556  65.658  1.00  0.00    -0.236 A  
HETATM   13  N   UNL     1      -9.321  11.941  66.877  1.00  0.00    -0.191 NA 
HETATM   14  H   UNL     1     -10.124   7.770  69.479  1.00  0.00     0.000 HD 
ENDROOT
BRANCH  13  15
HETATM   15  C   UNL     1      -8.691  13.206  67.183  1.00  0.00    -0.213 C  
BRANCH  15  16
HETATM   16  O   UNL     1      -9.417  14.318  66.644  1.00  0.00    -0.264 OA 
BRANCH  16  17
HETATM   17  C   UNL     1      -9.157  15.602  67.256  1.00  0.00    -0.205 C  
BRANCH  17  18
HETATM   18  C   UNL     1      -8.040  16.388  66.553  1.00  0.00    -0.310 C  
HETATM   19  H   UNL     1      -7.859  18.036  65.468  1.00  0.00     0.000 HD 
HETATM   20  O   UNL     1      -8.551  17.550  65.903  1.00  0.00    -0.528 OA 
ENDBRANCH  17  18
BRANCH  17  21
HETATM   21  C   UNL     1     -10.473  16.398  67.196  1.00  0.00    -0.297 C  
HETATM   22  O   UNL     1     -10.399  17.542  68.048  1.00  0.00    -0.331 OA 
HETATM   23  H   UNL     1     -11.212  18.033  68.011  1.00  0.00     0.000 HD 
ENDBRANCH  17  21
ENDBRANCH  16  17
ENDBRANCH  15  16
ENDBRANCH  13  15
TORSDOF 5
ENDMDL
MODEL      184
REMARK 921   NORMALIZED FREE ENERGY PREDICTED BY IDOCK:   -3.54 KCAL/MOL
REMARK 922        TOTAL FREE ENERGY PREDICTED BY IDOCK:   -5.06 KCAL/MOL
REMARK 923 INTER-LIGAND FREE ENERGY PREDICTED BY IDOCK:   -4.58 KCAL/MOL
REMARK 924 INTRA-LIGAND FREE ENERGY PREDICTED BY IDOCK:   -0.49 KCAL/MOL
REMARK 927      BINDING AFFINITY PREDICTED BY RF-SCORE:    0.00 PKD
ROOT
HETATM    1  N   UNL     1      -6.790  10.008  70.941  1.00  0.00    -0.340 NA 
HETATM    2  C   UNL     1      -7.648   9.508  70.018  1.00  0.00    -0.133 C  
HETATM    3  H1  UNL     1      -6.349   9.385  71.618  1.00  0.00     0.000 HD 
HETATM    4  H2  UNL     1      -6.585  11.007  70.959  1.00  0.00     0.000 HD 
HETATM    5  N   UNL     1      -8.213  10.306  69.151  1.00  0.00    -0.140 NA 
HETATM    6  C   UNL     1      -9.058   9.668  68.306  1.00  0.00    -0.123 A  
HETATM    7  C   UNL     1      -9.371   8.328  68.264  1.00  0.00    -0.134 A  
HETATM    8  N   UNL     1     -10.284   8.059  67.275  1.00  0.00    -0.246 NA 
HETATM    9  C   UNL     1      -8.727   7.454  69.220  1.00  0.00    -0.137 C  
HETATM   10  N   UNL     1      -7.866   8.144  70.064  1.00  0.00    -0.100 N  
HETATM   11  O   UNL     1      -8.891   6.242  69.316  1.00  0.00    -0.123 OA 
HETATM   12  C   UNL     1     -10.527   9.230  66.723  1.00  0.00    -0.193 A  
HETATM   13  N   UNL     1      -9.799  10.234  67.310  1.00  0.00    -0.176 NA 
HETATM   14  H   UNL     1      -7.359   7.606  70.766  1.00  0.00     0.000 HD 
ENDROOT
BRANCH  13  15
HETATM   15  C   UNL     1      -9.771  11.621  66.901  1.00  0.00    -0.195 C  
BRANCH  15  16
HETATM   16  O   UNL     1     -11.020  12.048  66.342  1.00  0.00    -0.269 OA 
BRANCH  16  17
HETATM   17  C   UNL     1     -10.983  13.265  65.563  1.00  0.00    -0.282 C  
BRANCH  17  18
HETATM   18  C   UNL     1     -10.979  13.010  64.048  1.00  0.00    -0.389 C  
HETATM   19  H   UNL     1     -11.602  11.611  62.791  1.00  0.00     0.000 HD 
HETATM   20  O   UNL     1     -11.604  11.769  63.728  1.00  0.00    -0.414 OA 
ENDBRANCH  17  18
BRANCH  17  21
HETATM   21  C   UNL     1     -12.230  14.079  65.953  1.00  0.00    -0.456 C  
HETATM   22  O   UNL     1     -13.277  13.863  65.006  1.00  0.00    -0.729 OA 
HETATM   23  H   UNL     1     -14.047  14.366  65.247  1.00  0.00     0.000 HD 
ENDBRANCH  17  21
ENDBRANCH  16  17
ENDBRANCH  15  16
ENDBRANCH  13  15
TORSDOF 5
ENDMDL
MODEL      185
REMARK 921   NORMALIZED FREE ENERGY PREDICTED BY IDOCK:   -3.52 KCAL/MOL
REMARK 922        TOTAL FREE ENERGY PREDICTED BY IDOCK:   -5.03 KCAL/MOL
REMARK 923 INTER-LIGAND FREE ENERGY PREDICTED BY IDOCK:   -4.69 KCAL/MOL
REMARK 924 INTRA-LIGAND FREE ENERGY PREDICTED BY IDOCK:   -0.35 KCAL/MOL
REMARK 927      BINDING AFFINITY PREDICTED BY RF-SCORE:    0.00 PKD
ROOT
HETATM    1  N   UNL     1     -10.256  10.090  66.704  1.00  0.00    -0.226 NA 
HETATM    2  C   UNL     1     -10.461   8.972  67.445  1.00  0.00    -0.269 C  
HETATM    3  H1  UNL     1     -10.188  10.023  65.689  1.00  0.00     0.000 HD 
HETATM    4  H2  UNL     1     -10.170  10.997  67.162  1.00  0.00     0.000 HD 
HETATM    5  N   UNL     1     -10.548   9.058  68.746  1.00  0.00    -0.201 NA 
HETATM    6  C   UNL     1     -10.733   7.860  69.351  1.00  0.00    -0.168 A  
HETATM    7  C   UNL     1     -10.837   6.617  68.768  1.00  0.00    -0.267 A  
HETATM    8  N   UNL     1     -11.005   5.635  69.712  1.00  0.00    -0.315 NA 
HETATM    9  C   UNL     1     -10.754   6.539  67.326  1.00  0.00    -0.356 C  
HETATM   10  N   UNL     1     -10.569   7.787  66.744  1.00  0.00    -0.460 N  
HETATM   11  O   UNL     1     -10.830   5.517  66.652  1.00  0.00    -0.288 OA 
HETATM   12  C   UNL     1     -10.999   6.278  70.861  1.00  0.00    -0.286 A  
HETATM   13  N   UNL     1     -10.846   7.630  70.691  1.00  0.00    -0.233 NA 
HETATM   14  H   UNL     1     -10.508   7.831  65.727  1.00  0.00     0.000 HD 
ENDROOT
BRANCH  13  15
HETATM   15  C   UNL     1     -10.870   8.631  71.735  1.00  0.00    -0.325 C  
BRANCH  15  16
HETATM   16  O   UNL     1      -9.554   9.000  72.165  1.00  0.00    -0.312 OA 
BRANCH  16  17
HETATM   17  C   UNL     1      -8.666   7.909  72.499  1.00  0.00    -0.154 C  
BRANCH  17  18
HETATM   18  C   UNL     1      -7.343   7.951  71.720  1.00  0.00    -0.073 C  
HETATM   19  H   UNL     1      -6.597   7.197  70.046  1.00  0.00     0.000 HD 
HETATM   20  O   UNL     1      -7.416   7.171  70.528  1.00  0.00    -0.083 OA 
ENDBRANCH  17  18
BRANCH  17  21
HETATM   21  C   UNL     1      -8.388   8.009  74.009  1.00  0.00    -0.265 C  
HETATM   22  O   UNL     1      -7.408   9.017  74.265  1.00  0.00    -0.410 OA 
HETATM   23  H   UNL     1      -7.236   9.079  75.197  1.00  0.00     0.000 HD 
ENDBRANCH  17  21
ENDBRANCH  16  17
ENDBRANCH  15  16
ENDBRANCH  13  15
TORSDOF 5
ENDMDL
MODEL      186
REMARK 921   NORMALIZED FREE ENERGY PREDICTED BY IDOCK:   -3.52 KCAL/MOL
REMARK 922        TOTAL FREE ENERGY PREDICTED BY IDOCK:   -5.03 KCAL/MOL
REMARK 923 INTER-LIGAND FREE ENERGY PREDICTED BY IDOCK:   -4.66 KCAL/MOL
REMARK 924 INTRA-LIGAND FREE ENERGY PREDICTED BY IDOCK:   -0.37 KCAL/MOL
REMARK 927      BINDING AFFINITY PREDICTED BY RF-SCORE:    0.00 PKD
ROOT
HETATM    1  N   UNL     1      -8.759   7.193  66.650  1.00  0.00    -0.123 NA 
HETATM    2  C   UNL     1      -8.991   8.206  65.779  1.00  0.00    -0.119 C  
HETATM    3  H1  UNL     1      -8.200   6.390  66.360  1.00  0.00     0.000 HD 
HETATM    4  H2  UNL     1      -9.142   7.233  67.594  1.00  0.00     0.000 HD 
HETATM    5  N   UNL     1      -9.707   9.235  66.150  1.00  0.00    -0.260 NA 
HETATM    6  C   UNL     1      -9.870  10.156  65.170  1.00  0.00    -0.325 A  
HETATM    7  C   UNL     1      -9.382  10.127  63.882  1.00  0.00    -0.287 A  
HETATM    8  N   UNL     1      -9.772  11.236  63.175  1.00  0.00    -0.363 NA 
HETATM    9  C   UNL     1      -8.579   8.989  63.490  1.00  0.00    -0.133 C  
HETATM   10  N   UNL     1      -8.432   8.071  64.523  1.00  0.00    -0.377 N  
HETATM   11  O   UNL     1      -8.069   8.810  62.389  1.00  0.00    -0.141 OA 
HETATM   12  C   UNL     1     -10.495  11.933  64.027  1.00  0.00    -0.373 A  
HETATM   13  N   UNL     1     -10.575  11.321  65.252  1.00  0.00    -0.275 NA 
HETATM   14  H   UNL     1      -7.871   7.239  64.341  1.00  0.00     0.000 HD 
ENDROOT
BRANCH  13  15
HETATM   15  C   UNL     1     -11.226  11.849  66.431  1.00  0.00    -0.331 C  
BRANCH  15  16
HETATM   16  O   UNL     1     -10.622  13.065  66.887  1.00  0.00    -0.252 OA 
BRANCH  16  17
HETATM   17  C   UNL     1     -10.320  13.133  68.300  1.00  0.00    -0.252 C  
BRANCH  17  18
HETATM   18  C   UNL     1     -10.835  14.419  68.963  1.00  0.00    -0.252 C  
HETATM   19  H   UNL     1     -10.078  16.018  69.857  1.00  0.00     0.000 HD 
HETATM   20  O   UNL     1      -9.759  15.222  69.446  1.00  0.00    -0.237 OA 
ENDBRANCH  17  18
BRANCH  17  21
HETATM   21  C   UNL     1     -10.980  11.907  68.954  1.00  0.00    -0.238 C  
HETATM   22  O   UNL     1     -12.016  12.320  69.847  1.00  0.00    -0.324 OA 
HETATM   23  H   UNL     1     -12.423  11.563  70.251  1.00  0.00     0.000 HD 
ENDBRANCH  17  21
ENDBRANCH  16  17
ENDBRANCH  15  16
ENDBRANCH  13  15
TORSDOF 5
ENDMDL
MODEL      187
REMARK 921   NORMALIZED FREE ENERGY PREDICTED BY IDOCK:   -3.51 KCAL/MOL
REMARK 922        TOTAL FREE ENERGY PREDICTED BY IDOCK:   -5.01 KCAL/MOL
REMARK 923 INTER-LIGAND FREE ENERGY PREDICTED BY IDOCK:   -4.26 KCAL/MOL
REMARK 924 INTRA-LIGAND FREE ENERGY PREDICTED BY IDOCK:   -0.75 KCAL/MOL
REMARK 927      BINDING AFFINITY PREDICTED BY RF-SCORE:    0.00 PKD
ROOT
HETATM    1  N   UNL     1     -11.217   5.300  66.060  1.00  0.00    -0.772 NA 
HETATM    2  C   UNL     1     -10.306   5.997  66.785  1.00  0.00    -0.238 C  
HETATM    3  H1  UNL     1     -10.905   4.595  65.392  1.00  0.00     0.000 HD 
HETATM    4  H2  UNL     1     -12.213   5.480  66.183  1.00  0.00     0.000 HD 
HETATM    5  N   UNL     1     -10.706   6.900  67.640  1.00  0.00    -0.257 NA 
HETATM    6  C   UNL     1      -9.685   7.525  68.275  1.00  0.00    -0.155 A  
HETATM    7  C   UNL     1      -8.332   7.319  68.123  1.00  0.00    -0.124 A  
HETATM    8  N   UNL     1      -7.605   8.160  68.929  1.00  0.00    -0.096 NA 
HETATM    9  C   UNL     1      -7.905   6.307  67.183  1.00  0.00    -0.105 C  
HETATM   10  N   UNL     1      -8.979   5.686  66.558  1.00  0.00    -0.122 N  
HETATM   11  O   UNL     1      -6.745   5.998  66.931  1.00  0.00    -0.054 OA 
HETATM   12  C   UNL     1      -8.512   8.873  69.564  1.00  0.00    -0.128 A  
HETATM   13  N   UNL     1      -9.787   8.517  69.206  1.00  0.00    -0.181 NA 
HETATM   14  H   UNL     1      -8.774   4.949  65.883  1.00  0.00     0.000 HD 
ENDROOT
BRANCH  13  15
HETATM   15  C   UNL     1     -11.012   9.048  69.765  1.00  0.00    -0.166 C  
BRANCH  15  16
HETATM   16  O   UNL     1     -10.863   9.426  71.139  1.00  0.00    -0.303 OA 
BRANCH  16  17
HETATM   17  C   UNL     1     -11.626   8.655  72.096  1.00  0.00    -0.370 C  
BRANCH  17  18
HETATM   18  C   UNL     1     -12.622   7.692  71.434  1.00  0.00    -0.333 C  
HETATM   19  H   UNL     1     -13.007   5.748  71.430  1.00  0.00     0.000 HD 
HETATM   20  O   UNL     1     -12.390   6.344  71.840  1.00  0.00    -0.345 OA 
ENDBRANCH  17  18
BRANCH  17  21
HETATM   21  C   UNL     1     -10.610   7.862  72.937  1.00  0.00    -0.368 C  
HETATM   22  O   UNL     1      -9.754   7.097  72.087  1.00  0.00    -0.148 OA 
HETATM   23  H   UNL     1      -9.127   6.607  72.606  1.00  0.00     0.000 HD 
ENDBRANCH  17  21
ENDBRANCH  16  17
ENDBRANCH  15  16
ENDBRANCH  13  15
TORSDOF 5
ENDMDL
MODEL      188
REMARK 921   NORMALIZED FREE ENERGY PREDICTED BY IDOCK:   -3.46 KCAL/MOL
REMARK 922        TOTAL FREE ENERGY PREDICTED BY IDOCK:   -4.96 KCAL/MOL
REMARK 923 INTER-LIGAND FREE ENERGY PREDICTED BY IDOCK:   -4.38 KCAL/MOL
REMARK 924 INTRA-LIGAND FREE ENERGY PREDICTED BY IDOCK:   -0.58 KCAL/MOL
REMARK 927      BINDING AFFINITY PREDICTED BY RF-SCORE:    0.00 PKD
ROOT
HETATM    1  N   UNL     1     -10.920  17.183  69.626  1.00  0.00    -0.280 NA 
HETATM    2  C   UNL     1      -9.785  16.647  69.113  1.00  0.00    -0.226 C  
HETATM    3  H1  UNL     1     -11.004  18.194  69.730  1.00  0.00     0.000 HD 
HETATM    4  H2  UNL     1     -11.689  16.575  69.908  1.00  0.00     0.000 HD 
HETATM    5  N   UNL     1      -9.676  15.352  68.980  1.00  0.00    -0.224 NA 
HETATM    6  C   UNL     1      -8.481  14.964  68.472  1.00  0.00    -0.163 A  
HETATM    7  C   UNL     1      -7.417  15.753  68.097  1.00  0.00    -0.124 A  
HETATM    8  N   UNL     1      -6.369  14.993  67.642  1.00  0.00    -0.241 NA 
HETATM    9  C   UNL     1      -7.557  17.186  68.236  1.00  0.00    -0.224 C  
HETATM   10  N   UNL     1      -8.796  17.543  68.754  1.00  0.00    -0.255 N  
HETATM   11  O   UNL     1      -6.711  18.025  67.947  1.00  0.00    -0.186 OA 
HETATM   12  C   UNL     1      -6.793  13.750  67.744  1.00  0.00    -0.173 A  
HETATM   13  N   UNL     1      -8.072  13.684  68.234  1.00  0.00    -0.149 NA 
HETATM   14  H   UNL     1      -8.988  18.537  68.878  1.00  0.00     0.000 HD 
ENDROOT
BRANCH  13  15
HETATM   15  C   UNL     1      -8.863  12.484  68.401  1.00  0.00    -0.123 C  
BRANCH  15  16
HETATM   16  O   UNL     1      -8.984  11.740  67.183  1.00  0.00    -0.166 OA 
BRANCH  16  17
HETATM   17  C   UNL     1     -10.325  11.348  66.809  1.00  0.00    -0.234 C  
BRANCH  17  18
HETATM   18  C   UNL     1     -11.114  10.724  67.970  1.00  0.00    -0.299 C  
HETATM   19  H   UNL     1     -12.700  11.162  69.074  1.00  0.00     0.000 HD 
HETATM   20  O   UNL     1     -12.212  11.548  68.356  1.00  0.00    -0.540 OA 
ENDBRANCH  17  18
BRANCH  17  21
HETATM   21  C   UNL     1     -11.038  12.620  66.316  1.00  0.00    -0.293 C  
HETATM   22  O   UNL     1     -12.049  12.282  65.366  1.00  0.00    -0.479 OA 
HETATM   23  H   UNL     1     -12.489  13.068  65.061  1.00  0.00     0.000 HD 
ENDBRANCH  17  21
ENDBRANCH  16  17
ENDBRANCH  15  16
ENDBRANCH  13  15
TORSDOF 5
ENDMDL
MODEL      189
REMARK 921   NORMALIZED FREE ENERGY PREDICTED BY IDOCK:   -3.43 KCAL/MOL
REMARK 922        TOTAL FREE ENERGY PREDICTED BY IDOCK:   -4.92 KCAL/MOL
REMARK 923 INTER-LIGAND FREE ENERGY PREDICTED BY IDOCK:   -4.30 KCAL/MOL
REMARK 924 INTRA-LIGAND FREE ENERGY PREDICTED BY IDOCK:   -0.62 KCAL/MOL
REMARK 927      BINDING AFFINITY PREDICTED BY RF-SCORE:    0.00 PKD
ROOT
HETATM    1  N   UNL     1      -7.178  10.322  70.322  1.00  0.00    -0.318 NA 
HETATM    2  C   UNL     1      -8.404  10.573  69.799  1.00  0.00     0.103 C  
HETATM    3  H1  UNL     1      -7.060   9.581  71.013  1.00  0.00     0.000 HD 
HETATM    4  H2  UNL     1      -6.374  10.875  70.025  1.00  0.00     0.000 HD 
HETATM    5  N   UNL     1      -8.555  11.523  68.915  1.00  0.00    -0.039 NA 
HETATM    6  C   UNL     1      -9.836  11.669  68.499  1.00  0.00    -0.193 A  
HETATM    7  C   UNL     1     -10.946  10.954  68.889  1.00  0.00    -0.229 A  
HETATM    8  N   UNL     1     -12.078  11.405  68.257  1.00  0.00    -0.608 NA 
HETATM    9  C   UNL     1     -10.762   9.896  69.858  1.00  0.00    -0.280 C  
HETATM   10  N   UNL     1      -9.436   9.775  70.255  1.00  0.00    -0.340 N  
HETATM   11  O   UNL     1     -11.640   9.167  70.307  1.00  0.00    -0.210 OA 
HETATM   12  C   UNL     1     -11.657  12.390  67.490  1.00  0.00    -0.365 A  
HETATM   13  N   UNL     1     -10.303  12.581  67.598  1.00  0.00    -0.216 NA 
HETATM   14  H   UNL     1      -9.209   9.046  70.931  1.00  0.00     0.000 HD 
ENDROOT
BRANCH  13  15
HETATM   15  C   UNL     1      -9.510  13.526  66.842  1.00  0.00    -0.258 C  
BRANCH  15  16
HETATM   16  O   UNL     1      -9.853  14.884  67.142  1.00  0.00    -0.227 OA 
BRANCH  16  17
HETATM   17  C   UNL     1      -9.579  15.326  68.491  1.00  0.00    -0.211 C  
BRANCH  17  18
HETATM   18  C   UNL     1      -8.125  15.079  68.920  1.00  0.00    -0.176 C  
HETATM   19  H   UNL     1      -6.568  16.146  69.524  1.00  0.00     0.000 HD 
HETATM   20  O   UNL     1      -7.468  16.299  69.258  1.00  0.00    -0.230 OA 
ENDBRANCH  17  18
BRANCH  17  21
HETATM   21  C   UNL     1      -9.889  16.832  68.537  1.00  0.00    -0.257 C  
HETATM   22  O   UNL     1      -9.297  17.494  67.418  1.00  0.00    -0.245 OA 
HETATM   23  H   UNL     1      -9.488  18.424  67.447  1.00  0.00     0.000 HD 
ENDBRANCH  17  21
ENDBRANCH  16  17
ENDBRANCH  15  16
ENDBRANCH  13  15
TORSDOF 5
ENDMDL
MODEL      190
REMARK 921   NORMALIZED FREE ENERGY PREDICTED BY IDOCK:   -3.43 KCAL/MOL
REMARK 922        TOTAL FREE ENERGY PREDICTED BY IDOCK:   -4.92 KCAL/MOL
REMARK 923 INTER-LIGAND FREE ENERGY PREDICTED BY IDOCK:   -4.45 KCAL/MOL
REMARK 924 INTRA-LIGAND FREE ENERGY PREDICTED BY IDOCK:   -0.46 KCAL/MOL
REMARK 927      BINDING AFFINITY PREDICTED BY RF-SCORE:    0.00 PKD
ROOT
HETATM    1  N   UNL     1      -7.739   4.208  71.059  1.00  0.00    -0.058 NA 
HETATM    2  C   UNL     1      -8.664   5.075  71.542  1.00  0.00    -0.131 C  
HETATM    3  H1  UNL     1      -7.610   3.300  71.503  1.00  0.00     0.000 HD 
HETATM    4  H2  UNL     1      -7.172   4.466  70.251  1.00  0.00     0.000 HD 
HETATM    5  N   UNL     1      -8.829   6.239  70.973  1.00  0.00    -0.136 NA 
HETATM    6  C   UNL     1      -9.772   7.002  71.576  1.00  0.00    -0.165 A  
HETATM    7  C   UNL     1     -10.543   6.694  72.674  1.00  0.00    -0.222 A  
HETATM    8  N   UNL     1     -11.380   7.731  73.003  1.00  0.00    -0.365 NA 
HETATM    9  C   UNL     1     -10.360   5.396  73.285  1.00  0.00    -0.206 C  
HETATM   10  N   UNL     1      -9.389   4.644  72.636  1.00  0.00    -0.129 N  
HETATM   11  O   UNL     1     -10.965   4.966  74.262  1.00  0.00    -0.322 OA 
HETATM   12  C   UNL     1     -11.116   8.664  72.111  1.00  0.00    -0.364 A  
HETATM   13  N   UNL     1     -10.154   8.262  71.220  1.00  0.00    -0.191 NA 
HETATM   14  H   UNL     1      -9.199   3.707  72.993  1.00  0.00     0.000 HD 
ENDROOT
BRANCH  13  15
HETATM   15  C   UNL     1      -9.684   9.011  70.075  1.00  0.00    -0.185 C  
BRANCH  15  16
HETATM   16  O   UNL     1     -10.761   9.509  69.272  1.00  0.00    -0.225 OA 
BRANCH  16  17
HETATM   17  C   UNL     1     -10.554  10.807  68.668  1.00  0.00    -0.199 C  
BRANCH  17  18
HETATM   18  C   UNL     1     -11.071  10.886  67.223  1.00  0.00    -0.283 C  
HETATM   19  H   UNL     1     -12.261  12.051  66.149  1.00  0.00     0.000 HD 
HETATM   20  O   UNL     1     -11.941  12.002  67.042  1.00  0.00    -0.609 OA 
ENDBRANCH  17  18
BRANCH  17  21
HETATM   21  C   UNL     1     -11.297  11.829  69.546  1.00  0.00    -0.248 C  
HETATM   22  O   UNL     1     -10.805  13.146  69.296  1.00  0.00    -0.417 OA 
HETATM   23  H   UNL     1     -11.263  13.777  69.839  1.00  0.00     0.000 HD 
ENDBRANCH  17  21
ENDBRANCH  16  17
ENDBRANCH  15  16
ENDBRANCH  13  15
TORSDOF 5
ENDMDL
MODEL      191
REMARK 921   NORMALIZED FREE ENERGY PREDICTED BY IDOCK:   -3.41 KCAL/MOL
REMARK 922        TOTAL FREE ENERGY PREDICTED BY IDOCK:   -4.89 KCAL/MOL
REMARK 923 INTER-LIGAND FREE ENERGY PREDICTED BY IDOCK:   -4.66 KCAL/MOL
REMARK 924 INTRA-LIGAND FREE ENERGY PREDICTED BY IDOCK:   -0.23 KCAL/MOL
REMARK 927      BINDING AFFINITY PREDICTED BY RF-SCORE:    0.00 PKD
ROOT
HETATM    1  N   UNL     1      -8.315  17.028  65.732  1.00  0.00    -0.435 NA 
HETATM    2  C   UNL     1      -9.229  16.563  66.621  1.00  0.00    -0.250 C  
HETATM    3  H1  UNL     1      -7.871  17.933  65.883  1.00  0.00     0.000 HD 
HETATM    4  H2  UNL     1      -8.072  16.471  64.913  1.00  0.00     0.000 HD 
HETATM    5  N   UNL     1      -9.797  15.403  66.427  1.00  0.00    -0.264 NA 
HETATM    6  C   UNL     1     -10.700  15.082  67.386  1.00  0.00    -0.289 A  
HETATM    7  C   UNL     1     -11.064  15.814  68.494  1.00  0.00    -0.335 A  
HETATM    8  N   UNL     1     -12.026  15.165  69.226  1.00  0.00    -0.309 NA 
HETATM    9  C   UNL     1     -10.416  17.090  68.703  1.00  0.00    -0.363 C  
HETATM   10  N   UNL     1      -9.496  17.380  67.703  1.00  0.00    -0.248 N  
HETATM   11  O   UNL     1     -10.622  17.861  69.635  1.00  0.00     0.133 OA 
HETATM   12  C   UNL     1     -12.246  14.047  68.565  1.00  0.00    -0.174 A  
HETATM   13  N   UNL     1     -11.458  13.950  67.447  1.00  0.00    -0.329 NA 
HETATM   14  H   UNL     1      -8.981  18.258  67.773  1.00  0.00     0.000 HD 
ENDROOT
BRANCH  13  15
HETATM   15  C   UNL     1     -11.394  12.823  66.542  1.00  0.00    -0.322 C  
BRANCH  15  16
HETATM   16  O   UNL     1     -11.780  11.596  67.173  1.00  0.00    -0.566 OA 
BRANCH  16  17
HETATM   17  C   UNL     1     -10.840  11.050  68.127  1.00  0.00    -0.226 C  
BRANCH  17  18
HETATM   18  C   UNL     1     -11.485  10.057  69.105  1.00  0.00    -0.033 C  
HETATM   19  H   UNL     1     -13.023  10.009  70.354  1.00  0.00     0.000 HD 
HETATM   20  O   UNL     1     -12.624  10.624  69.749  1.00  0.00    -0.244 OA 
ENDBRANCH  17  18
BRANCH  17  21
HETATM   21  C   UNL     1      -9.741  10.345  67.314  1.00  0.00    -0.165 C  
HETATM   22  O   UNL     1     -10.324   9.432  66.382  1.00  0.00    -0.242 OA 
HETATM   23  H   UNL     1      -9.645   8.997  65.880  1.00  0.00     0.000 HD 
ENDBRANCH  17  21
ENDBRANCH  16  17
ENDBRANCH  15  16
ENDBRANCH  13  15
TORSDOF 5
ENDMDL
MODEL      192
REMARK 921   NORMALIZED FREE ENERGY PREDICTED BY IDOCK:   -3.41 KCAL/MOL
REMARK 922        TOTAL FREE ENERGY PREDICTED BY IDOCK:   -4.89 KCAL/MOL
REMARK 923 INTER-LIGAND FREE ENERGY PREDICTED BY IDOCK:   -5.09 KCAL/MOL
REMARK 924 INTRA-LIGAND FREE ENERGY PREDICTED BY IDOCK:    0.20 KCAL/MOL
REMARK 927      BINDING AFFINITY PREDICTED BY RF-SCORE:    0.00 PKD
ROOT
HETATM    1  N   UNL     1     -10.858  18.048  67.616  1.00  0.00    -0.333 NA 
HETATM    2  C   UNL     1      -9.898  17.134  67.902  1.00  0.00    -0.283 C  
HETATM    3  H1  UNL     1     -10.742  19.018  67.909  1.00  0.00     0.000 HD 
HETATM    4  H2  UNL     1     -11.696  17.766  67.108  1.00  0.00     0.000 HD 
HETATM    5  N   UNL     1     -10.047  15.891  67.527  1.00  0.00    -0.243 NA 
HETATM    6  C   UNL     1      -9.018  15.092  67.900  1.00  0.00    -0.175 A  
HETATM    7  C   UNL     1      -7.882  15.434  68.598  1.00  0.00    -0.142 A  
HETATM    8  N   UNL     1      -7.074  14.343  68.802  1.00  0.00    -0.107 NA 
HETATM    9  C   UNL     1      -7.723  16.816  68.994  1.00  0.00    -0.213 C  
HETATM   10  N   UNL     1      -8.795  17.603  68.590  1.00  0.00    -0.283 N  
HETATM   11  O   UNL     1      -6.775  17.286  69.615  1.00  0.00    -0.197 OA 
HETATM   12  C   UNL     1      -7.718  13.345  68.233  1.00  0.00    -0.141 A  
HETATM   13  N   UNL     1      -8.897  13.753  67.666  1.00  0.00    -0.178 NA 
HETATM   14  H   UNL     1      -8.765  18.596  68.817  1.00  0.00     0.000 HD 
ENDROOT
BRANCH  13  15
HETATM   15  C   UNL     1      -9.808  12.929  66.901  1.00  0.00    -0.235 C  
BRANCH  15  16
HETATM   16  O   UNL     1     -10.749  13.710  66.153  1.00  0.00    -0.282 OA 
BRANCH  16  17
HETATM   17  C   UNL     1     -10.762  13.489  64.724  1.00  0.00    -0.401 C  
BRANCH  17  18
HETATM   18  C   UNL     1     -10.665  12.004  64.344  1.00  0.00    -0.323 C  
HETATM   19  H   UNL     1      -9.964  10.911  62.847  1.00  0.00     0.000 HD 
HETATM   20  O   UNL     1     -10.024  11.830  63.082  1.00  0.00    -0.409 OA 
ENDBRANCH  17  18
BRANCH  17  21
HETATM   21  C   UNL     1     -12.082  14.078  64.196  1.00  0.00    -0.422 C  
HETATM   22  O   UNL     1     -13.184  13.586  64.960  1.00  0.00    -0.721 OA 
HETATM   23  H   UNL     1     -13.999  13.950  64.634  1.00  0.00     0.000 HD 
ENDBRANCH  17  21
ENDBRANCH  16  17
ENDBRANCH  15  16
ENDBRANCH  13  15
TORSDOF 5
ENDMDL
MODEL      193
REMARK 921   NORMALIZED FREE ENERGY PREDICTED BY IDOCK:   -3.39 KCAL/MOL
REMARK 922        TOTAL FREE ENERGY PREDICTED BY IDOCK:   -4.86 KCAL/MOL
REMARK 923 INTER-LIGAND FREE ENERGY PREDICTED BY IDOCK:   -4.20 KCAL/MOL
REMARK 924 INTRA-LIGAND FREE ENERGY PREDICTED BY IDOCK:   -0.66 KCAL/MOL
REMARK 927      BINDING AFFINITY PREDICTED BY RF-SCORE:    0.00 PKD
ROOT
HETATM    1  N   UNL     1      -9.907   8.498  66.015  1.00  0.00    -0.472 NA 
HETATM    2  C   UNL     1      -9.778   7.417  66.824  1.00  0.00    -0.207 C  
HETATM    3  H1  UNL     1      -9.363   8.560  65.155  1.00  0.00     0.000 HD 
HETATM    4  H2  UNL     1     -10.549   9.250  66.267  1.00  0.00     0.000 HD 
HETATM    5  N   UNL     1     -10.475   7.339  67.925  1.00  0.00    -0.203 NA 
HETATM    6  C   UNL     1     -10.226   6.213  68.638  1.00  0.00    -0.181 A  
HETATM    7  C   UNL     1      -9.357   5.188  68.338  1.00  0.00    -0.122 A  
HETATM    8  N   UNL     1      -9.367   4.223  69.314  1.00  0.00    -0.147 NA 
HETATM    9  C   UNL     1      -8.602   5.282  67.108  1.00  0.00    -0.105 C  
HETATM   10  N   UNL     1      -8.889   6.446  66.405  1.00  0.00    -0.137 N  
HETATM   11  O   UNL     1      -7.792   4.460  66.692  1.00  0.00    -0.096 OA 
HETATM   12  C   UNL     1     -10.235   4.661  70.202  1.00  0.00    -0.127 A  
HETATM   13  N   UNL     1     -10.788   5.860  69.831  1.00  0.00    -0.345 NA 
HETATM   14  H   UNL     1      -8.409   6.593  65.517  1.00  0.00     0.000 HD 
ENDROOT
BRANCH  13  15
HETATM   15  C   UNL     1     -11.824   6.580  70.538  1.00  0.00    -0.328 C  
BRANCH  15  16
HETATM   16  O   UNL     1     -11.330   7.772  71.161  1.00  0.00    -0.260 OA 
BRANCH  16  17
HETATM   17  C   UNL     1     -12.135   8.960  70.985  1.00  0.00    -0.233 C  
BRANCH  17  18
HETATM   18  C   UNL     1     -13.034   9.262  72.193  1.00  0.00    -0.424 C  
HETATM   19  H   UNL     1     -14.154  10.755  72.857  1.00  0.00     0.000 HD 
HETATM   20  O   UNL     1     -13.598  10.569  72.109  1.00  0.00    -0.308 OA 
ENDBRANCH  17  18
BRANCH  17  21
HETATM   21  C   UNL     1     -11.159  10.128  70.755  1.00  0.00    -0.298 C  
HETATM   22  O   UNL     1     -10.265   9.822  69.684  1.00  0.00    -0.202 OA 
HETATM   23  H   UNL     1      -9.663  10.542  69.542  1.00  0.00     0.000 HD 
ENDBRANCH  17  21
ENDBRANCH  16  17
ENDBRANCH  15  16
ENDBRANCH  13  15
TORSDOF 5
ENDMDL
MODEL      194
REMARK 921   NORMALIZED FREE ENERGY PREDICTED BY IDOCK:   -3.35 KCAL/MOL
REMARK 922        TOTAL FREE ENERGY PREDICTED BY IDOCK:   -4.82 KCAL/MOL
REMARK 923 INTER-LIGAND FREE ENERGY PREDICTED BY IDOCK:   -4.52 KCAL/MOL
REMARK 924 INTRA-LIGAND FREE ENERGY PREDICTED BY IDOCK:   -0.29 KCAL/MOL
REMARK 927      BINDING AFFINITY PREDICTED BY RF-SCORE:    0.00 PKD
ROOT
HETATM    1  N   UNL     1     -11.346   4.494  64.949  1.00  0.00    -1.065 NA 
HETATM    2  C   UNL     1     -10.490   4.681  65.985  1.00  0.00    -0.264 C  
HETATM    3  H1  UNL     1     -11.022   4.038  64.096  1.00  0.00     0.000 HD 
HETATM    4  H2  UNL     1     -12.313   4.807  65.024  1.00  0.00     0.000 HD 
HETATM    5  N   UNL     1     -10.905   5.265  67.077  1.00  0.00    -0.089 NA 
HETATM    6  C   UNL     1      -9.935   5.400  68.014  1.00  0.00    -0.154 A  
HETATM    7  C   UNL     1      -8.618   5.004  67.942  1.00  0.00    -0.103 A  
HETATM    8  N   UNL     1      -7.936   5.328  69.088  1.00  0.00    -0.088 NA 
HETATM    9  C   UNL     1      -8.177   4.346  66.731  1.00  0.00    -0.102 C  
HETATM   10  N   UNL     1      -9.200   4.223  65.799  1.00  0.00    -0.137 N  
HETATM   11  O   UNL     1      -7.045   3.931  66.507  1.00  0.00    -0.061 OA 
HETATM   12  C   UNL     1      -8.833   5.919  69.850  1.00  0.00    -0.129 A  
HETATM   13  N   UNL     1     -10.062   5.978  69.244  1.00  0.00    -0.171 NA 
HETATM   14  H   UNL     1      -8.983   3.761  64.916  1.00  0.00     0.000 HD 
ENDROOT
BRANCH  13  15
HETATM   15  C   UNL     1     -11.280   6.494  69.829  1.00  0.00    -0.395 C  
BRANCH  15  16
HETATM   16  O   UNL     1     -11.247   6.471  71.261  1.00  0.00    -0.262 OA 
BRANCH  16  17
HETATM   17  C   UNL     1     -11.115   7.755  71.913  1.00  0.00    -0.257 C  
BRANCH  17  18
HETATM   18  C   UNL     1     -12.468   8.388  72.272  1.00  0.00    -0.361 C  
HETATM   19  H   UNL     1     -13.492  10.025  71.823  1.00  0.00     0.000 HD 
HETATM   20  O   UNL     1     -12.655   9.633  71.601  1.00  0.00    -0.346 OA 
ENDBRANCH  17  18
BRANCH  17  21
HETATM   21  C   UNL     1     -10.292   7.522  73.192  1.00  0.00    -0.347 C  
HETATM   22  O   UNL     1      -8.972   8.044  73.032  1.00  0.00    -0.195 OA 
HETATM   23  H   UNL     1      -8.463   7.899  73.822  1.00  0.00     0.000 HD 
ENDBRANCH  17  21
ENDBRANCH  16  17
ENDBRANCH  15  16
ENDBRANCH  13  15
TORSDOF 5
ENDMDL
MODEL      195
REMARK 921   NORMALIZED FREE ENERGY PREDICTED BY IDOCK:   -3.33 KCAL/MOL
REMARK 922        TOTAL FREE ENERGY PREDICTED BY IDOCK:   -4.79 KCAL/MOL
REMARK 923 INTER-LIGAND FREE ENERGY PREDICTED BY IDOCK:   -4.28 KCAL/MOL
REMARK 924 INTRA-LIGAND FREE ENERGY PREDICTED BY IDOCK:   -0.51 KCAL/MOL
REMARK 927      BINDING AFFINITY PREDICTED BY RF-SCORE:    0.00 PKD
ROOT
HETATM    1  N   UNL     1     -10.834  11.937  65.925  1.00  0.00    -0.287 NA 
HETATM    2  C   UNL     1      -9.795  12.549  66.545  1.00  0.00    -0.246 C  
HETATM    3  H1  UNL     1     -11.019  10.949  66.096  1.00  0.00     0.000 HD 
HETATM    4  H2  UNL     1     -11.431  12.465  65.289  1.00  0.00     0.000 HD 
HETATM    5  N   UNL     1      -9.558  13.815  66.325  1.00  0.00    -0.274 NA 
HETATM    6  C   UNL     1      -8.478  14.283  66.997  1.00  0.00    -0.166 A  
HETATM    7  C   UNL     1      -7.642  13.597  67.850  1.00  0.00    -0.156 A  
HETATM    8  N   UNL     1      -6.643  14.408  68.329  1.00  0.00    -0.104 NA 
HETATM    9  C   UNL     1      -7.925  12.200  68.094  1.00  0.00    -0.151 C  
HETATM   10  N   UNL     1      -9.040  11.761  67.392  1.00  0.00    -0.171 N  
HETATM   11  O   UNL     1      -7.285  11.450  68.824  1.00  0.00    -0.092 OA 
HETATM   12  C   UNL     1      -6.870  15.578  67.767  1.00  0.00    -0.161 A  
HETATM   13  N   UNL     1      -7.978  15.552  66.959  1.00  0.00    -0.220 NA 
HETATM   14  H   UNL     1      -9.322  10.788  67.511  1.00  0.00     0.000 HD 
ENDROOT
BRANCH  13  15
HETATM   15  C   UNL     1      -8.548  16.678  66.253  1.00  0.00    -0.324 C  
BRANCH  15  16
HETATM   16  O   UNL     1      -8.591  17.861  67.061  1.00  0.00    -0.226 OA 
BRANCH  16  17
HETATM   17  C   UNL     1      -9.897  18.449  67.256  1.00  0.00    -0.317 C  
BRANCH  17  18
HETATM   18  C   UNL     1     -10.911  17.473  67.870  1.00  0.00    -0.252 C  
HETATM   19  H   UNL     1     -11.046  16.301  69.463  1.00  0.00     0.000 HD 
HETATM   20  O   UNL     1     -10.418  16.906  69.083  1.00  0.00    -0.311 OA 
ENDBRANCH  17  18
BRANCH  17  21
HETATM   21  C   UNL     1      -9.704  19.659  68.188  1.00  0.00    -0.402 C  
HETATM   22  O   UNL     1     -10.555  19.544  69.329  1.00  0.00    -0.419 OA 
HETATM   23  H   UNL     1     -10.436  20.291  69.905  1.00  0.00     0.000 HD 
ENDBRANCH  17  21
ENDBRANCH  16  17
ENDBRANCH  15  16
ENDBRANCH  13  15
TORSDOF 5
ENDMDL
MODEL      196
REMARK 921   NORMALIZED FREE ENERGY PREDICTED BY IDOCK:   -3.31 KCAL/MOL
REMARK 922        TOTAL FREE ENERGY PREDICTED BY IDOCK:   -4.76 KCAL/MOL
REMARK 923 INTER-LIGAND FREE ENERGY PREDICTED BY IDOCK:   -4.35 KCAL/MOL
REMARK 924 INTRA-LIGAND FREE ENERGY PREDICTED BY IDOCK:   -0.41 KCAL/MOL
REMARK 927      BINDING AFFINITY PREDICTED BY RF-SCORE:    0.00 PKD
ROOT
HETATM    1  N   UNL     1     -10.636   4.849  66.181  1.00  0.00    -0.413 NA 
HETATM    2  C   UNL     1     -10.608   6.008  66.885  1.00  0.00    -0.315 C  
HETATM    3  H1  UNL     1     -10.370   4.844  65.197  1.00  0.00     0.000 HD 
HETATM    4  H2  UNL     1     -10.924   3.983  66.636  1.00  0.00     0.000 HD 
HETATM    5  N   UNL     1     -10.949   6.015  68.147  1.00  0.00    -0.294 NA 
HETATM    6  C   UNL     1     -10.890   7.245  68.711  1.00  0.00    -0.086 A  
HETATM    7  C   UNL     1     -10.523   8.436  68.126  1.00  0.00    -0.174 A  
HETATM    8  N   UNL     1     -10.604   9.476  69.017  1.00  0.00    -0.219 NA 
HETATM    9  C   UNL     1     -10.134   8.411  66.732  1.00  0.00    -0.303 C  
HETATM   10  N   UNL     1     -10.203   7.133  66.192  1.00  0.00    -0.320 N  
HETATM   11  O   UNL     1      -9.779   9.376  66.064  1.00  0.00    -0.237 OA 
HETATM   12  C   UNL     1     -11.020   8.921  70.136  1.00  0.00    -0.227 A  
HETATM   13  N   UNL     1     -11.198   7.568  70.001  1.00  0.00    -0.208 NA 
HETATM   14  H   UNL     1      -9.937   7.017  65.215  1.00  0.00     0.000 HD 
ENDROOT
BRANCH  13  15
HETATM   15  C   UNL     1     -11.576   6.646  71.050  1.00  0.00    -0.346 C  
BRANCH  15  16
HETATM   16  O   UNL     1     -10.549   6.498  72.038  1.00  0.00    -0.211 OA 
BRANCH  16  17
HETATM   17  C   UNL     1     -10.101   5.146  72.291  1.00  0.00    -0.192 C  
BRANCH  17  18
HETATM   18  C   UNL     1      -8.603   4.949  72.019  1.00  0.00    -0.124 C  
HETATM   19  H   UNL     1      -7.388   4.870  70.455  1.00  0.00     0.000 HD 
HETATM   20  O   UNL     1      -8.316   4.993  70.623  1.00  0.00    -0.101 OA 
ENDBRANCH  17  18
BRANCH  17  21
HETATM   21  C   UNL     1     -10.410   4.845  73.768  1.00  0.00    -0.229 C  
HETATM   22  O   UNL     1     -10.705   6.055  74.468  1.00  0.00    -0.350 OA 
HETATM   23  H   UNL     1     -10.895   5.869  75.380  1.00  0.00     0.000 HD 
ENDBRANCH  17  21
ENDBRANCH  16  17
ENDBRANCH  15  16
ENDBRANCH  13  15
TORSDOF 5
ENDMDL
MODEL      197
REMARK 921   NORMALIZED FREE ENERGY PREDICTED BY IDOCK:   -3.30 KCAL/MOL
REMARK 922        TOTAL FREE ENERGY PREDICTED BY IDOCK:   -4.75 KCAL/MOL
REMARK 923 INTER-LIGAND FREE ENERGY PREDICTED BY IDOCK:   -4.11 KCAL/MOL
REMARK 924 INTRA-LIGAND FREE ENERGY PREDICTED BY IDOCK:   -0.63 KCAL/MOL
REMARK 927      BINDING AFFINITY PREDICTED BY RF-SCORE:    0.00 PKD
ROOT
HETATM    1  N   UNL     1     -11.607   4.960  73.085  1.00  0.00    -0.396 NA 
HETATM    2  C   UNL     1     -11.696   6.144  72.428  1.00  0.00    -0.272 C  
HETATM    3  H1  UNL     1     -12.450   4.508  73.437  1.00  0.00     0.000 HD 
HETATM    4  H2  UNL     1     -10.697   4.522  73.226  1.00  0.00     0.000 HD 
HETATM    5  N   UNL     1     -10.615   6.722  71.976  1.00  0.00    -0.211 NA 
HETATM    6  C   UNL     1     -10.858   7.905  71.360  1.00  0.00    -0.226 A  
HETATM    7  C   UNL     1     -12.068   8.532  71.166  1.00  0.00    -0.252 A  
HETATM    8  N   UNL     1     -11.910   9.729  70.513  1.00  0.00    -0.260 NA 
HETATM    9  C   UNL     1     -13.257   7.873  71.659  1.00  0.00    -0.334 C  
HETATM   10  N   UNL     1     -12.967   6.664  72.278  1.00  0.00    -0.538 N  
HETATM   11  O   UNL     1     -14.406   8.292  71.566  1.00  0.00    -0.433 OA 
HETATM   12  C   UNL     1     -10.612   9.828  70.314  1.00  0.00    -0.292 A  
HETATM   13  N   UNL     1      -9.934   8.741  70.803  1.00  0.00    -0.199 NA 
HETATM   14  H   UNL     1     -13.748   6.122  72.649  1.00  0.00     0.000 HD 
ENDROOT
BRANCH  13  15
HETATM   15  C   UNL     1      -8.513   8.495  70.687  1.00  0.00    -0.146 C  
BRANCH  15  16
HETATM   16  O   UNL     1      -8.153   7.989  69.396  1.00  0.00    -0.114 OA 
BRANCH  16  17
HETATM   17  C   UNL     1      -8.185   6.552  69.246  1.00  0.00    -0.123 C  
BRANCH  17  18
HETATM   18  C   UNL     1      -9.219   6.078  68.214  1.00  0.00    -0.117 C  
HETATM   19  H   UNL     1      -9.234   5.399  66.352  1.00  0.00     0.000 HD 
HETATM   20  O   UNL     1      -8.594   5.692  66.991  1.00  0.00    -0.111 OA 
ENDBRANCH  17  18
BRANCH  17  21
HETATM   21  C   UNL     1      -6.774   6.119  68.810  1.00  0.00    -0.061 C  
HETATM   22  O   UNL     1      -6.118   7.188  68.127  1.00  0.00    -0.031 OA 
HETATM   23  H   UNL     1      -5.247   6.921  67.858  1.00  0.00     0.000 HD 
ENDBRANCH  17  21
ENDBRANCH  16  17
ENDBRANCH  15  16
ENDBRANCH  13  15
TORSDOF 5
ENDMDL
MODEL      198
REMARK 921   NORMALIZED FREE ENERGY PREDICTED BY IDOCK:   -3.30 KCAL/MOL
REMARK 922        TOTAL FREE ENERGY PREDICTED BY IDOCK:   -4.75 KCAL/MOL
REMARK 923 INTER-LIGAND FREE ENERGY PREDICTED BY IDOCK:   -4.26 KCAL/MOL
REMARK 924 INTRA-LIGAND FREE ENERGY PREDICTED BY IDOCK:   -0.49 KCAL/MOL
REMARK 927      BINDING AFFINITY PREDICTED BY RF-SCORE:    0.00 PKD
ROOT
HETATM    1  N   UNL     1      -9.347   8.880  71.254  1.00  0.00    -0.247 NA 
HETATM    2  C   UNL     1      -9.547   9.092  69.929  1.00  0.00    -0.192 C  
HETATM    3  H1  UNL     1      -9.221   7.931  71.605  1.00  0.00     0.000 HD 
HETATM    4  H2  UNL     1      -9.322   9.670  71.899  1.00  0.00     0.000 HD 
HETATM    5  N   UNL     1      -9.708  10.308  69.480  1.00  0.00    -0.228 NA 
HETATM    6  C   UNL     1      -9.916  10.362  68.142  1.00  0.00    -0.149 A  
HETATM    7  C   UNL     1      -9.973   9.318  67.245  1.00  0.00    -0.207 A  
HETATM    8  N   UNL     1     -10.219   9.767  65.972  1.00  0.00    -0.236 NA 
HETATM    9  C   UNL     1      -9.779   7.979  67.755  1.00  0.00    -0.156 C  
HETATM   10  N   UNL     1      -9.563   7.967  69.128  1.00  0.00    -0.155 N  
HETATM   11  O   UNL     1      -9.795   6.945  67.095  1.00  0.00    -0.145 OA 
HETATM   12  C   UNL     1     -10.315  11.075  66.096  1.00  0.00    -0.251 A  
HETATM   13  N   UNL     1     -10.130  11.482  67.392  1.00  0.00    -0.189 NA 
HETATM   14  H   UNL     1      -9.406   7.064  69.575  1.00  0.00     0.000 HD 
ENDROOT
BRANCH  13  15
HETATM   15  C   UNL     1     -10.097  12.849  67.863  1.00  0.00    -0.232 C  
BRANCH  15  16
HETATM   16  O   UNL     1     -11.360  13.272  68.391  1.00  0.00    -0.254 OA 
BRANCH  16  17
HETATM   17  C   UNL     1     -11.505  14.691  68.630  1.00  0.00    -0.300 C  
BRANCH  17  18
HETATM   18  C   UNL     1     -12.234  15.007  69.944  1.00  0.00    -0.309 C  
HETATM   19  H   UNL     1     -12.448  14.198  71.740  1.00  0.00     0.000 HD 
HETATM   20  O   UNL     1     -11.997  14.002  70.927  1.00  0.00    -0.324 OA 
ENDBRANCH  17  18
BRANCH  17  21
HETATM   21  C   UNL     1     -10.085  15.282  68.665  1.00  0.00    -0.222 C  
HETATM   22  O   UNL     1      -9.592  15.309  70.005  1.00  0.00    -0.458 OA 
HETATM   23  H   UNL     1      -8.716  15.674  70.027  1.00  0.00     0.000 HD 
ENDBRANCH  17  21
ENDBRANCH  16  17
ENDBRANCH  15  16
ENDBRANCH  13  15
TORSDOF 5
ENDMDL
MODEL      199
REMARK 921   NORMALIZED FREE ENERGY PREDICTED BY IDOCK:   -3.28 KCAL/MOL
REMARK 922        TOTAL FREE ENERGY PREDICTED BY IDOCK:   -4.73 KCAL/MOL
REMARK 923 INTER-LIGAND FREE ENERGY PREDICTED BY IDOCK:   -4.20 KCAL/MOL
REMARK 924 INTRA-LIGAND FREE ENERGY PREDICTED BY IDOCK:   -0.53 KCAL/MOL
REMARK 927      BINDING AFFINITY PREDICTED BY RF-SCORE:    0.00 PKD
ROOT
HETATM    1  N   UNL     1     -11.951   6.541  72.493  1.00  0.00    -0.514 NA 
HETATM    2  C   UNL     1     -11.962   7.760  71.898  1.00  0.00    -0.301 C  
HETATM    3  H1  UNL     1     -12.616   6.331  73.237  1.00  0.00     0.000 HD 
HETATM    4  H2  UNL     1     -11.278   5.835  72.195  1.00  0.00     0.000 HD 
HETATM    5  N   UNL     1     -11.110   8.030  70.945  1.00  0.00    -0.251 NA 
HETATM    6  C   UNL     1     -11.228   9.290  70.462  1.00  0.00    -0.265 A  
HETATM    7  C   UNL     1     -12.111  10.273  70.849  1.00  0.00    -0.368 A  
HETATM    8  N   UNL     1     -11.915  11.429  70.136  1.00  0.00    -0.352 NA 
HETATM    9  C   UNL     1     -13.058   9.956  71.895  1.00  0.00    -0.459 C  
HETATM   10  N   UNL     1     -12.908   8.655  72.360  1.00  0.00    -0.503 N  
HETATM   11  O   UNL     1     -13.909  10.711  72.353  1.00  0.00     0.022 OA 
HETATM   12  C   UNL     1     -10.916  11.151  69.324  1.00  0.00    -0.247 A  
HETATM   13  N   UNL     1     -10.473   9.862  69.479  1.00  0.00    -0.224 NA 
HETATM   14  H   UNL     1     -13.541   8.339  73.094  1.00  0.00     0.000 HD 
ENDROOT
BRANCH  13  15
HETATM   15  C   UNL     1      -9.445   9.211  68.698  1.00  0.00    -0.143 C  
BRANCH  15  16
HETATM   16  O   UNL     1      -8.151   9.789  68.913  1.00  0.00    -0.093 OA 
BRANCH  16  17
HETATM   17  C   UNL     1      -7.241   9.745  67.791  1.00  0.00    -0.088 C  
BRANCH  17  18
HETATM   18  C   UNL     1      -7.960   9.622  66.439  1.00  0.00    -0.108 C  
HETATM   19  H   UNL     1      -7.619  10.089  64.543  1.00  0.00     0.000 HD 
HETATM   20  O   UNL     1      -7.174  10.165  65.380  1.00  0.00    -0.132 OA 
ENDBRANCH  17  18
BRANCH  17  21
HETATM   21  C   UNL     1      -6.423  11.047  67.831  1.00  0.00    -0.062 C  
HETATM   22  O   UNL     1      -7.248  12.161  67.487  1.00  0.00    -0.111 OA 
HETATM   23  H   UNL     1      -6.742  12.965  67.512  1.00  0.00     0.000 HD 
ENDBRANCH  17  21
ENDBRANCH  16  17
ENDBRANCH  15  16
ENDBRANCH  13  15
TORSDOF 5
ENDMDL
MODEL      200
REMARK 921   NORMALIZED FREE ENERGY PREDICTED BY IDOCK:   -3.26 KCAL/MOL
REMARK 922        TOTAL FREE ENERGY PREDICTED BY IDOCK:   -4.70 KCAL/MOL
REMARK 923 INTER-LIGAND FREE ENERGY PREDICTED BY IDOCK:   -4.11 KCAL/MOL
REMARK 924 INTRA-LIGAND FREE ENERGY PREDICTED BY IDOCK:   -0.59 KCAL/MOL
REMARK 927      BINDING AFFINITY PREDICTED BY RF-SCORE:    0.00 PKD
ROOT
HETATM    1  N   UNL     1      -8.909   4.094  73.925  1.00  0.00    -0.093 NA 
HETATM    2  C   UNL     1      -8.642   4.825  72.815  1.00  0.00    -0.114 C  
HETATM    3  H1  UNL     1      -8.150   3.813  74.546  1.00  0.00     0.000 HD 
HETATM    4  H2  UNL     1      -9.870   3.825  74.140  1.00  0.00     0.000 HD 
HETATM    5  N   UNL     1      -9.614   5.185  72.019  1.00  0.00    -0.148 NA 
HETATM    6  C   UNL     1      -9.193   5.892  70.944  1.00  0.00    -0.153 A  
HETATM    7  C   UNL     1      -7.907   6.259  70.614  1.00  0.00    -0.107 A  
HETATM    8  N   UNL     1      -7.874   6.959  69.434  1.00  0.00    -0.111 NA 
HETATM    9  C   UNL     1      -6.842   5.866  71.511  1.00  0.00    -0.067 C  
HETATM   10  N   UNL     1      -7.315   5.148  72.603  1.00  0.00    -0.092 N  
HETATM   11  O   UNL     1      -5.649   6.113  71.368  1.00  0.00    -0.024 OA 
HETATM   12  C   UNL     1      -9.132   7.015  69.048  1.00  0.00    -0.135 A  
HETATM   13  N   UNL     1      -9.969   6.389  69.937  1.00  0.00    -0.166 NA 
HETATM   14  H   UNL     1      -6.635   4.837  73.296  1.00  0.00     0.000 HD 
ENDROOT
BRANCH  13  15
HETATM   15  C   UNL     1     -11.412   6.329  69.856  1.00  0.00    -0.389 C  
BRANCH  15  16
HETATM   16  O   UNL     1     -12.036   7.500  70.395  1.00  0.00    -0.126 OA 
BRANCH  16  17
HETATM   17  C   UNL     1     -12.593   7.368  71.723  1.00  0.00    -0.335 C  
BRANCH  17  18
HETATM   18  C   UNL     1     -11.707   7.992  72.812  1.00  0.00    -0.290 C  
HETATM   19  H   UNL     1     -10.156   9.221  72.921  1.00  0.00     0.000 HD 
HETATM   20  O   UNL     1     -10.704   8.835  72.247  1.00  0.00    -0.344 OA 
ENDBRANCH  17  18
BRANCH  17  21
HETATM   21  C   UNL     1     -13.964   8.067  71.701  1.00  0.00    -0.400 C  
HETATM   22  O   UNL     1     -14.223   8.689  72.960  1.00  0.00    -1.016 OA 
HETATM   23  H   UNL     1     -15.069   9.120  72.946  1.00  0.00     0.000 HD 
ENDBRANCH  17  21
ENDBRANCH  16  17
ENDBRANCH  15  16
ENDBRANCH  13  15
TORSDOF 5
ENDMDL
MODEL      201
REMARK 921   NORMALIZED FREE ENERGY PREDICTED BY IDOCK:   -3.26 KCAL/MOL
REMARK 922        TOTAL FREE ENERGY PREDICTED BY IDOCK:   -4.69 KCAL/MOL
REMARK 923 INTER-LIGAND FREE ENERGY PREDICTED BY IDOCK:   -4.00 KCAL/MOL
REMARK 924 INTRA-LIGAND FREE ENERGY PREDICTED BY IDOCK:   -0.69 KCAL/MOL
REMARK 927      BINDING AFFINITY PREDICTED BY RF-SCORE:    0.00 PKD
ROOT
HETATM    1  N   UNL     1      -7.791   6.914  67.524  1.00  0.00    -0.110 NA 
HETATM    2  C   UNL     1      -8.564   7.982  67.204  1.00  0.00    -0.124 C  
HETATM    3  H1  UNL     1      -7.239   6.449  66.804  1.00  0.00     0.000 HD 
HETATM    4  H2  UNL     1      -7.762   6.576  68.486  1.00  0.00     0.000 HD 
HETATM    5  N   UNL     1      -9.271   8.577  68.127  1.00  0.00    -0.138 NA 
HETATM    6  C   UNL     1     -10.006   9.613  67.655  1.00  0.00    -0.174 A  
HETATM    7  C   UNL     1     -10.082  10.086  66.364  1.00  0.00    -0.241 A  
HETATM    8  N   UNL     1     -10.950  11.145  66.271  1.00  0.00    -0.215 NA 
HETATM    9  C   UNL     1      -9.283   9.426  65.355  1.00  0.00    -0.244 C  
HETATM   10  N   UNL     1      -8.541   8.374  65.879  1.00  0.00    -0.150 N  
HETATM   11  O   UNL     1      -9.233   9.721  64.166  1.00  0.00    -0.256 OA 
HETATM   12  C   UNL     1     -11.400  11.312  67.497  1.00  0.00    -0.288 A  
HETATM   13  N   UNL     1     -10.848  10.411  68.372  1.00  0.00    -0.227 NA 
HETATM   14  H   UNL     1      -7.938   7.855  65.241  1.00  0.00     0.000 HD 
ENDROOT
BRANCH  13  15
HETATM   15  C   UNL     1     -11.067  10.364  69.801  1.00  0.00    -0.295 C  
BRANCH  15  16
HETATM   16  O   UNL     1     -12.130   9.472  70.159  1.00  0.00    -0.026 OA 
BRANCH  16  17
HETATM   17  C   UNL     1     -11.871   8.590  71.274  1.00  0.00    -0.291 C  
BRANCH  17  18
HETATM   18  C   UNL     1     -13.108   8.352  72.153  1.00  0.00    -0.328 C  
HETATM   19  H   UNL     1     -14.577   9.420  72.945  1.00  0.00     0.000 HD 
HETATM   20  O   UNL     1     -13.812   9.567  72.401  1.00  0.00    -0.424 OA 
ENDBRANCH  17  18
BRANCH  17  21
HETATM   21  C   UNL     1     -11.386   7.255  70.681  1.00  0.00    -0.284 C  
HETATM   22  O   UNL     1      -9.960   7.231  70.618  1.00  0.00    -0.186 OA 
HETATM   23  H   UNL     1      -9.660   6.407  70.252  1.00  0.00     0.000 HD 
ENDBRANCH  17  21
ENDBRANCH  16  17
ENDBRANCH  15  16
ENDBRANCH  13  15
TORSDOF 5
ENDMDL
MODEL      202
REMARK 921   NORMALIZED FREE ENERGY PREDICTED BY IDOCK:   -3.21 KCAL/MOL
REMARK 922        TOTAL FREE ENERGY PREDICTED BY IDOCK:   -4.63 KCAL/MOL
REMARK 923 INTER-LIGAND FREE ENERGY PREDICTED BY IDOCK:   -3.98 KCAL/MOL
REMARK 924 INTRA-LIGAND FREE ENERGY PREDICTED BY IDOCK:   -0.65 KCAL/MOL
REMARK 927      BINDING AFFINITY PREDICTED BY RF-SCORE:    0.00 PKD
ROOT
HETATM    1  N   UNL     1      -9.780   7.292  69.494  1.00  0.00    -0.158 NA 
HETATM    2  C   UNL     1     -10.456   8.464  69.594  1.00  0.00    -0.221 C  
HETATM    3  H1  UNL     1      -9.834   6.607  70.248  1.00  0.00     0.000 HD 
HETATM    4  H2  UNL     1      -9.220   7.096  68.665  1.00  0.00     0.000 HD 
HETATM    5  N   UNL     1     -10.388   9.342  68.629  1.00  0.00    -0.200 NA 
HETATM    6  C   UNL     1     -11.097  10.469  68.878  1.00  0.00    -0.261 A  
HETATM    7  C   UNL     1     -11.851  10.774  69.989  1.00  0.00    -0.344 A  
HETATM    8  N   UNL     1     -12.411  12.023  69.885  1.00  0.00    -0.135 NA 
HETATM    9  C   UNL     1     -11.929   9.787  71.044  1.00  0.00    -0.352 C  
HETATM   10  N   UNL     1     -11.193   8.646  70.749  1.00  0.00    -0.257 N  
HETATM   11  O   UNL     1     -12.555   9.899  72.093  1.00  0.00    -0.345 OA 
HETATM   12  C   UNL     1     -11.997  12.474  68.718  1.00  0.00    -0.238 A  
HETATM   13  N   UNL     1     -11.205  11.562  68.068  1.00  0.00    -0.246 NA 
HETATM   14  H   UNL     1     -11.198   7.890  71.433  1.00  0.00     0.000 HD 
ENDROOT
BRANCH  13  15
HETATM   15  C   UNL     1     -10.648  11.706  66.741  1.00  0.00    -0.244 C  
BRANCH  15  16
HETATM   16  O   UNL     1      -9.991  12.967  66.562  1.00  0.00    -0.249 OA 
BRANCH  16  17
HETATM   17  C   UNL     1      -8.572  12.989  66.841  1.00  0.00    -0.119 C  
BRANCH  17  18
HETATM   18  C   UNL     1      -8.242  13.536  68.238  1.00  0.00    -0.157 C  
HETATM   19  H   UNL     1      -9.018  14.814  69.539  1.00  0.00     0.000 HD 
HETATM   20  O   UNL     1      -9.222  14.475  68.674  1.00  0.00    -0.194 OA 
ENDBRANCH  17  18
BRANCH  17  21
HETATM   21  C   UNL     1      -8.073  11.539  66.716  1.00  0.00    -0.158 C  
HETATM   22  O   UNL     1      -7.736  11.018  68.003  1.00  0.00    -0.100 OA 
HETATM   23  H   UNL     1      -7.428  10.123  67.925  1.00  0.00     0.000 HD 
ENDBRANCH  17  21
ENDBRANCH  16  17
ENDBRANCH  15  16
ENDBRANCH  13  15
TORSDOF 5
ENDMDL
MODEL      203
REMARK 921   NORMALIZED FREE ENERGY PREDICTED BY IDOCK:   -3.19 KCAL/MOL
REMARK 922        TOTAL FREE ENERGY PREDICTED BY IDOCK:   -4.60 KCAL/MOL
REMARK 923 INTER-LIGAND FREE ENERGY PREDICTED BY IDOCK:   -3.98 KCAL/MOL
REMARK 924 INTRA-LIGAND FREE ENERGY PREDICTED BY IDOCK:   -0.62 KCAL/MOL
REMARK 927      BINDING AFFINITY PREDICTED BY RF-SCORE:    0.00 PKD
ROOT
HETATM    1  N   UNL     1     -10.689   9.861  67.573  1.00  0.00    -0.274 NA 
HETATM    2  C   UNL     1     -11.038   9.612  68.860  1.00  0.00    -0.059 C  
HETATM    3  H1  UNL     1     -11.101  10.652  67.077  1.00  0.00     0.000 HD 
HETATM    4  H2  UNL     1     -10.016   9.258  67.101  1.00  0.00     0.000 HD 
HETATM    5  N   UNL     1     -10.511   8.599  69.495  1.00  0.00    -0.219 NA 
HETATM    6  C   UNL     1     -10.969   8.466  70.763  1.00  0.00    -0.247 A  
HETATM    7  C   UNL     1     -11.887   9.249  71.426  1.00  0.00    -0.358 A  
HETATM    8  N   UNL     1     -12.110   8.789  72.699  1.00  0.00    -0.252 NA 
HETATM    9  C   UNL     1     -12.451  10.376  70.715  1.00  0.00    -0.368 C  
HETATM   10  N   UNL     1     -11.954  10.481  69.422  1.00  0.00    -0.513 N  
HETATM   11  O   UNL     1     -13.274  11.170  71.157  1.00  0.00    -0.256 OA 
HETATM   12  C   UNL     1     -11.333   7.730  72.808  1.00  0.00    -0.389 A  
HETATM   13  N   UNL     1     -10.616   7.501  71.662  1.00  0.00    -0.205 NA 
HETATM   14  H   UNL     1     -12.288  11.254  68.847  1.00  0.00     0.000 HD 
ENDROOT
BRANCH  13  15
HETATM   15  C   UNL     1      -9.620   6.470  71.468  1.00  0.00    -0.161 C  
BRANCH  15  16
HETATM   16  O   UNL     1      -8.512   6.610  72.365  1.00  0.00    -0.117 OA 
BRANCH  16  17
HETATM   17  C   UNL     1      -7.654   7.752  72.140  1.00  0.00    -0.082 C  
BRANCH  17  18
HETATM   18  C   UNL     1      -6.659   7.991  73.286  1.00  0.00    -0.097 C  
HETATM   19  H   UNL     1      -5.477   9.446  73.928  1.00  0.00     0.000 HD 
HETATM   20  O   UNL     1      -6.093   9.299  73.219  1.00  0.00    -0.306 OA 
ENDBRANCH  17  18
BRANCH  17  21
HETATM   21  C   UNL     1      -6.890   7.483  70.832  1.00  0.00    -0.047 C  
HETATM   22  O   UNL     1      -6.091   8.615  70.484  1.00  0.00    -0.031 OA 
HETATM   23  H   UNL     1      -5.620   8.449  69.676  1.00  0.00     0.000 HD 
ENDBRANCH  17  21
ENDBRANCH  16  17
ENDBRANCH  15  16
ENDBRANCH  13  15
TORSDOF 5
ENDMDL
MODEL      204
REMARK 921   NORMALIZED FREE ENERGY PREDICTED BY IDOCK:   -3.16 KCAL/MOL
REMARK 922        TOTAL FREE ENERGY PREDICTED BY IDOCK:   -4.57 KCAL/MOL
REMARK 923 INTER-LIGAND FREE ENERGY PREDICTED BY IDOCK:   -4.13 KCAL/MOL
REMARK 924 INTRA-LIGAND FREE ENERGY PREDICTED BY IDOCK:   -0.44 KCAL/MOL
REMARK 927      BINDING AFFINITY PREDICTED BY RF-SCORE:    0.00 PKD
ROOT
HETATM    1  N   UNL     1     -11.600   4.536  65.126  1.00  0.00    -1.035 NA 
HETATM    2  C   UNL     1     -10.287   4.578  65.462  1.00  0.00    -0.229 C  
HETATM    3  H1  UNL     1     -11.884   4.696  64.160  1.00  0.00     0.000 HD 
HETATM    4  H2  UNL     1     -12.303   4.343  65.839  1.00  0.00     0.000 HD 
HETATM    5  N   UNL     1      -9.923   4.373  66.700  1.00  0.00    -0.226 NA 
HETATM    6  C   UNL     1      -8.584   4.466  66.887  1.00  0.00    -0.104 A  
HETATM    7  C   UNL     1      -7.609   4.739  65.954  1.00  0.00    -0.090 A  
HETATM    8  N   UNL     1      -6.362   4.767  66.527  1.00  0.00    -0.039 NA 
HETATM    9  C   UNL     1      -8.026   4.950  64.585  1.00  0.00    -0.099 C  
HETATM   10  N   UNL     1      -9.403   4.842  64.434  1.00  0.00    -0.352 N  
HETATM   11  O   UNL     1      -7.289   5.200  63.636  1.00  0.00    -0.048 OA 
HETATM   12  C   UNL     1      -6.580   4.514  67.801  1.00  0.00    -0.046 A  
HETATM   13  N   UNL     1      -7.911   4.316  68.065  1.00  0.00    -0.086 NA 
HETATM   14  H   UNL     1      -9.787   4.966  63.497  1.00  0.00     0.000 HD 
ENDROOT
BRANCH  13  15
HETATM   15  C   UNL     1      -8.485   3.948  69.341  1.00  0.00    -0.064 C  
BRANCH  15  16
HETATM   16  O   UNL     1      -8.911   5.090  70.094  1.00  0.00    -0.106 OA 
BRANCH  16  17
HETATM   17  C   UNL     1     -10.337   5.217  70.302  1.00  0.00    -0.280 C  
BRANCH  17  18
HETATM   18  C   UNL     1     -10.712   5.433  71.775  1.00  0.00    -0.204 C  
HETATM   19  H   UNL     1      -9.829   6.025  73.448  1.00  0.00     0.000 HD 
HETATM   20  O   UNL     1      -9.596   5.891  72.536  1.00  0.00    -0.155 OA 
ENDBRANCH  17  18
BRANCH  17  21
HETATM   21  C   UNL     1     -10.802   6.419  69.462  1.00  0.00    -0.321 C  
HETATM   22  O   UNL     1     -12.159   6.743  69.771  1.00  0.00    -0.648 OA 
HETATM   23  H   UNL     1     -12.446   7.485  69.252  1.00  0.00     0.000 HD 
ENDBRANCH  17  21
ENDBRANCH  16  17
ENDBRANCH  15  16
ENDBRANCH  13  15
TORSDOF 5
ENDMDL
MODEL      205
REMARK 921   NORMALIZED FREE ENERGY PREDICTED BY IDOCK:   -3.16 KCAL/MOL
REMARK 922        TOTAL FREE ENERGY PREDICTED BY IDOCK:   -4.57 KCAL/MOL
REMARK 923 INTER-LIGAND FREE ENERGY PREDICTED BY IDOCK:   -4.77 KCAL/MOL
REMARK 924 INTRA-LIGAND FREE ENERGY PREDICTED BY IDOCK:    0.20 KCAL/MOL
REMARK 927      BINDING AFFINITY PREDICTED BY RF-SCORE:    0.00 PKD
ROOT
HETATM    1  N   UNL     1     -11.053  20.011  68.330  1.00  0.00     0.154 NA 
HETATM    2  C   UNL     1      -9.802  19.624  67.977  1.00  0.00    -0.415 C  
HETATM    3  H1  UNL     1     -11.245  20.991  68.534  1.00  0.00     0.000 HD 
HETATM    4  H2  UNL     1     -11.803  19.321  68.390  1.00  0.00     0.000 HD 
HETATM    5  N   UNL     1      -9.557  18.367  67.716  1.00  0.00    -0.281 NA 
HETATM    6  C   UNL     1      -8.261  18.130  67.398  1.00  0.00    -0.235 A  
HETATM    7  C   UNL     1      -7.222  19.030  67.322  1.00  0.00    -0.215 A  
HETATM    8  N   UNL     1      -6.046  18.408  66.984  1.00  0.00    -0.163 NA 
HETATM    9  C   UNL     1      -7.512  20.420  67.600  1.00  0.00    -0.299 C  
HETATM   10  N   UNL     1      -8.849  20.623  67.917  1.00  0.00    -0.011 N  
HETATM   11  O   UNL     1      -6.707  21.345  67.575  1.00  0.00    -0.546 OA 
HETATM   12  C   UNL     1      -6.369  17.138  66.859  1.00  0.00    -0.202 A  
HETATM   13  N   UNL     1      -7.703  16.922  67.091  1.00  0.00    -0.167 NA 
HETATM   14  H   UNL     1      -9.149  21.576  68.119  1.00  0.00     0.000 HD 
ENDROOT
BRANCH  13  15
HETATM   15  C   UNL     1      -8.401  15.661  66.966  1.00  0.00    -0.228 C  
BRANCH  15  16
HETATM   16  O   UNL     1      -9.823  15.829  66.922  1.00  0.00    -0.228 OA 
BRANCH  16  17
HETATM   17  C   UNL     1     -10.572  14.741  66.333  1.00  0.00    -0.300 C  
BRANCH  17  18
HETATM   18  C   UNL     1     -11.539  14.074  67.322  1.00  0.00    -0.369 C  
HETATM   19  H   UNL     1     -11.587  12.459  68.470  1.00  0.00     0.000 HD 
HETATM   20  O   UNL     1     -10.988  12.872  67.858  1.00  0.00    -0.227 OA 
ENDBRANCH  17  18
BRANCH  17  21
HETATM   21  C   UNL     1     -11.359  15.333  65.151  1.00  0.00    -0.321 C  
HETATM   22  O   UNL     1     -10.797  16.587  64.761  1.00  0.00    -0.720 OA 
HETATM   23  H   UNL     1     -11.283  16.953  64.031  1.00  0.00     0.000 HD 
ENDBRANCH  17  21
ENDBRANCH  16  17
ENDBRANCH  15  16
ENDBRANCH  13  15
TORSDOF 5
ENDMDL
MODEL      206
REMARK 921   NORMALIZED FREE ENERGY PREDICTED BY IDOCK:   -3.14 KCAL/MOL
REMARK 922        TOTAL FREE ENERGY PREDICTED BY IDOCK:   -4.55 KCAL/MOL
REMARK 923 INTER-LIGAND FREE ENERGY PREDICTED BY IDOCK:   -4.20 KCAL/MOL
REMARK 924 INTRA-LIGAND FREE ENERGY PREDICTED BY IDOCK:   -0.34 KCAL/MOL
REMARK 927      BINDING AFFINITY PREDICTED BY RF-SCORE:    0.00 PKD
ROOT
HETATM    1  N   UNL     1      -9.803   4.140  69.204  1.00  0.00    -0.127 NA 
HETATM    2  C   UNL     1      -9.683   4.509  70.504  1.00  0.00    -0.220 C  
HETATM    3  H1  UNL     1      -9.289   3.331  68.855  1.00  0.00     0.000 HD 
HETATM    4  H2  UNL     1     -10.407   4.670  68.577  1.00  0.00     0.000 HD 
HETATM    5  N   UNL     1     -10.341   5.545  70.951  1.00  0.00    -0.229 NA 
HETATM    6  C   UNL     1     -10.107   5.804  72.261  1.00  0.00    -0.184 A  
HETATM    7  C   UNL     1      -9.288   5.121  73.132  1.00  0.00    -0.131 A  
HETATM    8  N   UNL     1      -9.297   5.694  74.379  1.00  0.00    -0.129 NA 
HETATM    9  C   UNL     1      -8.577   3.967  72.626  1.00  0.00    -0.099 C  
HETATM   10  N   UNL     1      -8.847   3.733  71.283  1.00  0.00    -0.092 N  
HETATM   11  O   UNL     1      -7.815   3.250  73.266  1.00  0.00    -0.066 OA 
HETATM   12  C   UNL     1     -10.114   6.721  74.264  1.00  0.00    -0.317 A  
HETATM   13  N   UNL     1     -10.635   6.822  73.000  1.00  0.00    -0.247 NA 
HETATM   14  H   UNL     1      -8.396   2.931  70.843  1.00  0.00     0.000 HD 
ENDROOT
BRANCH  13  15
HETATM   15  C   UNL     1     -11.617   7.786  72.554  1.00  0.00    -0.367 C  
BRANCH  15  16
HETATM   16  O   UNL     1     -11.012   8.953  71.984  1.00  0.00    -0.352 OA 
BRANCH  16  17
HETATM   17  C   UNL     1     -11.670   9.506  70.821  1.00  0.00    -0.298 C  
BRANCH  17  18
HETATM   18  C   UNL     1     -12.274  10.895  71.075  1.00  0.00    -0.358 C  
HETATM   19  H   UNL     1     -13.846  11.668  72.002  1.00  0.00     0.000 HD 
HETATM   20  O   UNL     1     -13.472  10.809  71.845  1.00  0.00    -0.355 OA 
ENDBRANCH  17  18
BRANCH  17  21
HETATM   21  C   UNL     1     -10.610   9.592  69.709  1.00  0.00    -0.236 C  
HETATM   22  O   UNL     1     -10.197  10.947  69.523  1.00  0.00    -0.395 OA 
HETATM   23  H   UNL     1      -9.542  11.000  68.837  1.00  0.00     0.000 HD 
ENDBRANCH  17  21
ENDBRANCH  16  17
ENDBRANCH  15  16
ENDBRANCH  13  15
TORSDOF 5
ENDMDL
MODEL      207
REMARK 921   NORMALIZED FREE ENERGY PREDICTED BY IDOCK:   -3.06 KCAL/MOL
REMARK 922        TOTAL FREE ENERGY PREDICTED BY IDOCK:   -4.43 KCAL/MOL
REMARK 923 INTER-LIGAND FREE ENERGY PREDICTED BY IDOCK:   -3.94 KCAL/MOL
REMARK 924 INTRA-LIGAND FREE ENERGY PREDICTED BY IDOCK:   -0.50 KCAL/MOL
REMARK 927      BINDING AFFINITY PREDICTED BY RF-SCORE:    0.00 PKD
ROOT
HETATM    1  N   UNL     1      -9.114   4.304  74.306  1.00  0.00    -0.100 NA 
HETATM    2  C   UNL     1      -9.261   5.525  73.734  1.00  0.00    -0.126 C  
HETATM    3  H1  UNL     1      -8.507   4.191  75.118  1.00  0.00     0.000 HD 
HETATM    4  H2  UNL     1      -9.610   3.499  73.925  1.00  0.00     0.000 HD 
HETATM    5  N   UNL     1     -10.038   5.669  72.694  1.00  0.00    -0.177 NA 
HETATM    6  C   UNL     1     -10.070   6.938  72.221  1.00  0.00    -0.176 A  
HETATM    7  C   UNL     1      -9.403   8.044  72.699  1.00  0.00    -0.248 A  
HETATM    8  N   UNL     1      -9.676   9.157  71.943  1.00  0.00    -0.274 NA 
HETATM    9  C   UNL     1      -8.558   7.872  73.860  1.00  0.00    -0.274 C  
HETATM   10  N   UNL     1      -8.556   6.560  74.317  1.00  0.00    -0.133 N  
HETATM   11  O   UNL     1      -7.900   8.749  74.411  1.00  0.00    -0.399 OA 
HETATM   12  C   UNL     1     -10.501   8.728  71.010  1.00  0.00    -0.230 A  
HETATM   13  N   UNL     1     -10.776   7.391  71.144  1.00  0.00    -0.230 NA 
HETATM   14  H   UNL     1      -7.993   6.346  75.140  1.00  0.00     0.000 HD 
ENDROOT
BRANCH  13  15
HETATM   15  C   UNL     1     -11.696   6.622  70.336  1.00  0.00    -0.386 C  
BRANCH  15  16
HETATM   16  O   UNL     1     -11.030   5.619  69.558  1.00  0.00    -0.334 OA 
BRANCH  16  17
HETATM   17  C   UNL     1     -10.090   6.102  68.571  1.00  0.00    -0.162 C  
BRANCH  17  18
HETATM   18  C   UNL     1      -8.655   5.613  68.819  1.00  0.00    -0.104 C  
HETATM   19  H   UNL     1      -6.933   6.364  69.448  1.00  0.00     0.000 HD 
HETATM   20  O   UNL     1      -7.821   6.667  69.295  1.00  0.00    -0.106 OA 
ENDBRANCH  17  18
BRANCH  17  21
HETATM   21  C   UNL     1     -10.586   5.600  67.204  1.00  0.00    -0.270 C  
HETATM   22  O   UNL     1     -10.230   4.228  67.022  1.00  0.00    -0.206 OA 
HETATM   23  H   UNL     1     -10.536   3.918  66.178  1.00  0.00     0.000 HD 
ENDBRANCH  17  21
ENDBRANCH  16  17
ENDBRANCH  15  16
ENDBRANCH  13  15
TORSDOF 5
ENDMDL
MODEL      208
REMARK 921   NORMALIZED FREE ENERGY PREDICTED BY IDOCK:   -3.05 KCAL/MOL
REMARK 922        TOTAL FREE ENERGY PREDICTED BY IDOCK:   -4.43 KCAL/MOL
REMARK 923 INTER-LIGAND FREE ENERGY PREDICTED BY IDOCK:   -4.10 KCAL/MOL
REMARK 924 INTRA-LIGAND FREE ENERGY PREDICTED BY IDOCK:   -0.33 KCAL/MOL
REMARK 927      BINDING AFFINITY PREDICTED BY RF-SCORE:    0.00 PKD
ROOT
HETATM    1  N   UNL     1      -5.910   8.793  63.568  1.00  0.00    -0.076 NA 
HETATM    2  C   UNL     1      -6.926   8.626  64.452  1.00  0.00    -0.081 C  
HETATM    3  H1  UNL     1      -5.138   8.127  63.547  1.00  0.00     0.000 HD 
HETATM    4  H2  UNL     1      -5.919   9.585  62.925  1.00  0.00     0.000 HD 
HETATM    5  N   UNL     1      -7.915   9.480  64.479  1.00  0.00    -0.125 NA 
HETATM    6  C   UNL     1      -8.843   9.195  65.425  1.00  0.00    -0.196 A  
HETATM    7  C   UNL     1      -8.856   8.147  66.318  1.00  0.00    -0.164 A  
HETATM    8  N   UNL     1      -9.958   8.201  67.135  1.00  0.00    -0.210 NA 
HETATM    9  C   UNL     1      -7.762   7.202  66.266  1.00  0.00    -0.100 C  
HETATM   10  N   UNL     1      -6.836   7.526  65.283  1.00  0.00    -0.047 N  
HETATM   11  O   UNL     1      -7.624   6.217  66.985  1.00  0.00    -0.092 OA 
HETATM   12  C   UNL     1     -10.608   9.277  66.741  1.00  0.00    -0.137 A  
HETATM   13  N   UNL     1      -9.973   9.907  65.701  1.00  0.00    -0.295 NA 
HETATM   14  H   UNL     1      -6.033   6.908  65.166  1.00  0.00     0.000 HD 
ENDROOT
BRANCH  13  15
HETATM   15  C   UNL     1     -10.452  11.069  64.985  1.00  0.00    -0.277 C  
BRANCH  15  16
HETATM   16  O   UNL     1     -10.234  12.284  65.713  1.00  0.00    -0.244 OA 
BRANCH  16  17
HETATM   17  C   UNL     1     -11.408  13.084  65.980  1.00  0.00    -0.310 C  
BRANCH  17  18
HETATM   18  C   UNL     1     -11.688  13.260  67.480  1.00  0.00    -0.366 C  
HETATM   19  H   UNL     1     -12.050  12.111  69.053  1.00  0.00     0.000 HD 
HETATM   20  O   UNL     1     -11.876  12.002  68.125  1.00  0.00    -0.393 OA 
ENDBRANCH  17  18
BRANCH  17  21
HETATM   21  C   UNL     1     -11.167  14.457  65.328  1.00  0.00    -0.345 C  
HETATM   22  O   UNL     1     -12.027  14.627  64.200  1.00  0.00    -0.643 OA 
HETATM   23  H   UNL     1     -11.878  15.475  63.798  1.00  0.00     0.000 HD 
ENDBRANCH  17  21
ENDBRANCH  16  17
ENDBRANCH  15  16
ENDBRANCH  13  15
TORSDOF 5
ENDMDL
MODEL      209
REMARK 921   NORMALIZED FREE ENERGY PREDICTED BY IDOCK:   -3.03 KCAL/MOL
REMARK 922        TOTAL FREE ENERGY PREDICTED BY IDOCK:   -4.40 KCAL/MOL
REMARK 923 INTER-LIGAND FREE ENERGY PREDICTED BY IDOCK:   -3.68 KCAL/MOL
REMARK 924 INTRA-LIGAND FREE ENERGY PREDICTED BY IDOCK:   -0.71 KCAL/MOL
REMARK 927      BINDING AFFINITY PREDICTED BY RF-SCORE:    0.00 PKD
ROOT
HETATM    1  N   UNL     1      -9.011  15.426  67.826  1.00  0.00    -0.172 NA 
HETATM    2  C   UNL     1      -8.637  14.138  68.026  1.00  0.00    -0.172 C  
HETATM    3  H1  UNL     1      -8.495  16.183  68.273  1.00  0.00     0.000 HD 
HETATM    4  H2  UNL     1      -9.810  15.638  67.227  1.00  0.00     0.000 HD 
HETATM    5  N   UNL     1      -9.298  13.169  67.453  1.00  0.00    -0.205 NA 
HETATM    6  C   UNL     1      -8.821  11.938  67.760  1.00  0.00    -0.166 A  
HETATM    7  C   UNL     1      -7.759  11.615  68.575  1.00  0.00    -0.134 A  
HETATM    8  N   UNL     1      -7.588  10.256  68.657  1.00  0.00    -0.085 NA 
HETATM    9  C   UNL     1      -7.027  12.699  69.192  1.00  0.00    -0.019 C  
HETATM   10  N   UNL     1      -7.543  13.942  68.848  1.00  0.00    -0.239 N  
HETATM   11  O   UNL     1      -6.060  12.586  69.938  1.00  0.00    -0.131 OA 
HETATM   12  C   UNL     1      -8.543   9.757  67.899  1.00  0.00    -0.125 A  
HETATM   13  N   UNL     1      -9.310  10.740  67.328  1.00  0.00    -0.151 NA 
HETATM   14  H   UNL     1      -7.083  14.769  69.229  1.00  0.00     0.000 HD 
ENDROOT
BRANCH  13  15
HETATM   15  C   UNL     1     -10.391  10.543  66.387  1.00  0.00    -0.221 C  
BRANCH  15  16
HETATM   16  O   UNL     1     -10.005   9.716  65.282  1.00  0.00    -0.295 OA 
BRANCH  16  17
HETATM   17  C   UNL     1      -9.810  10.394  64.020  1.00  0.00    -0.289 C  
BRANCH  17  18
HETATM   18  C   UNL     1     -10.163  11.887  64.078  1.00  0.00    -0.361 C  
HETATM   19  H   UNL     1     -11.560  13.098  63.364  1.00  0.00     0.000 HD 
HETATM   20  O   UNL     1     -11.342  12.173  63.328  1.00  0.00    -0.400 OA 
ENDBRANCH  17  18
BRANCH  17  21
HETATM   21  C   UNL     1      -8.326  10.222  63.649  1.00  0.00    -0.169 C  
HETATM   22  O   UNL     1      -7.495  10.813  64.648  1.00  0.00    -0.351 OA 
HETATM   23  H   UNL     1      -6.579  10.707  64.419  1.00  0.00     0.000 HD 
ENDBRANCH  17  21
ENDBRANCH  16  17
ENDBRANCH  15  16
ENDBRANCH  13  15
TORSDOF 5
ENDMDL
MODEL      210
REMARK 921   NORMALIZED FREE ENERGY PREDICTED BY IDOCK:   -3.03 KCAL/MOL
REMARK 922        TOTAL FREE ENERGY PREDICTED BY IDOCK:   -4.40 KCAL/MOL
REMARK 923 INTER-LIGAND FREE ENERGY PREDICTED BY IDOCK:   -4.06 KCAL/MOL
REMARK 924 INTRA-LIGAND FREE ENERGY PREDICTED BY IDOCK:   -0.34 KCAL/MOL
REMARK 927      BINDING AFFINITY PREDICTED BY RF-SCORE:    0.00 PKD
ROOT
HETATM    1  N   UNL     1     -11.526   4.471  65.265  1.00  0.00    -1.068 NA 
HETATM    2  C   UNL     1     -10.488   5.272  65.614  1.00  0.00     0.157 C  
HETATM    3  H1  UNL     1     -11.392   3.738  64.568  1.00  0.00     0.000 HD 
HETATM    4  H2  UNL     1     -12.440   4.602  65.698  1.00  0.00     0.000 HD 
HETATM    5  N   UNL     1     -10.660   6.211  66.506  1.00  0.00    -0.188 NA 
HETATM    6  C   UNL     1      -9.542   6.940  66.738  1.00  0.00    -0.168 A  
HETATM    7  C   UNL     1      -8.299   6.803  66.161  1.00  0.00    -0.130 A  
HETATM    8  N   UNL     1      -7.420   7.742  66.641  1.00  0.00    -0.087 NA 
HETATM    9  C   UNL     1      -8.120   5.750  65.186  1.00  0.00    -0.133 C  
HETATM   10  N   UNL     1      -9.286   5.023  64.981  1.00  0.00    -0.327 N  
HETATM   11  O   UNL     1      -7.083   5.492  64.584  1.00  0.00    -0.051 OA 
HETATM   12  C   UNL     1      -8.126   8.446  67.501  1.00  0.00    -0.110 A  
HETATM   13  N   UNL     1      -9.416   7.991  67.600  1.00  0.00    -0.143 NA 
HETATM   14  H   UNL     1      -9.252   4.251  64.315  1.00  0.00     0.000 HD 
ENDROOT
BRANCH  13  15
HETATM   15  C   UNL     1     -10.432   8.489  68.501  1.00  0.00    -0.167 C  
BRANCH  15  16
HETATM   16  O   UNL     1     -11.144   9.606  67.954  1.00  0.00    -0.205 OA 
BRANCH  16  17
HETATM   17  C   UNL     1     -10.865  10.892  68.554  1.00  0.00    -0.220 C  
BRANCH  17  18
HETATM   18  C   UNL     1     -10.759  12.026  67.524  1.00  0.00    -0.226 C  
HETATM   19  H   UNL     1     -11.192  12.322  65.613  1.00  0.00     0.000 HD 
HETATM   20  O   UNL     1     -11.258  11.621  66.250  1.00  0.00    -0.310 OA 
ENDBRANCH  17  18
BRANCH  17  21
HETATM   21  C   UNL     1     -12.015  11.182  69.535  1.00  0.00    -0.355 C  
HETATM   22  O   UNL     1     -11.686  10.702  70.839  1.00  0.00    -0.328 OA 
HETATM   23  H   UNL     1     -12.396  10.881  71.444  1.00  0.00     0.000 HD 
ENDBRANCH  17  21
ENDBRANCH  16  17
ENDBRANCH  15  16
ENDBRANCH  13  15
TORSDOF 5
ENDMDL
MODEL      211
REMARK 921   NORMALIZED FREE ENERGY PREDICTED BY IDOCK:   -3.02 KCAL/MOL
REMARK 922        TOTAL FREE ENERGY PREDICTED BY IDOCK:   -4.39 KCAL/MOL
REMARK 923 INTER-LIGAND FREE ENERGY PREDICTED BY IDOCK:   -4.04 KCAL/MOL
REMARK 924 INTRA-LIGAND FREE ENERGY PREDICTED BY IDOCK:   -0.35 KCAL/MOL
REMARK 927      BINDING AFFINITY PREDICTED BY RF-SCORE:    0.00 PKD
ROOT
HETATM    1  N   UNL     1      -7.112   7.268  65.800  1.00  0.00    -0.064 NA 
HETATM    2  C   UNL     1      -8.062   6.950  66.715  1.00  0.00    -0.109 C  
HETATM    3  H1  UNL     1      -6.834   6.585  65.096  1.00  0.00     0.000 HD 
HETATM    4  H2  UNL     1      -6.675   8.190  65.817  1.00  0.00     0.000 HD 
HETATM    5  N   UNL     1      -8.418   7.825  67.617  1.00  0.00    -0.120 NA 
HETATM    6  C   UNL     1      -9.361   7.360  68.472  1.00  0.00    -0.141 A  
HETATM    7  C   UNL     1      -9.959   6.120  68.489  1.00  0.00    -0.147 A  
HETATM    8  N   UNL     1     -10.859   6.014  69.520  1.00  0.00    -0.335 NA 
HETATM    9  C   UNL     1      -9.566   5.167  67.475  1.00  0.00    -0.140 C  
HETATM   10  N   UNL     1      -8.602   5.683  66.617  1.00  0.00    -0.116 N  
HETATM   11  O   UNL     1     -10.000   4.027  67.347  1.00  0.00    -0.131 OA 
HETATM   12  C   UNL     1     -10.804   7.182  70.127  1.00  0.00    -0.257 A  
HETATM   13  N   UNL     1      -9.916   8.033  69.521  1.00  0.00    -0.182 NA 
HETATM   14  H   UNL     1      -8.271   5.083  65.861  1.00  0.00     0.000 HD 
ENDROOT
BRANCH  13  15
HETATM   15  C   UNL     1      -9.668   9.411  69.886  1.00  0.00    -0.212 C  
BRANCH  15  16
HETATM   16  O   UNL     1     -10.729   9.964  70.674  1.00  0.00    -0.296 OA 
BRANCH  16  17
HETATM   17  C   UNL     1     -11.422  11.096  70.101  1.00  0.00    -0.272 C  
BRANCH  17  18
HETATM   18  C   UNL     1     -11.886  10.849  68.657  1.00  0.00    -0.199 C  
HETATM   19  H   UNL     1     -12.411  11.922  67.077  1.00  0.00     0.000 HD 
HETATM   20  O   UNL     1     -12.124  12.075  67.970  1.00  0.00    -0.514 OA 
ENDBRANCH  17  18
BRANCH  17  21
HETATM   21  C   UNL     1     -12.639  11.374  71.001  1.00  0.00    -0.386 C  
HETATM   22  O   UNL     1     -12.788  10.332  71.967  1.00  0.00    -0.417 OA 
HETATM   23  H   UNL     1     -13.539  10.504  72.522  1.00  0.00     0.000 HD 
ENDBRANCH  17  21
ENDBRANCH  16  17
ENDBRANCH  15  16
ENDBRANCH  13  15
TORSDOF 5
ENDMDL
MODEL      212
REMARK 921   NORMALIZED FREE ENERGY PREDICTED BY IDOCK:   -3.01 KCAL/MOL
REMARK 922        TOTAL FREE ENERGY PREDICTED BY IDOCK:   -4.37 KCAL/MOL
REMARK 923 INTER-LIGAND FREE ENERGY PREDICTED BY IDOCK:   -3.99 KCAL/MOL
REMARK 924 INTRA-LIGAND FREE ENERGY PREDICTED BY IDOCK:   -0.39 KCAL/MOL
REMARK 927      BINDING AFFINITY PREDICTED BY RF-SCORE:    0.00 PKD
ROOT
HETATM    1  N   UNL     1     -11.020   8.617  67.019  1.00  0.00    -0.271 NA 
HETATM    2  C   UNL     1     -10.693   7.338  67.331  1.00  0.00    -0.288 C  
HETATM    3  H1  UNL     1     -11.156   8.885  66.044  1.00  0.00     0.000 HD 
HETATM    4  H2  UNL     1     -11.131   9.310  67.759  1.00  0.00     0.000 HD 
HETATM    5  N   UNL     1     -10.520   6.995  68.579  1.00  0.00    -0.193 NA 
HETATM    6  C   UNL     1     -10.178   5.693  68.734  1.00  0.00    -0.204 A  
HETATM    7  C   UNL     1     -10.005   4.735  67.761  1.00  0.00    -0.112 A  
HETATM    8  N   UNL     1      -9.642   3.529  68.306  1.00  0.00    -0.143 NA 
HETATM    9  C   UNL     1     -10.214   5.126  66.384  1.00  0.00    -0.266 C  
HETATM   10  N   UNL     1     -10.567   6.465  66.268  1.00  0.00    -0.451 N  
HETATM   11  O   UNL     1     -10.104   4.399  65.402  1.00  0.00    -0.208 OA 
HETATM   12  C   UNL     1      -9.594   3.754  69.603  1.00  0.00    -0.172 A  
HETATM   13  N   UNL     1      -9.920   5.050  69.910  1.00  0.00    -0.231 NA 
HETATM   14  H   UNL     1     -10.745   6.828  65.332  1.00  0.00     0.000 HD 
ENDROOT
BRANCH  13  15
HETATM   15  C   UNL     1     -10.035   5.611  71.238  1.00  0.00    -0.195 C  
BRANCH  15  16
HETATM   16  O   UNL     1      -8.960   6.507  71.545  1.00  0.00    -0.140 OA 
BRANCH  16  17
HETATM   17  C   UNL     1      -9.339   7.783  72.111  1.00  0.00    -0.153 C  
BRANCH  17  18
HETATM   18  C   UNL     1     -10.608   7.705  72.972  1.00  0.00    -0.375 C  
HETATM   19  H   UNL     1     -12.430   8.487  72.982  1.00  0.00     0.000 HD 
HETATM   20  O   UNL     1     -11.644   8.535  72.449  1.00  0.00    -0.372 OA 
ENDBRANCH  17  18
BRANCH  17  21
HETATM   21  C   UNL     1      -8.153   8.257  72.969  1.00  0.00    -0.149 C  
HETATM   22  O   UNL     1      -6.930   7.720  72.464  1.00  0.00    -0.065 OA 
HETATM   23  H   UNL     1      -6.198   8.013  72.994  1.00  0.00     0.000 HD 
ENDBRANCH  17  21
ENDBRANCH  16  17
ENDBRANCH  15  16
ENDBRANCH  13  15
TORSDOF 5
ENDMDL
MODEL      213
REMARK 921   NORMALIZED FREE ENERGY PREDICTED BY IDOCK:   -2.98 KCAL/MOL
REMARK 922        TOTAL FREE ENERGY PREDICTED BY IDOCK:   -4.34 KCAL/MOL
REMARK 923 INTER-LIGAND FREE ENERGY PREDICTED BY IDOCK:   -3.63 KCAL/MOL
REMARK 924 INTRA-LIGAND FREE ENERGY PREDICTED BY IDOCK:   -0.71 KCAL/MOL
REMARK 927      BINDING AFFINITY PREDICTED BY RF-SCORE:    0.00 PKD
ROOT
HETATM    1  N   UNL     1      -7.808   3.386  71.180  1.00  0.00    -0.054 NA 
HETATM    2  C   UNL     1      -8.909   4.154  71.374  1.00  0.00    -0.108 C  
HETATM    3  H1  UNL     1      -7.387   2.891  71.966  1.00  0.00     0.000 HD 
HETATM    4  H2  UNL     1      -7.401   3.303  70.249  1.00  0.00     0.000 HD 
HETATM    5  N   UNL     1      -9.448   4.788  70.367  1.00  0.00    -0.157 NA 
HETATM    6  C   UNL     1     -10.528   5.529  70.716  1.00  0.00    -0.260 A  
HETATM    7  C   UNL     1     -11.094   5.676  71.963  1.00  0.00    -0.230 A  
HETATM    8  N   UNL     1     -12.171   6.525  71.924  1.00  0.00    -0.348 NA 
HETATM    9  C   UNL     1     -10.495   4.957  73.066  1.00  0.00    -0.199 C  
HETATM   10  N   UNL     1      -9.395   4.207  72.666  1.00  0.00    -0.120 N  
HETATM   11  O   UNL     1     -10.874   4.976  74.232  1.00  0.00    -0.320 OA 
HETATM   12  C   UNL     1     -12.257   6.893  70.663  1.00  0.00    -0.258 A  
HETATM   13  N   UNL     1     -11.286   6.307  69.891  1.00  0.00    -0.427 NA 
HETATM   14  H   UNL     1      -8.914   3.657  73.377  1.00  0.00     0.000 HD 
ENDROOT
BRANCH  13  15
HETATM   15  C   UNL     1     -11.140   6.435  68.458  1.00  0.00    -0.300 C  
BRANCH  15  16
HETATM   16  O   UNL     1      -9.780   6.665  68.069  1.00  0.00    -0.123 OA 
BRANCH  16  17
HETATM   17  C   UNL     1      -9.380   6.107  66.797  1.00  0.00    -0.140 C  
BRANCH  17  18
HETATM   18  C   UNL     1      -7.859   5.932  66.669  1.00  0.00    -0.101 C  
HETATM   19  H   UNL     1      -6.312   5.589  67.859  1.00  0.00     0.000 HD 
HETATM   20  O   UNL     1      -7.253   5.697  67.938  1.00  0.00    -0.070 OA 
ENDBRANCH  17  18
BRANCH  17  21
HETATM   21  C   UNL     1     -10.076   4.741  66.673  1.00  0.00    -0.245 C  
HETATM   22  O   UNL     1      -9.349   3.747  67.397  1.00  0.00    -0.169 OA 
HETATM   23  H   UNL     1      -9.779   2.904  67.321  1.00  0.00     0.000 HD 
ENDBRANCH  17  21
ENDBRANCH  16  17
ENDBRANCH  15  16
ENDBRANCH  13  15
TORSDOF 5
ENDMDL
MODEL      214
REMARK 921   NORMALIZED FREE ENERGY PREDICTED BY IDOCK:   -2.97 KCAL/MOL
REMARK 922        TOTAL FREE ENERGY PREDICTED BY IDOCK:   -4.33 KCAL/MOL
REMARK 923 INTER-LIGAND FREE ENERGY PREDICTED BY IDOCK:   -3.98 KCAL/MOL
REMARK 924 INTRA-LIGAND FREE ENERGY PREDICTED BY IDOCK:   -0.35 KCAL/MOL
REMARK 927      BINDING AFFINITY PREDICTED BY RF-SCORE:    0.00 PKD
ROOT
HETATM    1  N   UNL     1      -8.809   7.390  65.953  1.00  0.00    -0.275 NA 
HETATM    2  C   UNL     1      -9.432   8.452  66.524  1.00  0.00    -0.220 C  
HETATM    3  H1  UNL     1      -8.542   7.425  64.970  1.00  0.00     0.000 HD 
HETATM    4  H2  UNL     1      -8.607   6.559  66.508  1.00  0.00     0.000 HD 
HETATM    5  N   UNL     1      -9.774   8.408  67.784  1.00  0.00    -0.156 NA 
HETATM    6  C   UNL     1     -10.403   9.530  68.208  1.00  0.00    -0.207 A  
HETATM    7  C   UNL     1     -10.706  10.663  67.485  1.00  0.00    -0.272 A  
HETATM    8  N   UNL     1     -11.366  11.586  68.257  1.00  0.00    -0.259 NA 
HETATM    9  C   UNL     1     -10.308  10.703  66.095  1.00  0.00    -0.227 C  
HETATM   10  N   UNL     1      -9.663   9.537  65.701  1.00  0.00    -0.289 N  
HETATM   11  O   UNL     1     -10.498  11.631  65.316  1.00  0.00    -0.254 OA 
HETATM   12  C   UNL     1     -11.465  11.016  69.441  1.00  0.00    -0.294 A  
HETATM   13  N   UNL     1     -10.888   9.772  69.460  1.00  0.00    -0.234 NA 
HETATM   14  H   UNL     1      -9.337   9.479  64.737  1.00  0.00     0.000 HD 
ENDROOT
BRANCH  13  15
HETATM   15  C   UNL     1     -10.757   8.908  70.613  1.00  0.00    -0.234 C  
BRANCH  15  16
HETATM   16  O   UNL     1      -9.419   8.886  71.125  1.00  0.00    -0.216 OA 
BRANCH  16  17
HETATM   17  C   UNL     1      -9.131   7.862  72.106  1.00  0.00    -0.150 C  
BRANCH  17  18
HETATM   18  C   UNL     1     -10.223   6.785  72.187  1.00  0.00    -0.193 C  
HETATM   19  H   UNL     1     -11.487   6.070  73.535  1.00  0.00     0.000 HD 
HETATM   20  O   UNL     1     -10.812   6.737  73.485  1.00  0.00    -0.295 OA 
ENDBRANCH  17  18
BRANCH  17  21
HETATM   21  C   UNL     1      -7.793   7.221  71.699  1.00  0.00    -0.091 C  
HETATM   22  O   UNL     1      -7.946   5.809  71.548  1.00  0.00    -0.109 OA 
HETATM   23  H   UNL     1      -7.119   5.414  71.297  1.00  0.00     0.000 HD 
ENDBRANCH  17  21
ENDBRANCH  16  17
ENDBRANCH  15  16
ENDBRANCH  13  15
TORSDOF 5
ENDMDL
MODEL      215
REMARK 921   NORMALIZED FREE ENERGY PREDICTED BY IDOCK:   -2.96 KCAL/MOL
REMARK 922        TOTAL FREE ENERGY PREDICTED BY IDOCK:   -4.31 KCAL/MOL
REMARK 923 INTER-LIGAND FREE ENERGY PREDICTED BY IDOCK:   -3.73 KCAL/MOL
REMARK 924 INTRA-LIGAND FREE ENERGY PREDICTED BY IDOCK:   -0.58 KCAL/MOL
REMARK 927      BINDING AFFINITY PREDICTED BY RF-SCORE:    0.00 PKD
ROOT
HETATM    1  N   UNL     1     -10.869   4.724  65.479  1.00  0.00    -0.761 NA 
HETATM    2  C   UNL     1     -10.678   5.440  66.615  1.00  0.00    -0.236 C  
HETATM    3  H1  UNL     1     -11.088   5.204  64.605  1.00  0.00     0.000 HD 
HETATM    4  H2  UNL     1     -10.795   3.707  65.497  1.00  0.00     0.000 HD 
HETATM    5  N   UNL     1     -10.398   4.825  67.734  1.00  0.00    -0.017 NA 
HETATM    6  C   UNL     1     -10.253   5.667  68.786  1.00  0.00    -0.204 A  
HETATM    7  C   UNL     1     -10.362   7.040  68.801  1.00  0.00    -0.187 A  
HETATM    8  N   UNL     1     -10.164   7.542  70.063  1.00  0.00    -0.210 NA 
HETATM    9  C   UNL     1     -10.657   7.707  67.552  1.00  0.00    -0.252 C  
HETATM   10  N   UNL     1     -10.794   6.811  66.499  1.00  0.00    -0.488 N  
HETATM   11  O   UNL     1     -10.784   8.917  67.392  1.00  0.00    -0.272 OA 
HETATM   12  C   UNL     1      -9.940   6.480  70.809  1.00  0.00    -0.184 A  
HETATM   13  N   UNL     1      -9.975   5.322  70.076  1.00  0.00    -0.222 NA 
HETATM   14  H   UNL     1     -10.993   7.194  65.575  1.00  0.00     0.000 HD 
ENDROOT
BRANCH  13  15
HETATM   15  C   UNL     1      -9.699   3.990  70.568  1.00  0.00    -0.188 C  
BRANCH  15  16
HETATM   16  O   UNL     1      -9.818   3.902  71.994  1.00  0.00    -0.158 OA 
BRANCH  16  17
HETATM   17  C   UNL     1      -8.661   3.394  72.697  1.00  0.00    -0.085 C  
BRANCH  17  18
HETATM   18  C   UNL     1      -7.336   3.731  71.997  1.00  0.00    -0.056 C  
HETATM   19  H   UNL     1      -5.396   3.545  72.352  1.00  0.00     0.000 HD 
HETATM   20  O   UNL     1      -6.215   3.336  72.785  1.00  0.00    -0.009 OA 
ENDBRANCH  17  18
BRANCH  17  21
HETATM   21  C   UNL     1      -8.685   4.022  74.102  1.00  0.00    -0.096 C  
HETATM   22  O   UNL     1      -7.997   5.274  74.096  1.00  0.00    -0.102 OA 
HETATM   23  H   UNL     1      -8.012   5.662  74.963  1.00  0.00     0.000 HD 
ENDBRANCH  17  21
ENDBRANCH  16  17
ENDBRANCH  15  16
ENDBRANCH  13  15
TORSDOF 5
ENDMDL
MODEL      216
REMARK 921   NORMALIZED FREE ENERGY PREDICTED BY IDOCK:   -2.95 KCAL/MOL
REMARK 922        TOTAL FREE ENERGY PREDICTED BY IDOCK:   -4.30 KCAL/MOL
REMARK 923 INTER-LIGAND FREE ENERGY PREDICTED BY IDOCK:   -3.81 KCAL/MOL
REMARK 924 INTRA-LIGAND FREE ENERGY PREDICTED BY IDOCK:   -0.49 KCAL/MOL
REMARK 927      BINDING AFFINITY PREDICTED BY RF-SCORE:    0.00 PKD
ROOT
HETATM    1  N   UNL     1      -9.823   9.025  65.563  1.00  0.00    -0.436 NA 
HETATM    2  C   UNL     1     -10.114   9.319  66.855  1.00  0.00    -0.256 C  
HETATM    3  H1  UNL     1     -10.217   9.589  64.811  1.00  0.00     0.000 HD 
HETATM    4  H2  UNL     1      -9.210   8.240  65.344  1.00  0.00     0.000 HD 
HETATM    5  N   UNL     1      -9.608   8.596  67.819  1.00  0.00    -0.145 NA 
HETATM    6  C   UNL     1     -10.002   8.997  69.052  1.00  0.00    -0.185 A  
HETATM    7  C   UNL     1     -10.838  10.039  69.384  1.00  0.00    -0.239 A  
HETATM    8  N   UNL     1     -11.015  10.124  70.742  1.00  0.00    -0.307 NA 
HETATM    9  C   UNL     1     -11.378  10.840  68.307  1.00  0.00    -0.309 C  
HETATM   10  N   UNL     1     -10.948  10.401  67.061  1.00  0.00    -0.208 N  
HETATM   11  O   UNL     1     -12.132  11.800  68.429  1.00  0.00    -0.490 OA 
HETATM   12  C   UNL     1     -10.293   9.138  71.231  1.00  0.00    -0.334 A  
HETATM   13  N   UNL     1      -9.654   8.432  70.244  1.00  0.00    -0.164 NA 
HETATM   14  H   UNL     1     -11.272  10.913  66.241  1.00  0.00     0.000 HD 
ENDROOT
BRANCH  13  15
HETATM   15  C   UNL     1      -8.728   7.338  70.438  1.00  0.00    -0.146 C  
BRANCH  15  16
HETATM   16  O   UNL     1      -9.341   6.062  70.216  1.00  0.00    -0.156 OA 
BRANCH  16  17
HETATM   17  C   UNL     1      -8.929   4.997  71.104  1.00  0.00    -0.137 C  
BRANCH  17  18
HETATM   18  C   UNL     1      -9.837   3.761  71.022  1.00  0.00    -0.134 C  
HETATM   19  H   UNL     1      -9.715   1.885  70.396  1.00  0.00     0.000 HD 
HETATM   20  O   UNL     1      -9.153   2.649  70.447  1.00  0.00    -0.087 OA 
ENDBRANCH  17  18
BRANCH  17  21
HETATM   21  C   UNL     1      -7.492   4.618  70.706  1.00  0.00    -0.053 C  
HETATM   22  O   UNL     1      -6.889   3.824  71.729  1.00  0.00    -0.025 OA 
HETATM   23  H   UNL     1      -6.002   3.589  71.483  1.00  0.00     0.000 HD 
ENDBRANCH  17  21
ENDBRANCH  16  17
ENDBRANCH  15  16
ENDBRANCH  13  15
TORSDOF 5
ENDMDL
MODEL      217
REMARK 921   NORMALIZED FREE ENERGY PREDICTED BY IDOCK:   -2.93 KCAL/MOL
REMARK 922        TOTAL FREE ENERGY PREDICTED BY IDOCK:   -4.27 KCAL/MOL
REMARK 923 INTER-LIGAND FREE ENERGY PREDICTED BY IDOCK:   -3.32 KCAL/MOL
REMARK 924 INTRA-LIGAND FREE ENERGY PREDICTED BY IDOCK:   -0.95 KCAL/MOL
REMARK 927      BINDING AFFINITY PREDICTED BY RF-SCORE:    0.00 PKD
ROOT
HETATM    1  N   UNL     1     -10.699   4.422  65.058  1.00  0.00    -0.647 NA 
HETATM    2  C   UNL     1     -10.506   5.031  66.254  1.00  0.00    -0.303 C  
HETATM    3  H1  UNL     1     -10.973   4.972  64.244  1.00  0.00     0.000 HD 
HETATM    4  H2  UNL     1     -10.568   3.414  64.972  1.00  0.00     0.000 HD 
HETATM    5  N   UNL     1     -10.155   4.326  67.297  1.00  0.00    -0.080 NA 
HETATM    6  C   UNL     1     -10.019   5.067  68.423  1.00  0.00    -0.136 A  
HETATM    7  C   UNL     1     -10.202   6.423  68.579  1.00  0.00    -0.175 A  
HETATM    8  N   UNL     1      -9.988   6.809  69.879  1.00  0.00    -0.171 NA 
HETATM    9  C   UNL     1     -10.577   7.193  67.413  1.00  0.00    -0.302 C  
HETATM   10  N   UNL     1     -10.701   6.399  66.280  1.00  0.00    -0.435 N  
HETATM   11  O   UNL     1     -10.775   8.403  67.379  1.00  0.00    -0.269 OA 
HETATM   12  C   UNL     1      -9.680   5.694  70.508  1.00  0.00    -0.180 A  
HETATM   13  N   UNL     1      -9.678   4.613  69.664  1.00  0.00    -0.196 NA 
HETATM   14  H   UNL     1     -10.953   6.858  65.405  1.00  0.00     0.000 HD 
ENDROOT
BRANCH  13  15
HETATM   15  C   UNL     1      -9.313   3.257  70.011  1.00  0.00    -0.168 C  
BRANCH  15  16
HETATM   16  O   UNL     1      -7.933   3.144  70.381  1.00  0.00    -0.043 OA 
BRANCH  16  17
HETATM   17  C   UNL     1      -7.065   2.522  69.406  1.00  0.00    -0.044 C  
BRANCH  17  18
HETATM   18  C   UNL     1      -7.833   1.770  68.309  1.00  0.00    -0.053 C  
HETATM   19  H   UNL     1      -7.555   1.236  66.421  1.00  0.00     0.000 HD 
HETATM   20  O   UNL     1      -7.080   1.701  67.100  1.00  0.00    -0.038 OA 
ENDBRANCH  17  18
BRANCH  17  21
HETATM   21  C   UNL     1      -6.225   3.648  68.778  1.00  0.00    -0.029 C  
HETATM   22  O   UNL     1      -6.995   4.356  67.806  1.00  0.00    -0.054 OA 
HETATM   23  H   UNL     1      -6.476   5.052  67.418  1.00  0.00     0.000 HD 
ENDBRANCH  17  21
ENDBRANCH  16  17
ENDBRANCH  15  16
ENDBRANCH  13  15
TORSDOF 5
ENDMDL
MODEL      218
REMARK 921   NORMALIZED FREE ENERGY PREDICTED BY IDOCK:   -2.92 KCAL/MOL
REMARK 922        TOTAL FREE ENERGY PREDICTED BY IDOCK:   -4.26 KCAL/MOL
REMARK 923 INTER-LIGAND FREE ENERGY PREDICTED BY IDOCK:   -3.77 KCAL/MOL
REMARK 924 INTRA-LIGAND FREE ENERGY PREDICTED BY IDOCK:   -0.49 KCAL/MOL
REMARK 927      BINDING AFFINITY PREDICTED BY RF-SCORE:    0.00 PKD
ROOT
HETATM    1  N   UNL     1      -5.915   6.872  65.115  1.00  0.00    -0.035 NA 
HETATM    2  C   UNL     1      -7.176   7.063  65.579  1.00  0.00    -0.070 C  
HETATM    3  H1  UNL     1      -5.599   5.934  64.869  1.00  0.00     0.000 HD 
HETATM    4  H2  UNL     1      -5.284   7.666  65.013  1.00  0.00     0.000 HD 
HETATM    5  N   UNL     1      -7.580   8.265  65.894  1.00  0.00    -0.080 NA 
HETATM    6  C   UNL     1      -8.852   8.297  66.359  1.00  0.00    -0.152 A  
HETATM    7  C   UNL     1      -9.727   7.246  66.526  1.00  0.00    -0.140 A  
HETATM    8  N   UNL     1     -10.926   7.671  67.039  1.00  0.00    -0.165 NA 
HETATM    9  C   UNL     1      -9.270   5.923  66.159  1.00  0.00    -0.150 C  
HETATM   10  N   UNL     1      -7.964   5.933  65.683  1.00  0.00    -0.112 N  
HETATM   11  O   UNL     1      -9.919   4.886  66.241  1.00  0.00    -0.186 OA 
HETATM   12  C   UNL     1     -10.780   8.972  67.186  1.00  0.00    -0.136 A  
HETATM   13  N   UNL     1      -9.542   9.397  66.778  1.00  0.00    -0.167 NA 
HETATM   14  H   UNL     1      -7.560   5.044  65.390  1.00  0.00     0.000 HD 
ENDROOT
BRANCH  13  15
HETATM   15  C   UNL     1      -9.080  10.767  66.736  1.00  0.00    -0.154 C  
BRANCH  15  16
HETATM   16  O   UNL     1      -8.986  11.268  65.397  1.00  0.00    -0.181 OA 
BRANCH  16  17
HETATM   17  C   UNL     1     -10.223  11.317  64.649  1.00  0.00    -0.301 C  
BRANCH  17  18
HETATM   18  C   UNL     1     -10.914  12.687  64.720  1.00  0.00    -0.302 C  
HETATM   19  H   UNL     1     -11.941  13.880  63.517  1.00  0.00     0.000 HD 
HETATM   20  O   UNL     1     -11.514  13.032  63.473  1.00  0.00    -0.446 OA 
ENDBRANCH  17  18
BRANCH  17  21
HETATM   21  C   UNL     1      -9.873  10.982  63.189  1.00  0.00    -0.363 C  
HETATM   22  O   UNL     1      -8.718  11.715  62.777  1.00  0.00    -0.634 OA 
HETATM   23  H   UNL     1      -8.501  11.509  61.875  1.00  0.00     0.000 HD 
ENDBRANCH  17  21
ENDBRANCH  16  17
ENDBRANCH  15  16
ENDBRANCH  13  15
TORSDOF 5
ENDMDL
MODEL      219
REMARK 921   NORMALIZED FREE ENERGY PREDICTED BY IDOCK:   -2.92 KCAL/MOL
REMARK 922        TOTAL FREE ENERGY PREDICTED BY IDOCK:   -4.25 KCAL/MOL
REMARK 923 INTER-LIGAND FREE ENERGY PREDICTED BY IDOCK:   -3.98 KCAL/MOL
REMARK 924 INTRA-LIGAND FREE ENERGY PREDICTED BY IDOCK:   -0.28 KCAL/MOL
REMARK 927      BINDING AFFINITY PREDICTED BY RF-SCORE:    0.00 PKD
ROOT
HETATM    1  N   UNL     1     -10.653   9.969  67.474  1.00  0.00    -0.262 NA 
HETATM    2  C   UNL     1     -11.026   9.719  68.754  1.00  0.00    -0.148 C  
HETATM    3  H1  UNL     1     -10.984  10.809  67.001  1.00  0.00     0.000 HD 
HETATM    4  H2  UNL     1     -10.041   9.316  66.984  1.00  0.00     0.000 HD 
HETATM    5  N   UNL     1     -10.602   8.641  69.359  1.00  0.00    -0.218 NA 
HETATM    6  C   UNL     1     -11.072   8.517  70.624  1.00  0.00    -0.252 A  
HETATM    7  C   UNL     1     -11.910   9.368  71.310  1.00  0.00    -0.360 A  
HETATM    8  N   UNL     1     -12.179   8.895  72.570  1.00  0.00    -0.296 NA 
HETATM    9  C   UNL     1     -12.360  10.564  70.632  1.00  0.00    -0.356 C  
HETATM   10  N   UNL     1     -11.853  10.657  69.342  1.00  0.00    -0.442 N  
HETATM   11  O   UNL     1     -13.102  11.422  71.098  1.00  0.00    -0.294 OA 
HETATM   12  C   UNL     1     -11.510   7.763  72.647  1.00  0.00    -0.375 A  
HETATM   13  N   UNL     1     -10.817   7.497  71.494  1.00  0.00    -0.226 NA 
HETATM   14  H   UNL     1     -12.109  11.475  68.790  1.00  0.00     0.000 HD 
ENDROOT
BRANCH  13  15
HETATM   15  C   UNL     1      -9.927   6.379  71.270  1.00  0.00    -0.182 C  
BRANCH  15  16
HETATM   16  O   UNL     1      -8.855   6.339  72.220  1.00  0.00    -0.136 OA 
BRANCH  16  17
HETATM   17  C   UNL     1      -7.924   5.242  72.080  1.00  0.00    -0.110 C  
BRANCH  17  18
HETATM   18  C   UNL     1      -6.858   5.213  73.186  1.00  0.00    -0.074 C  
HETATM   19  H   UNL     1      -6.793   5.129  75.165  1.00  0.00     0.000 HD 
HETATM   20  O   UNL     1      -7.453   5.147  74.481  1.00  0.00    -0.088 OA 
ENDBRANCH  17  18
BRANCH  17  21
HETATM   21  C   UNL     1      -8.755   3.947  72.122  1.00  0.00    -0.104 C  
HETATM   22  O   UNL     1      -7.919   2.815  71.879  1.00  0.00    -0.052 OA 
HETATM   23  H   UNL     1      -8.432   2.015  71.905  1.00  0.00     0.000 HD 
ENDBRANCH  17  21
ENDBRANCH  16  17
ENDBRANCH  15  16
ENDBRANCH  13  15
TORSDOF 5
ENDMDL
MODEL      220
REMARK 921   NORMALIZED FREE ENERGY PREDICTED BY IDOCK:   -2.90 KCAL/MOL
REMARK 922        TOTAL FREE ENERGY PREDICTED BY IDOCK:   -4.23 KCAL/MOL
REMARK 923 INTER-LIGAND FREE ENERGY PREDICTED BY IDOCK:   -4.06 KCAL/MOL
REMARK 924 INTRA-LIGAND FREE ENERGY PREDICTED BY IDOCK:   -0.17 KCAL/MOL
REMARK 927      BINDING AFFINITY PREDICTED BY RF-SCORE:    0.00 PKD
ROOT
HETATM    1  N   UNL     1     -11.928   5.620  72.689  1.00  0.00    -0.470 NA 
HETATM    2  C   UNL     1     -11.874   6.848  72.115  1.00  0.00    -0.281 C  
HETATM    3  H1  UNL     1     -12.660   5.406  73.366  1.00  0.00     0.000 HD 
HETATM    4  H2  UNL     1     -11.238   4.911  72.442  1.00  0.00     0.000 HD 
HETATM    5  N   UNL     1     -10.937   7.122  71.247  1.00  0.00    -0.238 NA 
HETATM    6  C   UNL     1     -10.999   8.390  70.774  1.00  0.00    -0.247 A  
HETATM    7  C   UNL     1     -11.904   9.377  71.095  1.00  0.00    -0.338 A  
HETATM    8  N   UNL     1     -11.634  10.541  70.422  1.00  0.00    -0.319 NA 
HETATM    9  C   UNL     1     -12.945   9.054  72.047  1.00  0.00    -0.407 C  
HETATM   10  N   UNL     1     -12.850   7.745  72.503  1.00  0.00    -0.518 N  
HETATM   11  O   UNL     1     -13.827   9.812  72.437  1.00  0.00    -0.330 OA 
HETATM   12  C   UNL     1     -10.568  10.264  69.698  1.00  0.00    -0.256 A  
HETATM   13  N   UNL     1     -10.153   8.969  69.873  1.00  0.00    -0.193 NA 
HETATM   14  H   UNL     1     -13.550   7.425  73.172  1.00  0.00     0.000 HD 
ENDROOT
BRANCH  13  15
HETATM   15  C   UNL     1      -9.064   8.319  69.178  1.00  0.00    -0.148 C  
BRANCH  15  16
HETATM   16  O   UNL     1      -8.263   7.515  70.054  1.00  0.00    -0.125 OA 
BRANCH  16  17
HETATM   17  C   UNL     1      -7.138   8.179  70.673  1.00  0.00    -0.045 C  
BRANCH  17  18
HETATM   18  C   UNL     1      -6.000   7.215  71.042  1.00  0.00    -0.036 C  
HETATM   19  H   UNL     1      -4.790   6.886  72.576  1.00  0.00     0.000 HD 
HETATM   20  O   UNL     1      -5.494   7.483  72.348  1.00  0.00    -0.037 OA 
ENDBRANCH  17  18
BRANCH  17  21
HETATM   21  C   UNL     1      -6.631   9.226  69.666  1.00  0.00    -0.043 C  
HETATM   22  O   UNL     1      -5.354   8.842  69.155  1.00  0.00    -0.035 OA 
HETATM   23  H   UNL     1      -5.040   9.488  68.533  1.00  0.00     0.000 HD 
ENDBRANCH  17  21
ENDBRANCH  16  17
ENDBRANCH  15  16
ENDBRANCH  13  15
TORSDOF 5
ENDMDL
MODEL      221
REMARK 921   NORMALIZED FREE ENERGY PREDICTED BY IDOCK:   -2.89 KCAL/MOL
REMARK 922        TOTAL FREE ENERGY PREDICTED BY IDOCK:   -4.22 KCAL/MOL
REMARK 923 INTER-LIGAND FREE ENERGY PREDICTED BY IDOCK:   -3.79 KCAL/MOL
REMARK 924 INTRA-LIGAND FREE ENERGY PREDICTED BY IDOCK:   -0.43 KCAL/MOL
REMARK 927      BINDING AFFINITY PREDICTED BY RF-SCORE:    0.00 PKD
ROOT
HETATM    1  N   UNL     1     -12.521  14.426  66.932  1.00  0.00    -0.510 NA 
HETATM    2  C   UNL     1     -11.316  13.962  67.349  1.00  0.00    -0.326 C  
HETATM    3  H1  UNL     1     -12.748  15.415  67.032  1.00  0.00     0.000 HD 
HETATM    4  H2  UNL     1     -13.199  13.786  66.519  1.00  0.00     0.000 HD 
HETATM    5  N   UNL     1     -11.025  12.694  67.221  1.00  0.00    -0.248 NA 
HETATM    6  C   UNL     1      -9.797  12.376  67.698  1.00  0.00    -0.198 A  
HETATM    7  C   UNL     1      -8.864  13.208  68.275  1.00  0.00    -0.175 A  
HETATM    8  N   UNL     1      -7.741  12.515  68.650  1.00  0.00    -0.100 NA 
HETATM    9  C   UNL     1      -9.195  14.611  68.397  1.00  0.00    -0.197 C  
HETATM   10  N   UNL     1     -10.458  14.897  67.893  1.00  0.00    -0.248 N  
HETATM   11  O   UNL     1      -8.480  15.482  68.881  1.00  0.00    -0.174 OA 
HETATM   12  C   UNL     1      -7.992  11.269  68.304  1.00  0.00    -0.134 A  
HETATM   13  N   UNL     1      -9.223  11.138  67.715  1.00  0.00    -0.150 NA 
HETATM   14  H   UNL     1     -10.773  15.867  67.928  1.00  0.00     0.000 HD 
ENDROOT
BRANCH  13  15
HETATM   15  C   UNL     1      -9.779   9.926  67.155  1.00  0.00    -0.178 C  
BRANCH  15  16
HETATM   16  O   UNL     1     -10.804   9.364  67.985  1.00  0.00    -0.220 OA 
BRANCH  16  17
HETATM   17  C   UNL     1     -10.448   8.163  68.707  1.00  0.00    -0.174 C  
BRANCH  17  18
HETATM   18  C   UNL     1      -9.078   7.600  68.299  1.00  0.00    -0.136 C  
HETATM   19  H   UNL     1      -8.337   5.906  67.585  1.00  0.00     0.000 HD 
HETATM   20  O   UNL     1      -9.185   6.255  67.837  1.00  0.00    -0.119 OA 
ENDBRANCH  17  18
BRANCH  17  21
HETATM   21  C   UNL     1     -10.438   8.530  70.201  1.00  0.00    -0.220 C  
HETATM   22  O   UNL     1     -11.566   7.952  70.860  1.00  0.00    -0.284 OA 
HETATM   23  H   UNL     1     -11.560   8.179  71.783  1.00  0.00     0.000 HD 
ENDBRANCH  17  21
ENDBRANCH  16  17
ENDBRANCH  15  16
ENDBRANCH  13  15
TORSDOF 5
ENDMDL
MODEL      222
REMARK 921   NORMALIZED FREE ENERGY PREDICTED BY IDOCK:   -2.89 KCAL/MOL
REMARK 922        TOTAL FREE ENERGY PREDICTED BY IDOCK:   -4.22 KCAL/MOL
REMARK 923 INTER-LIGAND FREE ENERGY PREDICTED BY IDOCK:   -3.58 KCAL/MOL
REMARK 924 INTRA-LIGAND FREE ENERGY PREDICTED BY IDOCK:   -0.64 KCAL/MOL
REMARK 927      BINDING AFFINITY PREDICTED BY RF-SCORE:    0.00 PKD
ROOT
HETATM    1  N   UNL     1     -10.212   9.817  66.113  1.00  0.00    -0.242 NA 
HETATM    2  C   UNL     1     -10.390   9.176  67.295  1.00  0.00    -0.270 C  
HETATM    3  H1  UNL     1     -10.246  10.835  66.075  1.00  0.00     0.000 HD 
HETATM    4  H2  UNL     1     -10.043   9.280  65.262  1.00  0.00     0.000 HD 
HETATM    5  N   UNL     1     -10.347   7.871  67.344  1.00  0.00    -0.253 NA 
HETATM    6  C   UNL     1     -10.561   7.374  68.586  1.00  0.00    -0.154 A  
HETATM    7  C   UNL     1     -10.807   8.066  69.751  1.00  0.00    -0.194 A  
HETATM    8  N   UNL     1     -10.991   7.211  70.809  1.00  0.00    -0.245 NA 
HETATM    9  C   UNL     1     -10.838   9.510  69.684  1.00  0.00    -0.235 C  
HETATM   10  N   UNL     1     -10.609   9.980  68.397  1.00  0.00    -0.208 N  
HETATM   11  O   UNL     1     -11.040  10.272  70.624  1.00  0.00    -0.315 OA 
HETATM   12  C   UNL     1     -10.860   6.008  70.289  1.00  0.00    -0.329 A  
HETATM   13  N   UNL     1     -10.590   6.058  68.945  1.00  0.00    -0.257 NA 
HETATM   14  H   UNL     1     -10.603  10.990  68.256  1.00  0.00     0.000 HD 
ENDROOT
BRANCH  13  15
HETATM   15  C   UNL     1     -10.318   4.927  68.086  1.00  0.00     0.035 C  
BRANCH  15  16
HETATM   16  O   UNL     1      -8.925   4.807  67.769  1.00  0.00    -0.107 OA 
BRANCH  16  17
HETATM   17  C   UNL     1      -8.603   4.647  66.369  1.00  0.00    -0.112 C  
BRANCH  17  18
HETATM   18  C   UNL     1      -7.428   3.688  66.128  1.00  0.00    -0.080 C  
HETATM   19  H   UNL     1      -6.568   2.155  67.044  1.00  0.00     0.000 HD 
HETATM   20  O   UNL     1      -7.296   2.748  67.193  1.00  0.00    -0.056 OA 
ENDBRANCH  17  18
BRANCH  17  21
HETATM   21  C   UNL     1      -9.869   4.105  65.682  1.00  0.00    -0.205 C  
HETATM   22  O   UNL     1      -9.683   2.739  65.308  1.00  0.00    -0.353 OA 
HETATM   23  H   UNL     1     -10.465   2.404  64.884  1.00  0.00     0.000 HD 
ENDBRANCH  17  21
ENDBRANCH  16  17
ENDBRANCH  15  16
ENDBRANCH  13  15
TORSDOF 5
ENDMDL
MODEL      223
REMARK 921   NORMALIZED FREE ENERGY PREDICTED BY IDOCK:   -2.88 KCAL/MOL
REMARK 922        TOTAL FREE ENERGY PREDICTED BY IDOCK:   -4.20 KCAL/MOL
REMARK 923 INTER-LIGAND FREE ENERGY PREDICTED BY IDOCK:   -3.77 KCAL/MOL
REMARK 924 INTRA-LIGAND FREE ENERGY PREDICTED BY IDOCK:   -0.43 KCAL/MOL
REMARK 927      BINDING AFFINITY PREDICTED BY RF-SCORE:    0.00 PKD
ROOT
HETATM    1  N   UNL     1     -10.950   6.412  66.600  1.00  0.00    -0.671 NA 
HETATM    2  C   UNL     1      -9.951   7.323  66.707  1.00  0.00    -0.217 C  
HETATM    3  H1  UNL     1     -10.868   5.509  67.066  1.00  0.00     0.000 HD 
HETATM    4  H2  UNL     1     -11.784   6.630  66.054  1.00  0.00     0.000 HD 
HETATM    5  N   UNL     1     -10.057   8.481  66.110  1.00  0.00    -0.129 NA 
HETATM    6  C   UNL     1      -8.975   9.277  66.291  1.00  0.00    -0.159 A  
HETATM    7  C   UNL     1      -7.829   9.010  67.006  1.00  0.00    -0.098 A  
HETATM    8  N   UNL     1      -6.947  10.059  66.944  1.00  0.00    -0.087 NA 
HETATM    9  C   UNL     1      -7.733   7.730  67.673  1.00  0.00    -0.121 C  
HETATM   10  N   UNL     1      -8.862   6.946  67.468  1.00  0.00    -0.119 N  
HETATM   11  O   UNL     1      -6.788   7.338  68.349  1.00  0.00    -0.067 OA 
HETATM   12  C   UNL     1      -7.552  10.956  66.194  1.00  0.00    -0.119 A  
HETATM   13  N   UNL     1      -8.789  10.529  65.782  1.00  0.00    -0.168 NA 
HETATM   14  H   UNL     1      -8.887   6.028  67.911  1.00  0.00     0.000 HD 
ENDROOT
BRANCH  13  15
HETATM   15  C   UNL     1      -9.744  11.294  65.010  1.00  0.00    -0.251 C  
BRANCH  15  16
HETATM   16  O   UNL     1     -10.058  12.550  65.625  1.00  0.00    -0.265 OA 
BRANCH  16  17
HETATM   17  C   UNL     1     -10.810  12.482  66.858  1.00  0.00    -0.248 C  
BRANCH  17  18
HETATM   18  C   UNL     1     -10.185  13.314  67.989  1.00  0.00    -0.240 C  
HETATM   19  H   UNL     1      -8.470  14.231  68.365  1.00  0.00     0.000 HD 
HETATM   20  O   UNL     1      -8.856  13.717  67.665  1.00  0.00    -0.173 OA 
ENDBRANCH  17  18
BRANCH  17  21
HETATM   21  C   UNL     1     -12.223  13.003  66.545  1.00  0.00    -0.246 C  
HETATM   22  O   UNL     1     -12.256  13.595  65.246  1.00  0.00    -0.388 OA 
HETATM   23  H   UNL     1     -13.129  13.916  65.053  1.00  0.00     0.000 HD 
ENDBRANCH  17  21
ENDBRANCH  16  17
ENDBRANCH  15  16
ENDBRANCH  13  15
TORSDOF 5
ENDMDL
MODEL      224
REMARK 921   NORMALIZED FREE ENERGY PREDICTED BY IDOCK:   -2.87 KCAL/MOL
REMARK 922        TOTAL FREE ENERGY PREDICTED BY IDOCK:   -4.19 KCAL/MOL
REMARK 923 INTER-LIGAND FREE ENERGY PREDICTED BY IDOCK:   -4.09 KCAL/MOL
REMARK 924 INTRA-LIGAND FREE ENERGY PREDICTED BY IDOCK:   -0.11 KCAL/MOL
REMARK 927      BINDING AFFINITY PREDICTED BY RF-SCORE:    0.00 PKD
ROOT
HETATM    1  N   UNL     1      -8.055  11.104  67.510  1.00  0.00    -0.116 NA 
HETATM    2  C   UNL     1      -9.024  10.892  68.435  1.00  0.00    -0.154 C  
HETATM    3  H1  UNL     1      -8.184  11.813  66.789  1.00  0.00     0.000 HD 
HETATM    4  H2  UNL     1      -7.196  10.554  67.537  1.00  0.00     0.000 HD 
HETATM    5  N   UNL     1      -8.858   9.984  69.359  1.00  0.00    -0.178 NA 
HETATM    6  C   UNL     1      -9.917   9.873  70.197  1.00  0.00    -0.238 A  
HETATM    7  C   UNL     1     -11.095  10.585  70.182  1.00  0.00    -0.298 A  
HETATM    8  N   UNL     1     -11.938  10.177  71.185  1.00  0.00    -0.364 NA 
HETATM    9  C   UNL     1     -11.259  11.598  69.162  1.00  0.00    -0.263 C  
HETATM   10  N   UNL     1     -10.152  11.683  68.327  1.00  0.00    -0.196 N  
HETATM   11  O   UNL     1     -12.240  12.319  69.011  1.00  0.00    -0.198 OA 
HETATM   12  C   UNL     1     -11.277   9.220  71.804  1.00  0.00    -0.343 A  
HETATM   13  N   UNL     1     -10.042   9.008  71.245  1.00  0.00    -0.287 NA 
HETATM   14  H   UNL     1     -10.174  12.379  67.582  1.00  0.00     0.000 HD 
ENDROOT
BRANCH  13  15
HETATM   15  C   UNL     1      -9.035   8.086  71.723  1.00  0.00    -0.147 C  
BRANCH  15  16
HETATM   16  O   UNL     1      -9.280   6.742  71.290  1.00  0.00    -0.154 OA 
BRANCH  16  17
HETATM   17  C   UNL     1     -10.659   6.403  71.020  1.00  0.00    -0.234 C  
BRANCH  17  18
HETATM   18  C   UNL     1     -10.839   5.604  69.720  1.00  0.00    -0.300 C  
HETATM   19  H   UNL     1      -9.911   4.146  68.750  1.00  0.00     0.000 HD 
HETATM   20  O   UNL     1      -9.800   4.641  69.554  1.00  0.00    -0.196 OA 
ENDBRANCH  17  18
BRANCH  17  21
HETATM   21  C   UNL     1     -11.156   5.574  72.217  1.00  0.00    -0.237 C  
HETATM   22  O   UNL     1     -10.328   4.424  72.399  1.00  0.00    -0.183 OA 
HETATM   23  H   UNL     1     -10.635   3.912  73.138  1.00  0.00     0.000 HD 
ENDBRANCH  17  21
ENDBRANCH  16  17
ENDBRANCH  15  16
ENDBRANCH  13  15
TORSDOF 5
ENDMDL
MODEL      225
REMARK 921   NORMALIZED FREE ENERGY PREDICTED BY IDOCK:   -2.87 KCAL/MOL
REMARK 922        TOTAL FREE ENERGY PREDICTED BY IDOCK:   -4.19 KCAL/MOL
REMARK 923 INTER-LIGAND FREE ENERGY PREDICTED BY IDOCK:   -3.57 KCAL/MOL
REMARK 924 INTRA-LIGAND FREE ENERGY PREDICTED BY IDOCK:   -0.62 KCAL/MOL
REMARK 927      BINDING AFFINITY PREDICTED BY RF-SCORE:    0.00 PKD
ROOT
HETATM    1  N   UNL     1      -8.765   9.469  65.728  1.00  0.00    -0.140 NA 
HETATM    2  C   UNL     1      -8.798   8.164  66.097  1.00  0.00    -0.162 C  
HETATM    3  H1  UNL     1      -8.143   9.771  64.979  1.00  0.00     0.000 HD 
HETATM    4  H2  UNL     1      -9.363  10.148  66.200  1.00  0.00     0.000 HD 
HETATM    5  N   UNL     1      -9.595   7.777  67.057  1.00  0.00    -0.170 NA 
HETATM    6  C   UNL     1      -9.504   6.452  67.327  1.00  0.00    -0.123 A  
HETATM    7  C   UNL     1      -8.700   5.512  66.724  1.00  0.00    -0.114 A  
HETATM    8  N   UNL     1      -8.876   4.271  67.283  1.00  0.00    -0.109 NA 
HETATM    9  C   UNL     1      -7.833   5.952  65.653  1.00  0.00    -0.101 C  
HETATM   10  N   UNL     1      -7.959   7.313  65.404  1.00  0.00    -0.118 N  
HETATM   11  O   UNL     1      -7.060   5.247  65.012  1.00  0.00    -0.059 OA 
HETATM   12  C   UNL     1      -9.781   4.458  68.222  1.00  0.00    -0.107 A  
HETATM   13  N   UNL     1     -10.197   5.763  68.280  1.00  0.00    -0.170 NA 
HETATM   14  H   UNL     1      -7.391   7.712  64.656  1.00  0.00     0.000 HD 
ENDROOT
BRANCH  13  15
HETATM   15  C   UNL     1     -11.229   6.294  69.143  1.00  0.00    -0.371 C  
BRANCH  15  16
HETATM   16  O   UNL     1     -10.919   6.120  70.531  1.00  0.00    -0.274 OA 
BRANCH  16  17
HETATM   17  C   UNL     1     -10.596   7.323  71.265  1.00  0.00    -0.220 C  
BRANCH  17  18
HETATM   18  C   UNL     1     -10.868   8.606  70.466  1.00  0.00    -0.228 C  
HETATM   19  H   UNL     1     -12.214  10.061  70.433  1.00  0.00     0.000 HD 
HETATM   20  O   UNL     1     -12.045   9.267  70.927  1.00  0.00    -0.286 OA 
ENDBRANCH  17  18
BRANCH  17  21
HETATM   21  C   UNL     1     -11.455   7.310  72.542  1.00  0.00    -0.281 C  
HETATM   22  O   UNL     1     -12.804   6.962  72.226  1.00  0.00    -0.534 OA 
HETATM   23  H   UNL     1     -13.334   6.954  73.014  1.00  0.00     0.000 HD 
ENDBRANCH  17  21
ENDBRANCH  16  17
ENDBRANCH  15  16
ENDBRANCH  13  15
TORSDOF 5
ENDMDL
MODEL      226
REMARK 921   NORMALIZED FREE ENERGY PREDICTED BY IDOCK:   -2.86 KCAL/MOL
REMARK 922        TOTAL FREE ENERGY PREDICTED BY IDOCK:   -4.18 KCAL/MOL
REMARK 923 INTER-LIGAND FREE ENERGY PREDICTED BY IDOCK:   -3.38 KCAL/MOL
REMARK 924 INTRA-LIGAND FREE ENERGY PREDICTED BY IDOCK:   -0.80 KCAL/MOL
REMARK 927      BINDING AFFINITY PREDICTED BY RF-SCORE:    0.00 PKD
ROOT
HETATM    1  N   UNL     1      -9.277   8.311  73.018  1.00  0.00    -0.263 NA 
HETATM    2  C   UNL     1      -9.525   7.423  72.023  1.00  0.00    -0.136 C  
HETATM    3  H1  UNL     1      -9.246   7.995  73.987  1.00  0.00     0.000 HD 
HETATM    4  H2  UNL     1      -9.121   9.294  72.797  1.00  0.00     0.000 HD 
HETATM    5  N   UNL     1      -9.565   7.828  70.781  1.00  0.00    -0.166 NA 
HETATM    6  C   UNL     1      -9.841   6.835  69.902  1.00  0.00    -0.164 A  
HETATM    7  C   UNL     1     -10.073   5.503  70.165  1.00  0.00    -0.239 A  
HETATM    8  N   UNL     1     -10.336   4.805  69.013  1.00  0.00    -0.039 NA 
HETATM    9  C   UNL     1     -10.011   5.067  71.542  1.00  0.00    -0.190 C  
HETATM   10  N   UNL     1      -9.721   6.112  72.411  1.00  0.00    -0.158 N  
HETATM   11  O   UNL     1     -10.189   3.922  71.946  1.00  0.00    -0.161 OA 
HETATM   12  C   UNL     1     -10.268   5.709  68.057  1.00  0.00    -0.186 A  
HETATM   13  N   UNL     1      -9.962   6.952  68.548  1.00  0.00    -0.144 NA 
HETATM   14  H   UNL     1      -9.648   5.895  73.404  1.00  0.00     0.000 HD 
ENDROOT
BRANCH  13  15
HETATM   15  C   UNL     1      -9.740   8.149  67.767  1.00  0.00    -0.157 C  
BRANCH  15  16
HETATM   16  O   UNL     1     -10.779   9.119  67.950  1.00  0.00    -0.230 OA 
BRANCH  16  17
HETATM   17  C   UNL     1     -10.347  10.451  68.309  1.00  0.00    -0.171 C  
BRANCH  17  18
HETATM   18  C   UNL     1     -10.944  10.939  69.638  1.00  0.00    -0.252 C  
HETATM   19  H   UNL     1     -12.345  10.370  70.918  1.00  0.00     0.000 HD 
HETATM   20  O   UNL     1     -11.976  10.068  70.096  1.00  0.00    -0.220 OA 
ENDBRANCH  17  18
BRANCH  17  21
HETATM   21  C   UNL     1      -8.812  10.408  68.410  1.00  0.00    -0.136 C  
HETATM   22  O   UNL     1      -8.404  10.472  69.777  1.00  0.00    -0.372 OA 
HETATM   23  H   UNL     1      -7.456  10.446  69.839  1.00  0.00     0.000 HD 
ENDBRANCH  17  21
ENDBRANCH  16  17
ENDBRANCH  15  16
ENDBRANCH  13  15
TORSDOF 5
ENDMDL
MODEL      227
REMARK 921   NORMALIZED FREE ENERGY PREDICTED BY IDOCK:   -2.83 KCAL/MOL
REMARK 922        TOTAL FREE ENERGY PREDICTED BY IDOCK:   -4.15 KCAL/MOL
REMARK 923 INTER-LIGAND FREE ENERGY PREDICTED BY IDOCK:   -4.01 KCAL/MOL
REMARK 924 INTRA-LIGAND FREE ENERGY PREDICTED BY IDOCK:   -0.13 KCAL/MOL
REMARK 927      BINDING AFFINITY PREDICTED BY RF-SCORE:    0.00 PKD
ROOT
HETATM    1  N   UNL     1      -9.502  16.532  66.254  1.00  0.00    -0.292 NA 
HETATM    2  C   UNL     1      -8.900  15.469  66.844  1.00  0.00    -0.255 C  
HETATM    3  H1  UNL     1      -8.952  17.352  65.997  1.00  0.00     0.000 HD 
HETATM    4  H2  UNL     1     -10.504  16.511  66.066  1.00  0.00     0.000 HD 
HETATM    5  N   UNL     1      -9.605  14.420  67.173  1.00  0.00    -0.243 NA 
HETATM    6  C   UNL     1      -8.872  13.448  67.769  1.00  0.00    -0.199 A  
HETATM    7  C   UNL     1      -7.524  13.448  68.052  1.00  0.00    -0.139 A  
HETATM    8  N   UNL     1      -7.146  12.288  68.680  1.00  0.00    -0.099 NA 
HETATM    9  C   UNL     1      -6.755  14.611  67.669  1.00  0.00    -0.174 C  
HETATM   10  N   UNL     1      -7.539  15.581  67.057  1.00  0.00    -0.215 N  
HETATM   11  O   UNL     1      -5.551  14.771  67.844  1.00  0.00    -0.148 OA 
HETATM   12  C   UNL     1      -8.258  11.589  68.780  1.00  0.00    -0.082 A  
HETATM   13  N   UNL     1      -9.329  12.249  68.234  1.00  0.00    -0.207 NA 
HETATM   14  H   UNL     1      -7.078  16.435  66.743  1.00  0.00     0.000 HD 
ENDROOT
BRANCH  13  15
HETATM   15  C   UNL     1     -10.676  11.738  68.111  1.00  0.00    -0.214 C  
BRANCH  15  16
HETATM   16  O   UNL     1     -10.711  10.306  68.057  1.00  0.00    -0.217 OA 
BRANCH  16  17
HETATM   17  C   UNL     1     -10.755   9.722  66.735  1.00  0.00    -0.073 C  
BRANCH  17  18
HETATM   18  C   UNL     1      -9.966  10.531  65.694  1.00  0.00    -0.270 C  
HETATM   19  H   UNL     1     -10.295  11.382  63.935  1.00  0.00     0.000 HD 
HETATM   20  O   UNL     1     -10.783  10.882  64.579  1.00  0.00    -0.327 OA 
ENDBRANCH  17  18
BRANCH  17  21
HETATM   21  C   UNL     1     -10.164   8.307  66.855  1.00  0.00    -0.318 C  
HETATM   22  O   UNL     1     -11.208   7.331  66.831  1.00  0.00    -0.543 OA 
HETATM   23  H   UNL     1     -10.843   6.457  66.906  1.00  0.00     0.000 HD 
ENDBRANCH  17  21
ENDBRANCH  16  17
ENDBRANCH  15  16
ENDBRANCH  13  15
TORSDOF 5
ENDMDL
MODEL      228
REMARK 921   NORMALIZED FREE ENERGY PREDICTED BY IDOCK:   -2.82 KCAL/MOL
REMARK 922        TOTAL FREE ENERGY PREDICTED BY IDOCK:   -4.13 KCAL/MOL
REMARK 923 INTER-LIGAND FREE ENERGY PREDICTED BY IDOCK:   -4.46 KCAL/MOL
REMARK 924 INTRA-LIGAND FREE ENERGY PREDICTED BY IDOCK:    0.33 KCAL/MOL
REMARK 927      BINDING AFFINITY PREDICTED BY RF-SCORE:    0.00 PKD
ROOT
HETATM    1  N   UNL     1      -8.985  17.545  65.742  1.00  0.00    -0.454 NA 
HETATM    2  C   UNL     1      -8.557  16.384  66.298  1.00  0.00    -0.340 C  
HETATM    3  H1  UNL     1      -8.391  18.373  65.771  1.00  0.00     0.000 HD 
HETATM    4  H2  UNL     1      -9.900  17.589  65.293  1.00  0.00     0.000 HD 
HETATM    5  N   UNL     1      -9.318  15.322  66.260  1.00  0.00    -0.290 NA 
HETATM    6  C   UNL     1      -8.766  14.246  66.872  1.00  0.00    -0.179 A  
HETATM    7  C   UNL     1      -7.544  14.155  67.499  1.00  0.00    -0.184 A  
HETATM    8  N   UNL     1      -7.341  12.900  68.017  1.00  0.00    -0.105 NA 
HETATM    9  C   UNL     1      -6.707  15.334  67.521  1.00  0.00    -0.168 C  
HETATM   10  N   UNL     1      -7.304  16.413  66.881  1.00  0.00    -0.216 N  
HETATM   11  O   UNL     1      -5.596  15.422  68.033  1.00  0.00    -0.118 OA 
HETATM   12  C   UNL     1      -8.435  12.235  67.708  1.00  0.00    -0.163 A  
HETATM   13  N   UNL     1      -9.324  13.008  67.006  1.00  0.00    -0.229 NA 
HETATM   14  H   UNL     1      -6.781  17.287  66.838  1.00  0.00     0.000 HD 
ENDROOT
BRANCH  13  15
HETATM   15  C   UNL     1     -10.586  12.570  66.450  1.00  0.00    -0.247 C  
BRANCH  15  16
HETATM   16  O   UNL     1     -11.691  13.337  66.943  1.00  0.00    -0.347 OA 
BRANCH  16  17
HETATM   17  C   UNL     1     -12.218  12.938  68.229  1.00  0.00     0.043 C  
BRANCH  17  18
HETATM   18  C   UNL     1     -11.613  11.624  68.745  1.00  0.00    -0.313 C  
HETATM   19  H   UNL     1     -11.640   9.702  68.263  1.00  0.00     0.000 HD 
HETATM   20  O   UNL     1     -12.014  10.515  67.943  1.00  0.00    -0.297 OA 
ENDBRANCH  17  18
BRANCH  17  21
HETATM   21  C   UNL     1     -11.905  14.080  69.211  1.00  0.00    -0.344 C  
HETATM   22  O   UNL     1     -11.432  13.551  70.450  1.00  0.00    -0.512 OA 
HETATM   23  H   UNL     1     -11.239  14.256  71.057  1.00  0.00     0.000 HD 
ENDBRANCH  17  21
ENDBRANCH  16  17
ENDBRANCH  15  16
ENDBRANCH  13  15
TORSDOF 5
ENDMDL
MODEL      229
REMARK 921   NORMALIZED FREE ENERGY PREDICTED BY IDOCK:   -2.81 KCAL/MOL
REMARK 922        TOTAL FREE ENERGY PREDICTED BY IDOCK:   -4.12 KCAL/MOL
REMARK 923 INTER-LIGAND FREE ENERGY PREDICTED BY IDOCK:   -3.66 KCAL/MOL
REMARK 924 INTRA-LIGAND FREE ENERGY PREDICTED BY IDOCK:   -0.46 KCAL/MOL
REMARK 927      BINDING AFFINITY PREDICTED BY RF-SCORE:    0.00 PKD
ROOT
HETATM    1  N   UNL     1      -7.636   3.641  71.382  1.00  0.00    -0.054 NA 
HETATM    2  C   UNL     1      -8.794   4.316  71.590  1.00  0.00    -0.114 C  
HETATM    3  H1  UNL     1      -7.220   3.098  72.138  1.00  0.00     0.000 HD 
HETATM    4  H2  UNL     1      -7.182   3.677  70.469  1.00  0.00     0.000 HD 
HETATM    5  N   UNL     1      -9.327   5.013  70.621  1.00  0.00    -0.152 NA 
HETATM    6  C   UNL     1     -10.469   5.646  70.982  1.00  0.00    -0.250 A  
HETATM    7  C   UNL     1     -11.101   5.634  72.205  1.00  0.00    -0.261 A  
HETATM    8  N   UNL     1     -12.231   6.414  72.192  1.00  0.00    -0.289 NA 
HETATM    9  C   UNL     1     -10.508   4.847  73.264  1.00  0.00    -0.207 C  
HETATM   10  N   UNL     1      -9.343   4.210  72.853  1.00  0.00    -0.114 N  
HETATM   11  O   UNL     1     -10.942   4.726  74.405  1.00  0.00    -0.321 OA 
HETATM   12  C   UNL     1     -12.282   6.899  70.968  1.00  0.00    -0.377 A  
HETATM   13  N   UNL     1     -11.239   6.454  70.196  1.00  0.00    -0.359 NA 
HETATM   14  H   UNL     1      -8.860   3.623  73.532  1.00  0.00     0.000 HD 
ENDROOT
BRANCH  13  15
HETATM   15  C   UNL     1     -11.035   6.734  68.792  1.00  0.00    -0.209 C  
BRANCH  15  16
HETATM   16  O   UNL     1     -10.165   7.854  68.582  1.00  0.00    -0.197 OA 
BRANCH  16  17
HETATM   17  C   UNL     1      -9.369   7.822  67.376  1.00  0.00    -0.141 C  
BRANCH  17  18
HETATM   18  C   UNL     1      -9.886   8.776  66.289  1.00  0.00    -0.272 C  
HETATM   19  H   UNL     1      -9.134  10.058  64.978  1.00  0.00     0.000 HD 
HETATM   20  O   UNL     1      -8.814   9.467  65.650  1.00  0.00    -0.142 OA 
ENDBRANCH  17  18
BRANCH  17  21
HETATM   21  C   UNL     1      -7.937   8.214  67.779  1.00  0.00    -0.127 C  
HETATM   22  O   UNL     1      -6.990   7.363  67.132  1.00  0.00    -0.077 OA 
HETATM   23  H   UNL     1      -6.106   7.606  67.381  1.00  0.00     0.000 HD 
ENDBRANCH  17  21
ENDBRANCH  16  17
ENDBRANCH  15  16
ENDBRANCH  13  15
TORSDOF 5
ENDMDL
MODEL      230
REMARK 921   NORMALIZED FREE ENERGY PREDICTED BY IDOCK:   -2.81 KCAL/MOL
REMARK 922        TOTAL FREE ENERGY PREDICTED BY IDOCK:   -4.12 KCAL/MOL
REMARK 923 INTER-LIGAND FREE ENERGY PREDICTED BY IDOCK:   -3.66 KCAL/MOL
REMARK 924 INTRA-LIGAND FREE ENERGY PREDICTED BY IDOCK:   -0.46 KCAL/MOL
REMARK 927      BINDING AFFINITY PREDICTED BY RF-SCORE:    0.00 PKD
ROOT
HETATM    1  N   UNL     1     -10.117   3.302  72.029  1.00  0.00    -0.146 NA 
HETATM    2  C   UNL     1      -9.464   4.488  72.117  1.00  0.00    -0.140 C  
HETATM    3  H1  UNL     1      -9.772   2.491  72.542  1.00  0.00     0.000 HD 
HETATM    4  H2  UNL     1     -10.953   3.222  71.451  1.00  0.00     0.000 HD 
HETATM    5  N   UNL     1      -9.907   5.527  71.460  1.00  0.00    -0.166 NA 
HETATM    6  C   UNL     1      -9.143   6.633  71.628  1.00  0.00    -0.142 A  
HETATM    7  C   UNL     1      -8.001   6.774  72.386  1.00  0.00    -0.098 A  
HETATM    8  N   UNL     1      -7.496   8.047  72.295  1.00  0.00    -0.090 NA 
HETATM    9  C   UNL     1      -7.531   5.619  73.119  1.00  0.00    -0.096 C  
HETATM   10  N   UNL     1      -8.343   4.509  72.924  1.00  0.00    -0.102 N  
HETATM   11  O   UNL     1      -6.539   5.576  73.839  1.00  0.00    -0.074 OA 
HETATM   12  C   UNL     1      -8.323   8.674  71.484  1.00  0.00    -0.166 A  
HETATM   13  N   UNL     1      -9.342   7.859  71.062  1.00  0.00    -0.151 NA 
HETATM   14  H   UNL     1      -8.094   3.649  73.412  1.00  0.00     0.000 HD 
ENDROOT
BRANCH  13  15
HETATM   15  C   UNL     1     -10.458   8.247  70.228  1.00  0.00    -0.218 C  
BRANCH  15  16
HETATM   16  O   UNL     1     -10.059   9.103  69.150  1.00  0.00    -0.182 OA 
BRANCH  16  17
HETATM   17  C   UNL     1     -10.368  10.507  69.305  1.00  0.00    -0.227 C  
BRANCH  17  18
HETATM   18  C   UNL     1     -10.686  11.203  67.974  1.00  0.00    -0.211 C  
HETATM   19  H   UNL     1     -12.289  11.775  66.959  1.00  0.00     0.000 HD 
HETATM   20  O   UNL     1     -12.093  11.344  67.783  1.00  0.00    -0.637 OA 
ENDBRANCH  17  18
BRANCH  17  21
HETATM   21  C   UNL     1     -11.585  10.592  70.244  1.00  0.00    -0.332 C  
HETATM   22  O   UNL     1     -11.860  11.954  70.575  1.00  0.00    -0.481 OA 
HETATM   23  H   UNL     1     -12.611  12.006  71.154  1.00  0.00     0.000 HD 
ENDBRANCH  17  21
ENDBRANCH  16  17
ENDBRANCH  15  16
ENDBRANCH  13  15
TORSDOF 5
ENDMDL
MODEL      231
REMARK 921   NORMALIZED FREE ENERGY PREDICTED BY IDOCK:   -2.78 KCAL/MOL
REMARK 922        TOTAL FREE ENERGY PREDICTED BY IDOCK:   -4.08 KCAL/MOL
REMARK 923 INTER-LIGAND FREE ENERGY PREDICTED BY IDOCK:   -3.53 KCAL/MOL
REMARK 924 INTRA-LIGAND FREE ENERGY PREDICTED BY IDOCK:   -0.55 KCAL/MOL
REMARK 927      BINDING AFFINITY PREDICTED BY RF-SCORE:    0.00 PKD
ROOT
HETATM    1  N   UNL     1      -5.800   7.111  69.910  1.00  0.00    -0.023 NA 
HETATM    2  C   UNL     1      -7.102   6.782  70.098  1.00  0.00    -0.071 C  
HETATM    3  H1  UNL     1      -5.103   6.852  70.608  1.00  0.00     0.000 HD 
HETATM    4  H2  UNL     1      -5.518   7.618  69.071  1.00  0.00     0.000 HD 
HETATM    5  N   UNL     1      -7.996   7.114  69.204  1.00  0.00    -0.118 NA 
HETATM    6  C   UNL     1      -9.253   6.735  69.537  1.00  0.00    -0.147 A  
HETATM    7  C   UNL     1      -9.672   6.066  70.666  1.00  0.00    -0.174 A  
HETATM    8  N   UNL     1     -11.031   5.874  70.656  1.00  0.00    -0.299 NA 
HETATM    9  C   UNL     1      -8.670   5.692  71.640  1.00  0.00    -0.136 C  
HETATM   10  N   UNL     1      -7.395   6.093  71.260  1.00  0.00    -0.079 N  
HETATM   11  O   UNL     1      -8.872   5.094  72.691  1.00  0.00    -0.122 OA 
HETATM   12  C   UNL     1     -11.435   6.425  69.531  1.00  0.00    -0.343 A  
HETATM   13  N   UNL     1     -10.390   6.953  68.815  1.00  0.00    -0.181 NA 
HETATM   14  H   UNL     1      -6.621   5.863  71.883  1.00  0.00     0.000 HD 
ENDROOT
BRANCH  13  15
HETATM   15  C   UNL     1     -10.473   7.563  67.506  1.00  0.00    -0.271 C  
BRANCH  15  16
HETATM   16  O   UNL     1     -10.574   8.991  67.578  1.00  0.00    -0.265 OA 
BRANCH  16  17
HETATM   17  C   UNL     1     -10.364   9.705  66.338  1.00  0.00    -0.176 C  
BRANCH  17  18
HETATM   18  C   UNL     1     -10.094  11.202  66.545  1.00  0.00    -0.223 C  
HETATM   19  H   UNL     1      -9.633  12.781  65.439  1.00  0.00     0.000 HD 
HETATM   20  O   UNL     1      -9.800  11.854  65.311  1.00  0.00    -0.245 OA 
ENDBRANCH  17  18
BRANCH  17  21
HETATM   21  C   UNL     1      -9.159   9.046  65.644  1.00  0.00    -0.223 C  
HETATM   22  O   UNL     1      -9.260   9.196  64.228  1.00  0.00    -0.433 OA 
HETATM   23  H   UNL     1      -8.516   8.790  63.800  1.00  0.00     0.000 HD 
ENDBRANCH  17  21
ENDBRANCH  16  17
ENDBRANCH  15  16
ENDBRANCH  13  15
TORSDOF 5
ENDMDL
MODEL      232
REMARK 921   NORMALIZED FREE ENERGY PREDICTED BY IDOCK:   -2.76 KCAL/MOL
REMARK 922        TOTAL FREE ENERGY PREDICTED BY IDOCK:   -4.05 KCAL/MOL
REMARK 923 INTER-LIGAND FREE ENERGY PREDICTED BY IDOCK:   -3.70 KCAL/MOL
REMARK 924 INTRA-LIGAND FREE ENERGY PREDICTED BY IDOCK:   -0.35 KCAL/MOL
REMARK 927      BINDING AFFINITY PREDICTED BY RF-SCORE:    0.00 PKD
ROOT
HETATM    1  N   UNL     1     -11.250   8.116  71.364  1.00  0.00    -0.248 NA 
HETATM    2  C   UNL     1     -10.977   8.534  70.103  1.00  0.00    -0.216 C  
HETATM    3  H1  UNL     1     -11.873   8.663  71.958  1.00  0.00     0.000 HD 
HETATM    4  H2  UNL     1     -10.833   7.255  71.718  1.00  0.00     0.000 HD 
HETATM    5  N   UNL     1     -10.179   7.833  69.341  1.00  0.00    -0.203 NA 
HETATM    6  C   UNL     1      -9.986   8.383  68.118  1.00  0.00    -0.191 A  
HETATM    7  C   UNL     1     -10.517   9.549  67.613  1.00  0.00    -0.263 A  
HETATM    8  N   UNL     1     -10.074   9.788  66.337  1.00  0.00    -0.245 NA 
HETATM    9  C   UNL     1     -11.410  10.307  68.463  1.00  0.00    -0.168 C  
HETATM   10  N   UNL     1     -11.586   9.708  69.704  1.00  0.00    -0.450 N  
HETATM   11  O   UNL     1     -11.968  11.359  68.168  1.00  0.00    -0.594 OA 
HETATM   12  C   UNL     1      -9.277   8.775  66.069  1.00  0.00    -0.222 A  
HETATM   13  N   UNL     1      -9.199   7.893  67.117  1.00  0.00    -0.141 NA 
HETATM   14  H   UNL     1     -12.209  10.168  70.368  1.00  0.00     0.000 HD 
ENDROOT
BRANCH  13  15
HETATM   15  C   UNL     1      -8.473   6.642  67.129  1.00  0.00    -0.113 C  
BRANCH  15  16
HETATM   16  O   UNL     1      -9.338   5.511  66.966  1.00  0.00    -0.114 OA 
BRANCH  16  17
HETATM   17  C   UNL     1      -8.690   4.259  66.642  1.00  0.00    -0.113 C  
BRANCH  17  18
HETATM   18  C   UNL     1      -9.295   3.571  65.409  1.00  0.00    -0.158 C  
HETATM   19  H   UNL     1      -9.880   4.072  63.584  1.00  0.00     0.000 HD 
HETATM   20  O   UNL     1      -9.506   4.498  64.346  1.00  0.00    -0.148 OA 
ENDBRANCH  17  18
BRANCH  17  21
HETATM   21  C   UNL     1      -7.207   4.579  66.388  1.00  0.00    -0.076 C  
HETATM   22  O   UNL     1      -6.437   3.376  66.370  1.00  0.00    -0.035 OA 
HETATM   23  H   UNL     1      -5.521   3.573  66.213  1.00  0.00     0.000 HD 
ENDBRANCH  17  21
ENDBRANCH  16  17
ENDBRANCH  15  16
ENDBRANCH  13  15
TORSDOF 5
ENDMDL
MODEL      233
REMARK 921   NORMALIZED FREE ENERGY PREDICTED BY IDOCK:   -2.73 KCAL/MOL
REMARK 922        TOTAL FREE ENERGY PREDICTED BY IDOCK:   -4.01 KCAL/MOL
REMARK 923 INTER-LIGAND FREE ENERGY PREDICTED BY IDOCK:   -3.53 KCAL/MOL
REMARK 924 INTRA-LIGAND FREE ENERGY PREDICTED BY IDOCK:   -0.48 KCAL/MOL
REMARK 927      BINDING AFFINITY PREDICTED BY RF-SCORE:    0.00 PKD
ROOT
HETATM    1  N   UNL     1     -10.837   7.246  70.707  1.00  0.00    -0.236 NA 
HETATM    2  C   UNL     1     -10.836   8.212  69.754  1.00  0.00    -0.190 C  
HETATM    3  H1  UNL     1     -11.285   7.418  71.606  1.00  0.00     0.000 HD 
HETATM    4  H2  UNL     1     -10.390   6.348  70.523  1.00  0.00     0.000 HD 
HETATM    5  N   UNL     1     -10.262   7.991  68.601  1.00  0.00    -0.203 NA 
HETATM    6  C   UNL     1     -10.325   9.052  67.760  1.00  0.00    -0.246 A  
HETATM    7  C   UNL     1     -10.904  10.281  67.979  1.00  0.00    -0.275 A  
HETATM    8  N   UNL     1     -10.750  11.107  66.894  1.00  0.00    -0.262 NA 
HETATM    9  C   UNL     1     -11.549  10.506  69.255  1.00  0.00    -0.236 C  
HETATM   10  N   UNL     1     -11.467   9.395  70.085  1.00  0.00    -0.410 N  
HETATM   11  O   UNL     1     -12.111  11.537  69.608  1.00  0.00    -0.309 OA 
HETATM   12  C   UNL     1     -10.078  10.383  66.022  1.00  0.00    -0.243 A  
HETATM   13  N   UNL     1      -9.806   9.127  66.500  1.00  0.00    -0.242 NA 
HETATM   14  H   UNL     1     -11.904   9.458  71.005  1.00  0.00     0.000 HD 
ENDROOT
BRANCH  13  15
HETATM   15  C   UNL     1      -9.152   8.060  65.776  1.00  0.00    -0.055 C  
BRANCH  15  16
HETATM   16  O   UNL     1      -8.051   7.503  66.505  1.00  0.00    -0.113 OA 
BRANCH  16  17
HETATM   17  C   UNL     1      -7.867   6.074  66.384  1.00  0.00    -0.104 C  
BRANCH  17  18
HETATM   18  C   UNL     1      -7.317   5.427  67.664  1.00  0.00    -0.076 C  
HETATM   19  H   UNL     1      -6.281   3.815  68.170  1.00  0.00     0.000 HD 
HETATM   20  O   UNL     1      -6.622   4.215  67.378  1.00  0.00    -0.044 OA 
ENDBRANCH  17  18
BRANCH  17  21
HETATM   21  C   UNL     1      -9.244   5.476  66.046  1.00  0.00    -0.158 C  
HETATM   22  O   UNL     1      -9.092   4.179  65.467  1.00  0.00    -0.125 OA 
HETATM   23  H   UNL     1      -9.942   3.810  65.258  1.00  0.00     0.000 HD 
ENDBRANCH  17  21
ENDBRANCH  16  17
ENDBRANCH  15  16
ENDBRANCH  13  15
TORSDOF 5
ENDMDL
MODEL      234
REMARK 921   NORMALIZED FREE ENERGY PREDICTED BY IDOCK:   -2.70 KCAL/MOL
REMARK 922        TOTAL FREE ENERGY PREDICTED BY IDOCK:   -3.98 KCAL/MOL
REMARK 923 INTER-LIGAND FREE ENERGY PREDICTED BY IDOCK:   -3.52 KCAL/MOL
REMARK 924 INTRA-LIGAND FREE ENERGY PREDICTED BY IDOCK:   -0.46 KCAL/MOL
REMARK 927      BINDING AFFINITY PREDICTED BY RF-SCORE:    0.00 PKD
ROOT
HETATM    1  N   UNL     1      -9.824   9.024  65.563  1.00  0.00    -0.436 NA 
HETATM    2  C   UNL     1     -10.122   9.315  66.854  1.00  0.00    -0.256 C  
HETATM    3  H1  UNL     1     -10.216   9.589  64.810  1.00  0.00     0.000 HD 
HETATM    4  H2  UNL     1      -9.208   8.241  65.346  1.00  0.00     0.000 HD 
HETATM    5  N   UNL     1      -9.620   8.591  67.819  1.00  0.00    -0.152 NA 
HETATM    6  C   UNL     1     -10.022   8.988  69.051  1.00  0.00    -0.185 A  
HETATM    7  C   UNL     1     -10.862  10.028  69.380  1.00  0.00    -0.239 A  
HETATM    8  N   UNL     1     -11.047  10.109  70.738  1.00  0.00    -0.330 NA 
HETATM    9  C   UNL     1     -11.399  10.829  68.302  1.00  0.00    -0.309 C  
HETATM   10  N   UNL     1     -10.960  10.394  67.058  1.00  0.00    -0.208 N  
HETATM   11  O   UNL     1     -12.155  11.788  68.422  1.00  0.00    -0.490 OA 
HETATM   12  C   UNL     1     -10.325   9.123  71.229  1.00  0.00    -0.334 A  
HETATM   13  N   UNL     1      -9.678   8.422  70.244  1.00  0.00    -0.171 NA 
HETATM   14  H   UNL     1     -11.281  10.908  66.237  1.00  0.00     0.000 HD 
ENDROOT
BRANCH  13  15
HETATM   15  C   UNL     1      -8.751   7.329  70.441  1.00  0.00    -0.146 C  
BRANCH  15  16
HETATM   16  O   UNL     1      -7.931   7.515  71.601  1.00  0.00    -0.088 OA 
BRANCH  16  17
HETATM   17  C   UNL     1      -6.554   7.090  71.480  1.00  0.00    -0.048 C  
BRANCH  17  18
HETATM   18  C   UNL     1      -5.665   7.597  72.626  1.00  0.00    -0.040 C  
HETATM   19  H   UNL     1      -4.680   6.840  74.169  1.00  0.00     0.000 HD 
HETATM   20  O   UNL     1      -5.230   6.526  73.461  1.00  0.00    -0.039 OA 
ENDBRANCH  17  18
BRANCH  17  21
HETATM   21  C   UNL     1      -6.565   5.551  71.469  1.00  0.00    -0.045 C  
HETATM   22  O   UNL     1      -5.305   5.051  71.017  1.00  0.00    -0.004 OA 
HETATM   23  H   UNL     1      -5.311   4.101  71.010  1.00  0.00     0.000 HD 
ENDBRANCH  17  21
ENDBRANCH  16  17
ENDBRANCH  15  16
ENDBRANCH  13  15
TORSDOF 5
ENDMDL
MODEL      235
REMARK 921   NORMALIZED FREE ENERGY PREDICTED BY IDOCK:   -2.70 KCAL/MOL
REMARK 922        TOTAL FREE ENERGY PREDICTED BY IDOCK:   -3.97 KCAL/MOL
REMARK 923 INTER-LIGAND FREE ENERGY PREDICTED BY IDOCK:   -3.31 KCAL/MOL
REMARK 924 INTRA-LIGAND FREE ENERGY PREDICTED BY IDOCK:   -0.65 KCAL/MOL
REMARK 927      BINDING AFFINITY PREDICTED BY RF-SCORE:    0.00 PKD
ROOT
HETATM    1  N   UNL     1     -11.281   8.852  69.246  1.00  0.00    -0.422 NA 
HETATM    2  C   UNL     1     -10.954   7.748  69.963  1.00  0.00    -0.214 C  
HETATM    3  H1  UNL     1     -11.564   9.706  69.725  1.00  0.00     0.000 HD 
HETATM    4  H2  UNL     1     -11.244   8.828  68.227  1.00  0.00     0.000 HD 
HETATM    5  N   UNL     1     -10.591   6.653  69.348  1.00  0.00    -0.221 NA 
HETATM    6  C   UNL     1     -10.314   5.631  70.192  1.00  0.00    -0.271 A  
HETATM    7  C   UNL     1     -10.368   5.623  71.568  1.00  0.00    -0.222 A  
HETATM    8  N   UNL     1     -10.031   4.392  72.074  1.00  0.00    -0.179 NA 
HETATM    9  C   UNL     1     -10.757   6.846  72.236  1.00  0.00    -0.223 C  
HETATM   10  N   UNL     1     -11.028   7.870  71.337  1.00  0.00    -0.229 N  
HETATM   11  O   UNL     1     -10.853   7.008  73.448  1.00  0.00    -0.326 OA 
HETATM   12  C   UNL     1      -9.777   3.657  71.011  1.00  0.00    -0.173 A  
HETATM   13  N   UNL     1      -9.927   4.369  69.848  1.00  0.00    -0.218 NA 
HETATM   14  H   UNL     1     -11.301   8.775  71.719  1.00  0.00     0.000 HD 
ENDROOT
BRANCH  13  15
HETATM   15  C   UNL     1      -9.656   3.889  68.511  1.00  0.00    -0.111 C  
BRANCH  15  16
HETATM   16  O   UNL     1      -8.260   3.649  68.292  1.00  0.00    -0.080 OA 
BRANCH  16  17
HETATM   17  C   UNL     1      -7.624   4.473  67.289  1.00  0.00    -0.085 C  
BRANCH  17  18
HETATM   18  C   UNL     1      -8.562   4.841  66.130  1.00  0.00    -0.115 C  
HETATM   19  H   UNL     1      -8.828   4.329  64.234  1.00  0.00     0.000 HD 
HETATM   20  O   UNL     1      -8.248   4.102  64.951  1.00  0.00    -0.096 OA 
ENDBRANCH  17  18
BRANCH  17  21
HETATM   21  C   UNL     1      -7.148   5.751  68.002  1.00  0.00    -0.071 C  
HETATM   22  O   UNL     1      -6.890   5.482  69.381  1.00  0.00    -0.056 OA 
HETATM   23  H   UNL     1      -6.596   6.271  69.821  1.00  0.00     0.000 HD 
ENDBRANCH  17  21
ENDBRANCH  16  17
ENDBRANCH  15  16
ENDBRANCH  13  15
TORSDOF 5
ENDMDL
MODEL      236
REMARK 921   NORMALIZED FREE ENERGY PREDICTED BY IDOCK:   -2.68 KCAL/MOL
REMARK 922        TOTAL FREE ENERGY PREDICTED BY IDOCK:   -3.95 KCAL/MOL
REMARK 923 INTER-LIGAND FREE ENERGY PREDICTED BY IDOCK:   -3.27 KCAL/MOL
REMARK 924 INTRA-LIGAND FREE ENERGY PREDICTED BY IDOCK:   -0.68 KCAL/MOL
REMARK 927      BINDING AFFINITY PREDICTED BY RF-SCORE:    0.00 PKD
ROOT
HETATM    1  N   UNL     1      -7.660  10.985  65.951  1.00  0.00    -0.338 NA 
HETATM    2  C   UNL     1      -8.038  10.252  67.027  1.00  0.00    -0.121 C  
HETATM    3  H1  UNL     1      -6.973  11.731  66.058  1.00  0.00     0.000 HD 
HETATM    4  H2  UNL     1      -8.063  10.790  65.034  1.00  0.00     0.000 HD 
HETATM    5  N   UNL     1      -8.918   9.296  66.890  1.00  0.00    -0.129 NA 
HETATM    6  C   UNL     1      -9.210   8.665  68.054  1.00  0.00    -0.140 A  
HETATM    7  C   UNL     1      -8.699   8.912  69.309  1.00  0.00    -0.138 A  
HETATM    8  N   UNL     1      -9.251   8.074  70.245  1.00  0.00    -0.154 NA 
HETATM    9  C   UNL     1      -7.715   9.963  69.443  1.00  0.00    -0.119 C  
HETATM   10  N   UNL     1      -7.440  10.581  68.229  1.00  0.00    -0.088 N  
HETATM   11  O   UNL     1      -7.162  10.307  70.482  1.00  0.00    -0.297 OA 
HETATM   12  C   UNL     1     -10.094   7.326  69.563  1.00  0.00    -0.182 A  
HETATM   13  N   UNL     1     -10.096   7.643  68.229  1.00  0.00    -0.180 NA 
HETATM   14  H   UNL     1      -6.749  11.330  68.225  1.00  0.00     0.000 HD 
ENDROOT
BRANCH  13  15
HETATM   15  C   UNL     1     -10.847   6.970  67.191  1.00  0.00    -0.357 C  
BRANCH  15  16
HETATM   16  O   UNL     1     -10.015   6.142  66.369  1.00  0.00    -0.151 OA 
BRANCH  16  17
HETATM   17  C   UNL     1     -10.302   4.725  66.400  1.00  0.00    -0.273 C  
BRANCH  17  18
HETATM   18  C   UNL     1      -9.942   4.010  65.089  1.00  0.00    -0.198 C  
HETATM   19  H   UNL     1      -8.410   3.921  63.835  1.00  0.00     0.000 HD 
HETATM   20  O   UNL     1      -8.632   4.363  64.647  1.00  0.00    -0.122 OA 
ENDBRANCH  17  18
BRANCH  17  21
HETATM   21  C   UNL     1      -9.485   4.132  67.561  1.00  0.00    -0.184 C  
HETATM   22  O   UNL     1      -8.160   4.666  67.557  1.00  0.00    -0.100 OA 
HETATM   23  H   UNL     1      -7.656   4.299  68.274  1.00  0.00     0.000 HD 
ENDBRANCH  17  21
ENDBRANCH  16  17
ENDBRANCH  15  16
ENDBRANCH  13  15
TORSDOF 5
ENDMDL
MODEL      237
REMARK 921   NORMALIZED FREE ENERGY PREDICTED BY IDOCK:   -2.67 KCAL/MOL
REMARK 922        TOTAL FREE ENERGY PREDICTED BY IDOCK:   -3.93 KCAL/MOL
REMARK 923 INTER-LIGAND FREE ENERGY PREDICTED BY IDOCK:   -3.66 KCAL/MOL
REMARK 924 INTRA-LIGAND FREE ENERGY PREDICTED BY IDOCK:   -0.28 KCAL/MOL
REMARK 927      BINDING AFFINITY PREDICTED BY RF-SCORE:    0.00 PKD
ROOT
HETATM    1  N   UNL     1     -12.013  15.937  70.166  1.00  0.00    -0.330 NA 
HETATM    2  C   UNL     1     -10.817  15.973  69.527  1.00  0.00    -0.317 C  
HETATM    3  H1  UNL     1     -12.498  16.805  70.390  1.00  0.00     0.000 HD 
HETATM    4  H2  UNL     1     -12.428  15.041  70.422  1.00  0.00     0.000 HD 
HETATM    5  N   UNL     1     -10.196  14.860  69.240  1.00  0.00    -0.230 NA 
HETATM    6  C   UNL     1      -9.007  15.055  68.620  1.00  0.00    -0.186 A  
HETATM    7  C   UNL     1      -8.411  16.247  68.274  1.00  0.00    -0.185 A  
HETATM    8  N   UNL     1      -7.194  16.040  67.672  1.00  0.00    -0.138 NA 
HETATM    9  C   UNL     1      -9.117  17.470  68.585  1.00  0.00    -0.263 C  
HETATM   10  N   UNL     1     -10.332  17.228  69.214  1.00  0.00    -0.298 N  
HETATM   11  O   UNL     1      -8.730  18.609  68.343  1.00  0.00    -0.316 OA 
HETATM   12  C   UNL     1      -7.052  14.731  67.656  1.00  0.00    -0.184 A  
HETATM   13  N   UNL     1      -8.131  14.092  68.212  1.00  0.00    -0.140 NA 
HETATM   14  H   UNL     1     -10.905  18.034  69.463  1.00  0.00     0.000 HD 
ENDROOT
BRANCH  13  15
HETATM   15  C   UNL     1      -8.331  12.661  68.288  1.00  0.00    -0.165 C  
BRANCH  15  16
HETATM   16  O   UNL     1      -7.468  11.944  67.397  1.00  0.00    -0.128 OA 
BRANCH  16  17
HETATM   17  C   UNL     1      -7.988  10.700  66.874  1.00  0.00    -0.124 C  
BRANCH  17  18
HETATM   18  C   UNL     1      -9.303  10.876  66.101  1.00  0.00    -0.186 C  
HETATM   19  H   UNL     1     -10.648   9.729  65.206  1.00  0.00     0.000 HD 
HETATM   20  O   UNL     1      -9.834   9.620  65.684  1.00  0.00    -0.290 OA 
ENDBRANCH  17  18
BRANCH  17  21
HETATM   21  C   UNL     1      -6.906  10.124  65.943  1.00  0.00    -0.115 C  
HETATM   22  O   UNL     1      -6.338   8.945  66.515  1.00  0.00    -0.060 OA 
HETATM   23  H   UNL     1      -5.671   8.589  65.940  1.00  0.00     0.000 HD 
ENDBRANCH  17  21
ENDBRANCH  16  17
ENDBRANCH  15  16
ENDBRANCH  13  15
TORSDOF 5
ENDMDL
MODEL      238
REMARK 921   NORMALIZED FREE ENERGY PREDICTED BY IDOCK:   -2.64 KCAL/MOL
REMARK 922        TOTAL FREE ENERGY PREDICTED BY IDOCK:   -3.89 KCAL/MOL
REMARK 923 INTER-LIGAND FREE ENERGY PREDICTED BY IDOCK:   -3.31 KCAL/MOL
REMARK 924 INTRA-LIGAND FREE ENERGY PREDICTED BY IDOCK:   -0.59 KCAL/MOL
REMARK 927      BINDING AFFINITY PREDICTED BY RF-SCORE:    0.00 PKD
ROOT
HETATM    1  N   UNL     1      -8.440   9.408  62.487  1.00  0.00    -0.180 NA 
HETATM    2  C   UNL     1      -8.136   9.733  63.768  1.00  0.00    -0.149 C  
HETATM    3  H1  UNL     1      -7.753   9.554  61.747  1.00  0.00     0.000 HD 
HETATM    4  H2  UNL     1      -9.356   9.018  62.264  1.00  0.00     0.000 HD 
HETATM    5  N   UNL     1      -9.016   9.547  64.716  1.00  0.00    -0.214 NA 
HETATM    6  C   UNL     1      -8.577   9.935  65.938  1.00  0.00    -0.137 A  
HETATM    7  C   UNL     1      -7.358  10.479  66.274  1.00  0.00    -0.133 A  
HETATM    8  N   UNL     1      -7.288  10.760  67.615  1.00  0.00    -0.092 NA 
HETATM    9  C   UNL     1      -6.388  10.666  65.216  1.00  0.00    -0.025 C  
HETATM   10  N   UNL     1      -6.873  10.252  63.982  1.00  0.00    -0.270 N  
HETATM   11  O   UNL     1      -5.261  11.132  65.344  1.00  0.00    -0.236 OA 
HETATM   12  C   UNL     1      -8.460  10.392  68.090  1.00  0.00    -0.121 A  
HETATM   13  N   UNL     1      -9.272   9.878  67.111  1.00  0.00    -0.138 NA 
HETATM   14  H   UNL     1      -6.253  10.337  63.177  1.00  0.00     0.000 HD 
ENDROOT
BRANCH  13  15
HETATM   15  C   UNL     1     -10.591   9.315  67.302  1.00  0.00    -0.233 C  
BRANCH  15  16
HETATM   16  O   UNL     1     -10.592   7.886  67.199  1.00  0.00    -0.320 OA 
BRANCH  16  17
HETATM   17  C   UNL     1     -10.059   7.167  68.334  1.00  0.00    -0.168 C  
BRANCH  17  18
HETATM   18  C   UNL     1     -11.097   6.261  69.013  1.00  0.00    -0.378 C  
HETATM   19  H   UNL     1     -11.114   4.650  70.167  1.00  0.00     0.000 HD 
HETATM   20  O   UNL     1     -10.471   5.210  69.747  1.00  0.00    -0.285 OA 
ENDBRANCH  17  18
BRANCH  17  21
HETATM   21  C   UNL     1      -8.886   6.319  67.813  1.00  0.00    -0.111 C  
HETATM   22  O   UNL     1      -9.374   5.227  67.032  1.00  0.00    -0.117 OA 
HETATM   23  H   UNL     1      -8.649   4.703  66.710  1.00  0.00     0.000 HD 
ENDBRANCH  17  21
ENDBRANCH  16  17
ENDBRANCH  15  16
ENDBRANCH  13  15
TORSDOF 5
ENDMDL
MODEL      239
REMARK 921   NORMALIZED FREE ENERGY PREDICTED BY IDOCK:   -2.64 KCAL/MOL
REMARK 922        TOTAL FREE ENERGY PREDICTED BY IDOCK:   -3.89 KCAL/MOL
REMARK 923 INTER-LIGAND FREE ENERGY PREDICTED BY IDOCK:   -3.48 KCAL/MOL
REMARK 924 INTRA-LIGAND FREE ENERGY PREDICTED BY IDOCK:   -0.41 KCAL/MOL
REMARK 927      BINDING AFFINITY PREDICTED BY RF-SCORE:    0.00 PKD
ROOT
HETATM    1  N   UNL     1      -5.692   6.461  65.309  1.00  0.00    -0.021 NA 
HETATM    2  C   UNL     1      -6.938   6.223  65.790  1.00  0.00    -0.057 C  
HETATM    3  H1  UNL     1      -5.049   5.685  65.153  1.00  0.00     0.000 HD 
HETATM    4  H2  UNL     1      -5.398   7.416  65.104  1.00  0.00     0.000 HD 
HETATM    5  N   UNL     1      -7.761   7.217  65.990  1.00  0.00    -0.092 NA 
HETATM    6  C   UNL     1      -8.959   6.828  66.489  1.00  0.00    -0.149 A  
HETATM    7  C   UNL     1      -9.384   5.554  66.793  1.00  0.00    -0.132 A  
HETATM    8  N   UNL     1     -10.660   5.560  67.296  1.00  0.00    -0.240 NA 
HETATM    9  C   UNL     1      -8.466   4.462  66.552  1.00  0.00    -0.112 C  
HETATM   10  N   UNL     1      -7.253   4.901  66.036  1.00  0.00    -0.075 N  
HETATM   11  O   UNL     1      -8.687   3.274  66.763  1.00  0.00    -0.111 OA 
HETATM   12  C   UNL     1     -11.008   6.830  67.301  1.00  0.00    -0.363 A  
HETATM   13  N   UNL     1     -10.011   7.636  66.812  1.00  0.00    -0.243 NA 
HETATM   14  H   UNL     1      -6.546   4.197  65.826  1.00  0.00     0.000 HD 
ENDROOT
BRANCH  13  15
HETATM   15  C   UNL     1     -10.088   9.066  66.612  1.00  0.00    -0.285 C  
BRANCH  15  16
HETATM   16  O   UNL     1      -9.803   9.799  67.810  1.00  0.00    -0.151 OA 
BRANCH  16  17
HETATM   17  C   UNL     1     -10.931  10.072  68.672  1.00  0.00    -0.204 C  
BRANCH  17  18
HETATM   18  C   UNL     1     -10.763   9.494  70.085  1.00  0.00    -0.257 C  
HETATM   19  H   UNL     1     -11.881   9.189  71.692  1.00  0.00     0.000 HD 
HETATM   20  O   UNL     1     -11.985   9.547  70.818  1.00  0.00    -0.279 OA 
ENDBRANCH  17  18
BRANCH  17  21
HETATM   21  C   UNL     1     -11.073  11.602  68.746  1.00  0.00    -0.230 C  
HETATM   22  O   UNL     1     -11.259  12.017  70.100  1.00  0.00    -0.481 OA 
HETATM   23  H   UNL     1     -11.346  12.962  70.145  1.00  0.00     0.000 HD 
ENDBRANCH  17  21
ENDBRANCH  16  17
ENDBRANCH  15  16
ENDBRANCH  13  15
TORSDOF 5
ENDMDL
MODEL      240
REMARK 921   NORMALIZED FREE ENERGY PREDICTED BY IDOCK:   -2.63 KCAL/MOL
REMARK 922        TOTAL FREE ENERGY PREDICTED BY IDOCK:   -3.88 KCAL/MOL
REMARK 923 INTER-LIGAND FREE ENERGY PREDICTED BY IDOCK:   -3.38 KCAL/MOL
REMARK 924 INTRA-LIGAND FREE ENERGY PREDICTED BY IDOCK:   -0.50 KCAL/MOL
REMARK 927      BINDING AFFINITY PREDICTED BY RF-SCORE:    0.00 PKD
ROOT
HETATM    1  N   UNL     1     -12.456   8.779  72.386  1.00  0.00    -0.376 NA 
HETATM    2  C   UNL     1     -11.454   8.075  71.802  1.00  0.00    -0.277 C  
HETATM    3  H1  UNL     1     -13.136   8.303  72.978  1.00  0.00     0.000 HD 
HETATM    4  H2  UNL     1     -12.529   9.785  72.233  1.00  0.00     0.000 HD 
HETATM    5  N   UNL     1     -10.584   8.686  71.043  1.00  0.00    -0.210 NA 
HETATM    6  C   UNL     1      -9.656   7.852  70.515  1.00  0.00    -0.170 A  
HETATM    7  C   UNL     1      -9.536   6.491  70.686  1.00  0.00    -0.166 A  
HETATM    8  N   UNL     1      -8.475   5.989  69.974  1.00  0.00    -0.129 NA 
HETATM    9  C   UNL     1     -10.498   5.831  71.541  1.00  0.00    -0.235 C  
HETATM   10  N   UNL     1     -11.428   6.719  72.066  1.00  0.00    -0.269 N  
HETATM   11  O   UNL     1     -10.532   4.632  71.800  1.00  0.00    -0.171 OA 
HETATM   12  C   UNL     1      -7.956   7.039  69.372  1.00  0.00    -0.118 A  
HETATM   13  N   UNL     1      -8.633   8.192  69.677  1.00  0.00    -0.130 NA 
HETATM   14  H   UNL     1     -12.142   6.344  72.690  1.00  0.00     0.000 HD 
ENDROOT
BRANCH  13  15
HETATM   15  C   UNL     1      -8.285   9.528  69.246  1.00  0.00    -0.112 C  
BRANCH  15  16
HETATM   16  O   UNL     1      -7.689   9.541  67.943  1.00  0.00    -0.087 OA 
BRANCH  16  17
HETATM   17  C   UNL     1      -8.601   9.422  66.827  1.00  0.00    -0.127 C  
BRANCH  17  18
HETATM   18  C   UNL     1      -9.735  10.457  66.865  1.00  0.00    -0.181 C  
HETATM   19  H   UNL     1     -10.657  11.677  65.604  1.00  0.00     0.000 HD 
HETATM   20  O   UNL     1      -9.955  11.036  65.581  1.00  0.00    -0.225 OA 
ENDBRANCH  17  18
BRANCH  17  21
HETATM   21  C   UNL     1      -7.764   9.610  65.549  1.00  0.00    -0.112 C  
HETATM   22  O   UNL     1      -7.041  10.841  65.607  1.00  0.00    -0.286 OA 
HETATM   23  H   UNL     1      -6.525  10.956  64.818  1.00  0.00     0.000 HD 
ENDBRANCH  17  21
ENDBRANCH  16  17
ENDBRANCH  15  16
ENDBRANCH  13  15
TORSDOF 5
ENDMDL
MODEL      241
REMARK 921   NORMALIZED FREE ENERGY PREDICTED BY IDOCK:   -2.62 KCAL/MOL
REMARK 922        TOTAL FREE ENERGY PREDICTED BY IDOCK:   -3.87 KCAL/MOL
REMARK 923 INTER-LIGAND FREE ENERGY PREDICTED BY IDOCK:   -3.50 KCAL/MOL
REMARK 924 INTRA-LIGAND FREE ENERGY PREDICTED BY IDOCK:   -0.37 KCAL/MOL
REMARK 927      BINDING AFFINITY PREDICTED BY RF-SCORE:    0.00 PKD
ROOT
HETATM    1  N   UNL     1     -12.669  14.408  66.435  1.00  0.00    -0.398 NA 
HETATM    2  C   UNL     1     -11.352  14.179  66.664  1.00  0.00    -0.344 C  
HETATM    3  H1  UNL     1     -13.091  15.289  66.727  1.00  0.00     0.000 HD 
HETATM    4  H2  UNL     1     -13.236  13.700  65.970  1.00  0.00     0.000 HD 
HETATM    5  N   UNL     1     -10.811  13.050  66.289  1.00  0.00    -0.277 NA 
HETATM    6  C   UNL     1      -9.495  12.957  66.602  1.00  0.00    -0.255 A  
HETATM    7  C   UNL     1      -8.703  13.883  67.241  1.00  0.00    -0.217 A  
HETATM    8  N   UNL     1      -7.420  13.421  67.396  1.00  0.00    -0.154 NA 
HETATM    9  C   UNL     1      -9.312  15.134  67.637  1.00  0.00    -0.189 C  
HETATM   10  N   UNL     1     -10.657  15.193  67.296  1.00  0.00    -0.280 N  
HETATM   11  O   UNL     1      -8.750  16.062  68.210  1.00  0.00    -0.171 OA 
HETATM   12  C   UNL     1      -7.434  12.220  66.855  1.00  0.00     0.017 A  
HETATM   13  N   UNL     1      -8.670  11.899  66.353  1.00  0.00    -0.161 NA 
HETATM   14  H   UNL     1     -11.168  16.044  67.528  1.00  0.00     0.000 HD 
ENDROOT
BRANCH  13  15
HETATM   15  C   UNL     1      -9.013  10.693  65.632  1.00  0.00    -0.185 C  
BRANCH  15  16
HETATM   16  O   UNL     1      -9.225   9.579  66.508  1.00  0.00    -0.148 OA 
BRANCH  16  17
HETATM   17  C   UNL     1      -8.212   8.548  66.480  1.00  0.00    -0.108 C  
BRANCH  17  18
HETATM   18  C   UNL     1      -7.201   8.668  67.630  1.00  0.00    -0.084 C  
HETATM   19  H   UNL     1      -5.257   8.982  67.853  1.00  0.00     0.000 HD 
HETATM   20  O   UNL     1      -5.883   8.908  67.142  1.00  0.00    -0.045 OA 
ENDBRANCH  17  18
BRANCH  17  21
HETATM   21  C   UNL     1      -8.949   7.199  66.570  1.00  0.00    -0.151 C  
HETATM   22  O   UNL     1      -8.884   6.516  65.317  1.00  0.00    -0.351 OA 
HETATM   23  H   UNL     1      -9.339   5.684  65.373  1.00  0.00     0.000 HD 
ENDBRANCH  17  21
ENDBRANCH  16  17
ENDBRANCH  15  16
ENDBRANCH  13  15
TORSDOF 5
ENDMDL
MODEL      242
REMARK 921   NORMALIZED FREE ENERGY PREDICTED BY IDOCK:   -2.61 KCAL/MOL
REMARK 922        TOTAL FREE ENERGY PREDICTED BY IDOCK:   -3.85 KCAL/MOL
REMARK 923 INTER-LIGAND FREE ENERGY PREDICTED BY IDOCK:   -3.48 KCAL/MOL
REMARK 924 INTRA-LIGAND FREE ENERGY PREDICTED BY IDOCK:   -0.37 KCAL/MOL
REMARK 927      BINDING AFFINITY PREDICTED BY RF-SCORE:    0.00 PKD
ROOT
HETATM    1  N   UNL     1     -11.522   4.105  64.688  1.00  0.00    -0.879 NA 
HETATM    2  C   UNL     1     -10.358   4.304  65.356  1.00  0.00    -0.197 C  
HETATM    3  H1  UNL     1     -11.515   3.643  63.779  1.00  0.00     0.000 HD 
HETATM    4  H2  UNL     1     -12.403   4.417  65.095  1.00  0.00     0.000 HD 
HETATM    5  N   UNL     1     -10.367   4.896  66.521  1.00  0.00    -0.272 NA 
HETATM    6  C   UNL     1      -9.131   5.041  67.057  1.00  0.00    -0.117 A  
HETATM    7  C   UNL     1      -7.921   4.648  66.531  1.00  0.00    -0.103 A  
HETATM    8  N   UNL     1      -6.882   4.984  67.362  1.00  0.00    -0.055 NA 
HETATM    9  C   UNL     1      -7.928   3.981  65.247  1.00  0.00    -0.097 C  
HETATM   10  N   UNL     1      -9.212   3.847  64.734  1.00  0.00    -0.139 N  
HETATM   11  O   UNL     1      -6.945   3.567  64.643  1.00  0.00    -0.050 OA 
HETATM   12  C   UNL     1      -7.458   5.580  68.386  1.00  0.00    -0.077 A  
HETATM   13  N   UNL     1      -8.822   5.630  68.249  1.00  0.00    -0.109 NA 
HETATM   14  H   UNL     1      -9.316   3.378  63.834  1.00  0.00     0.000 HD 
ENDROOT
BRANCH  13  15
HETATM   15  C   UNL     1      -9.760   6.148  69.220  1.00  0.00    -0.137 C  
BRANCH  15  16
HETATM   16  O   UNL     1      -9.150   6.376  70.496  1.00  0.00    -0.153 OA 
BRANCH  16  17
HETATM   17  C   UNL     1      -9.307   7.705  71.046  1.00  0.00    -0.152 C  
BRANCH  17  18
HETATM   18  C   UNL     1      -8.145   8.644  70.690  1.00  0.00    -0.120 C  
HETATM   19  H   UNL     1      -6.681   9.593  71.629  1.00  0.00     0.000 HD 
HETATM   20  O   UNL     1      -7.400   9.012  71.849  1.00  0.00    -0.317 OA 
ENDBRANCH  17  18
BRANCH  17  21
HETATM   21  C   UNL     1     -10.625   8.265  70.482  1.00  0.00    -0.219 C  
HETATM   22  O   UNL     1     -11.219   9.167  71.417  1.00  0.00    -0.292 OA 
HETATM   23  H   UNL     1     -12.033   9.513  71.069  1.00  0.00     0.000 HD 
ENDBRANCH  17  21
ENDBRANCH  16  17
ENDBRANCH  15  16
ENDBRANCH  13  15
TORSDOF 5
ENDMDL
MODEL      243
REMARK 921   NORMALIZED FREE ENERGY PREDICTED BY IDOCK:   -2.60 KCAL/MOL
REMARK 922        TOTAL FREE ENERGY PREDICTED BY IDOCK:   -3.85 KCAL/MOL
REMARK 923 INTER-LIGAND FREE ENERGY PREDICTED BY IDOCK:   -3.41 KCAL/MOL
REMARK 924 INTRA-LIGAND FREE ENERGY PREDICTED BY IDOCK:   -0.44 KCAL/MOL
REMARK 927      BINDING AFFINITY PREDICTED BY RF-SCORE:    0.00 PKD
ROOT
HETATM    1  N   UNL     1      -7.005   5.585  70.754  1.00  0.00    -0.051 NA 
HETATM    2  C   UNL     1      -8.092   6.297  71.143  1.00  0.00    -0.118 C  
HETATM    3  H1  UNL     1      -6.644   4.839  71.349  1.00  0.00     0.000 HD 
HETATM    4  H2  UNL     1      -6.548   5.796  69.867  1.00  0.00     0.000 HD 
HETATM    5  N   UNL     1      -8.554   7.253  70.382  1.00  0.00    -0.143 NA 
HETATM    6  C   UNL     1      -9.630   7.886  70.909  1.00  0.00    -0.161 A  
HETATM    7  C   UNL     1     -10.261   7.639  72.108  1.00  0.00    -0.207 A  
HETATM    8  N   UNL     1     -11.310   8.503  72.306  1.00  0.00    -0.370 NA 
HETATM    9  C   UNL     1      -9.748   6.569  72.934  1.00  0.00    -0.154 C  
HETATM   10  N   UNL     1      -8.650   5.942  72.357  1.00  0.00    -0.121 N  
HETATM   11  O   UNL     1     -10.193   6.219  74.022  1.00  0.00    -0.255 OA 
HETATM   12  C   UNL     1     -11.312   9.270  71.235  1.00  0.00    -0.353 A  
HETATM   13  N   UNL     1     -10.317   8.927  70.357  1.00  0.00    -0.195 NA 
HETATM   14  H   UNL     1      -8.227   5.166  72.865  1.00  0.00     0.000 HD 
ENDROOT
BRANCH  13  15
HETATM   15  C   UNL     1     -10.084   9.516  69.056  1.00  0.00    -0.193 C  
BRANCH  15  16
HETATM   16  O   UNL     1      -9.223  10.659  69.123  1.00  0.00    -0.188 OA 
BRANCH  16  17
HETATM   17  C   UNL     1      -7.875  10.468  68.636  1.00  0.00    -0.116 C  
BRANCH  17  18
HETATM   18  C   UNL     1      -7.535  11.370  67.440  1.00  0.00    -0.120 C  
HETATM   19  H   UNL     1      -8.380  11.943  65.742  1.00  0.00     0.000 HD 
HETATM   20  O   UNL     1      -8.591  11.385  66.482  1.00  0.00    -0.169 OA 
ENDBRANCH  17  18
BRANCH  17  21
HETATM   21  C   UNL     1      -6.931  10.778  69.810  1.00  0.00    -0.141 C  
HETATM   22  O   UNL     1      -6.741  12.188  69.934  1.00  0.00    -0.352 OA 
HETATM   23  H   UNL     1      -6.158  12.379  70.659  1.00  0.00     0.000 HD 
ENDBRANCH  17  21
ENDBRANCH  16  17
ENDBRANCH  15  16
ENDBRANCH  13  15
TORSDOF 5
ENDMDL
MODEL      244
REMARK 921   NORMALIZED FREE ENERGY PREDICTED BY IDOCK:   -2.44 KCAL/MOL
REMARK 922        TOTAL FREE ENERGY PREDICTED BY IDOCK:   -3.64 KCAL/MOL
REMARK 923 INTER-LIGAND FREE ENERGY PREDICTED BY IDOCK:   -3.19 KCAL/MOL
REMARK 924 INTRA-LIGAND FREE ENERGY PREDICTED BY IDOCK:   -0.45 KCAL/MOL
REMARK 927      BINDING AFFINITY PREDICTED BY RF-SCORE:    0.00 PKD
ROOT
HETATM    1  N   UNL     1     -10.185   2.345  72.229  1.00  0.00    -0.160 NA 
HETATM    2  C   UNL     1      -9.700   3.610  72.266  1.00  0.00    -0.157 C  
HETATM    3  H1  UNL     1      -9.702   1.598  72.729  1.00  0.00     0.000 HD 
HETATM    4  H2  UNL     1     -11.034   2.139  71.701  1.00  0.00     0.000 HD 
HETATM    5  N   UNL     1     -10.318   4.566  71.626  1.00  0.00    -0.140 NA 
HETATM    6  C   UNL     1      -9.707   5.770  71.739  1.00  0.00    -0.156 A  
HETATM    7  C   UNL     1      -8.555   6.081  72.428  1.00  0.00    -0.120 A  
HETATM    8  N   UNL     1      -8.237   7.409  72.295  1.00  0.00    -0.100 NA 
HETATM    9  C   UNL     1      -7.889   5.015  73.144  1.00  0.00    -0.100 C  
HETATM   10  N   UNL     1      -8.549   3.800  73.007  1.00  0.00    -0.093 N  
HETATM   11  O   UNL     1      -6.862   5.121  73.805  1.00  0.00    -0.075 OA 
HETATM   12  C   UNL     1      -9.188   7.901  71.528  1.00  0.00    -0.136 A  
HETATM   13  N   UNL     1     -10.106   6.946  71.174  1.00  0.00    -0.192 NA 
HETATM   14  H   UNL     1      -8.156   2.991  73.488  1.00  0.00     0.000 HD 
ENDROOT
BRANCH  13  15
HETATM   15  C   UNL     1     -11.311   7.162  70.402  1.00  0.00    -0.289 C  
BRANCH  15  16
HETATM   16  O   UNL     1     -11.462   6.202  69.350  1.00  0.00    -0.423 OA 
BRANCH  16  17
HETATM   17  C   UNL     1     -10.926   6.582  68.062  1.00  0.00    -0.282 C  
BRANCH  17  18
HETATM   18  C   UNL     1     -10.449   8.041  68.016  1.00  0.00    -0.184 C  
HETATM   19  H   UNL     1     -10.110   9.436  66.650  1.00  0.00     0.000 HD 
HETATM   20  O   UNL     1     -10.406   8.533  66.678  1.00  0.00    -0.298 OA 
ENDBRANCH  17  18
BRANCH  17  21
HETATM   21  C   UNL     1      -9.746   5.636  67.775  1.00  0.00    -0.125 C  
HETATM   22  O   UNL     1      -9.748   4.549  68.702  1.00  0.00    -0.157 OA 
HETATM   23  H   UNL     1      -9.019   3.965  68.525  1.00  0.00     0.000 HD 
ENDBRANCH  17  21
ENDBRANCH  16  17
ENDBRANCH  15  16
ENDBRANCH  13  15
TORSDOF 5
ENDMDL
MODEL      245
REMARK 921   NORMALIZED FREE ENERGY PREDICTED BY IDOCK:   -2.43 KCAL/MOL
REMARK 922        TOTAL FREE ENERGY PREDICTED BY IDOCK:   -3.62 KCAL/MOL
REMARK 923 INTER-LIGAND FREE ENERGY PREDICTED BY IDOCK:   -3.28 KCAL/MOL
REMARK 924 INTRA-LIGAND FREE ENERGY PREDICTED BY IDOCK:   -0.34 KCAL/MOL
REMARK 927      BINDING AFFINITY PREDICTED BY RF-SCORE:    0.00 PKD
ROOT
HETATM    1  N   UNL     1     -10.975   6.142  69.890  1.00  0.00    -0.353 NA 
HETATM    2  C   UNL     1     -10.577   6.927  68.858  1.00  0.00    -0.221 C  
HETATM    3  H1  UNL     1     -11.544   6.536  70.640  1.00  0.00     0.000 HD 
HETATM    4  H2  UNL     1     -10.707   5.159  69.917  1.00  0.00     0.000 HD 
HETATM    5  N   UNL     1      -9.848   6.422  67.898  1.00  0.00    -0.120 NA 
HETATM    6  C   UNL     1      -9.511   7.328  66.949  1.00  0.00    -0.164 A  
HETATM    7  C   UNL     1      -9.841   8.664  66.889  1.00  0.00    -0.238 A  
HETATM    8  N   UNL     1      -9.299   9.263  65.779  1.00  0.00    -0.226 NA 
HETATM    9  C   UNL     1     -10.660   9.205  67.951  1.00  0.00    -0.214 C  
HETATM   10  N   UNL     1     -10.988   8.245  68.900  1.00  0.00    -0.427 N  
HETATM   11  O   UNL     1     -11.043  10.366  68.047  1.00  0.00    -0.280 OA 
HETATM   12  C   UNL     1      -8.642   8.297  65.170  1.00  0.00    -0.105 A  
HETATM   13  N   UNL     1      -8.749   7.104  65.839  1.00  0.00    -0.148 NA 
HETATM   14  H   UNL     1     -11.573   8.535  69.684  1.00  0.00     0.000 HD 
ENDROOT
BRANCH  13  15
HETATM   15  C   UNL     1      -8.213   5.831  65.408  1.00  0.00    -0.138 C  
BRANCH  15  16
HETATM   16  O   UNL     1      -9.205   5.008  64.783  1.00  0.00    -0.111 OA 
BRANCH  16  17
HETATM   17  C   UNL     1      -8.708   3.978  63.898  1.00  0.00    -0.113 C  
BRANCH  17  18
HETATM   18  C   UNL     1      -9.753   3.510  62.874  1.00  0.00    -0.108 C  
HETATM   19  H   UNL     1     -11.463   2.508  62.869  1.00  0.00     0.000 HD 
HETATM   20  O   UNL     1     -10.816   2.797  63.503  1.00  0.00    -0.236 OA 
ENDBRANCH  17  18
BRANCH  17  21
HETATM   21  C   UNL     1      -7.489   4.569  63.169  1.00  0.00    -0.053 C  
HETATM   22  O   UNL     1      -6.415   3.628  63.158  1.00  0.00    -0.024 OA 
HETATM   23  H   UNL     1      -5.662   3.993  62.707  1.00  0.00     0.000 HD 
ENDBRANCH  17  21
ENDBRANCH  16  17
ENDBRANCH  15  16
ENDBRANCH  13  15
TORSDOF 5
ENDMDL
MODEL      246
REMARK 921   NORMALIZED FREE ENERGY PREDICTED BY IDOCK:   -2.41 KCAL/MOL
REMARK 922        TOTAL FREE ENERGY PREDICTED BY IDOCK:   -3.60 KCAL/MOL
REMARK 923 INTER-LIGAND FREE ENERGY PREDICTED BY IDOCK:   -3.21 KCAL/MOL
REMARK 924 INTRA-LIGAND FREE ENERGY PREDICTED BY IDOCK:   -0.39 KCAL/MOL
REMARK 927      BINDING AFFINITY PREDICTED BY RF-SCORE:    0.00 PKD
ROOT
HETATM    1  N   UNL     1      -8.668   8.642  63.499  1.00  0.00    -0.428 NA 
HETATM    2  C   UNL     1      -8.811   8.851  64.831  1.00  0.00    -0.117 C  
HETATM    3  H1  UNL     1      -9.057   7.803  63.070  1.00  0.00     0.000 HD 
HETATM    4  H2  UNL     1      -8.171   9.325  62.926  1.00  0.00     0.000 HD 
HETATM    5  N   UNL     1      -8.312   9.927  65.381  1.00  0.00    -0.139 NA 
HETATM    6  C   UNL     1      -8.516   9.989  66.719  1.00  0.00    -0.125 A  
HETATM    7  C   UNL     1      -9.166   9.081  67.525  1.00  0.00    -0.135 A  
HETATM    8  N   UNL     1      -9.156   9.483  68.837  1.00  0.00    -0.138 NA 
HETATM    9  C   UNL     1      -9.726   7.903  66.901  1.00  0.00    -0.219 C  
HETATM   10  N   UNL     1      -9.500   7.879  65.530  1.00  0.00    -0.290 N  
HETATM   11  O   UNL     1     -10.334   7.003  67.471  1.00  0.00    -0.180 OA 
HETATM   12  C   UNL     1      -8.502  10.626  68.828  1.00  0.00    -0.149 A  
HETATM   13  N   UNL     1      -8.102  10.977  67.564  1.00  0.00    -0.115 NA 
HETATM   14  H   UNL     1      -9.869   7.088  65.003  1.00  0.00     0.000 HD 
ENDROOT
BRANCH  13  15
HETATM   15  C   UNL     1      -7.428  12.201  67.189  1.00  0.00    -0.129 C  
BRANCH  15  16
HETATM   16  O   UNL     1      -7.536  13.212  68.199  1.00  0.00    -0.106 OA 
BRANCH  16  17
HETATM   17  C   UNL     1      -8.364  14.351  67.871  1.00  0.00    -0.162 C  
BRANCH  17  18
HETATM   18  C   UNL     1      -9.483  14.594  68.895  1.00  0.00    -0.173 C  
HETATM   19  H   UNL     1     -11.220  13.782  69.397  1.00  0.00     0.000 HD 
HETATM   20  O   UNL     1     -10.527  13.631  68.763  1.00  0.00    -0.240 OA 
ENDBRANCH  17  18
BRANCH  17  21
HETATM   21  C   UNL     1      -7.433  15.574  67.814  1.00  0.00    -0.150 C  
HETATM   22  O   UNL     1      -7.765  16.498  68.851  1.00  0.00    -0.214 OA 
HETATM   23  H   UNL     1      -7.190  17.254  68.815  1.00  0.00     0.000 HD 
ENDBRANCH  17  21
ENDBRANCH  16  17
ENDBRANCH  15  16
ENDBRANCH  13  15
TORSDOF 5
ENDMDL
MODEL      247
REMARK 921   NORMALIZED FREE ENERGY PREDICTED BY IDOCK:   -2.33 KCAL/MOL
REMARK 922        TOTAL FREE ENERGY PREDICTED BY IDOCK:   -3.49 KCAL/MOL
REMARK 923 INTER-LIGAND FREE ENERGY PREDICTED BY IDOCK:   -3.11 KCAL/MOL
REMARK 924 INTRA-LIGAND FREE ENERGY PREDICTED BY IDOCK:   -0.39 KCAL/MOL
REMARK 927      BINDING AFFINITY PREDICTED BY RF-SCORE:    0.00 PKD
ROOT
HETATM    1  N   UNL     1     -10.610   8.681  71.639  1.00  0.00    -0.276 NA 
HETATM    2  C   UNL     1     -10.297   8.042  70.485  1.00  0.00    -0.202 C  
HETATM    3  H1  UNL     1     -10.907   8.144  72.455  1.00  0.00     0.000 HD 
HETATM    4  H2  UNL     1     -10.550   9.698  71.693  1.00  0.00     0.000 HD 
HETATM    5  N   UNL     1      -9.917   8.730  69.441  1.00  0.00    -0.191 NA 
HETATM    6  C   UNL     1      -9.657   7.959  68.357  1.00  0.00    -0.150 A  
HETATM    7  C   UNL     1      -9.743   6.589  68.244  1.00  0.00    -0.131 A  
HETATM    8  N   UNL     1      -9.414   6.171  66.979  1.00  0.00    -0.125 NA 
HETATM    9  C   UNL     1     -10.151   5.840  69.413  1.00  0.00    -0.213 C  
HETATM   10  N   UNL     1     -10.403   6.665  70.502  1.00  0.00    -0.196 N  
HETATM   11  O   UNL     1     -10.275   4.622  69.482  1.00  0.00    -0.203 OA 
HETATM   12  C   UNL     1      -9.133   7.280  66.327  1.00  0.00    -0.149 A  
HETATM   13  N   UNL     1      -9.258   8.389  67.125  1.00  0.00    -0.139 NA 
HETATM   14  H   UNL     1     -10.688   6.222  71.375  1.00  0.00     0.000 HD 
ENDROOT
BRANCH  13  15
HETATM   15  C   UNL     1      -8.954   9.752  66.748  1.00  0.00    -0.138 C  
BRANCH  15  16
HETATM   16  O   UNL     1      -9.906  10.283  65.818  1.00  0.00    -0.224 OA 
BRANCH  16  17
HETATM   17  C   UNL     1      -9.409  11.288  64.905  1.00  0.00    -0.159 C  
BRANCH  17  18
HETATM   18  C   UNL     1      -8.699  10.690  63.681  1.00  0.00    -0.145 C  
HETATM   19  H   UNL     1      -8.949   9.174  62.431  1.00  0.00     0.000 HD 
HETATM   20  O   UNL     1      -9.389   9.544  63.188  1.00  0.00    -0.145 OA 
ENDBRANCH  17  18
BRANCH  17  21
HETATM   21  C   UNL     1     -10.624  12.116  64.452  1.00  0.00    -0.323 C  
HETATM   22  O   UNL     1     -11.832  11.391  64.685  1.00  0.00     0.002 OA 
HETATM   23  H   UNL     1     -12.582  11.902  64.406  1.00  0.00     0.000 HD 
ENDBRANCH  17  21
ENDBRANCH  16  17
ENDBRANCH  15  16
ENDBRANCH  13  15
TORSDOF 5
ENDMDL
MODEL      248
REMARK 921   NORMALIZED FREE ENERGY PREDICTED BY IDOCK:   -2.27 KCAL/MOL
REMARK 922        TOTAL FREE ENERGY PREDICTED BY IDOCK:   -3.42 KCAL/MOL
REMARK 923 INTER-LIGAND FREE ENERGY PREDICTED BY IDOCK:   -3.30 KCAL/MOL
REMARK 924 INTRA-LIGAND FREE ENERGY PREDICTED BY IDOCK:   -0.12 KCAL/MOL
REMARK 927      BINDING AFFINITY PREDICTED BY RF-SCORE:    0.00 PKD
ROOT
HETATM    1  N   UNL     1     -10.772   5.599  71.312  1.00  0.00    -0.255 NA 
HETATM    2  C   UNL     1      -9.777   6.520  71.354  1.00  0.00    -0.172 C  
HETATM    3  H1  UNL     1     -10.758   4.803  71.950  1.00  0.00     0.000 HD 
HETATM    4  H2  UNL     1     -11.535   5.702  70.642  1.00  0.00     0.000 HD 
HETATM    5  N   UNL     1      -9.796   7.539  70.536  1.00  0.00    -0.183 NA 
HETATM    6  C   UNL     1      -8.729   8.362  70.681  1.00  0.00    -0.146 A  
HETATM    7  C   UNL     1      -7.676   8.246  71.560  1.00  0.00    -0.098 A  
HETATM    8  N   UNL     1      -6.775   9.269  71.398  1.00  0.00    -0.255 NA 
HETATM    9  C   UNL     1      -7.676   7.121  72.469  1.00  0.00    -0.088 C  
HETATM   10  N   UNL     1      -8.787   6.305  72.292  1.00  0.00    -0.136 N  
HETATM   11  O   UNL     1      -6.820   6.873  73.312  1.00  0.00    -0.073 OA 
HETATM   12  C   UNL     1      -7.278   9.999  70.424  1.00  0.00    -0.108 A  
HETATM   13  N   UNL     1      -8.466   9.493  69.964  1.00  0.00    -0.177 NA 
HETATM   14  H   UNL     1      -8.877   5.489  72.898  1.00  0.00     0.000 HD 
ENDROOT
BRANCH  13  15
HETATM   15  C   UNL     1      -9.316  10.087  68.956  1.00  0.00    -0.181 C  
BRANCH  15  16
HETATM   16  O   UNL     1      -8.854   9.814  67.627  1.00  0.00    -0.125 OA 
BRANCH  16  17
HETATM   17  C   UNL     1      -9.682  10.314  66.552  1.00  0.00    -0.193 C  
BRANCH  17  18
HETATM   18  C   UNL     1      -9.784  11.846  66.535  1.00  0.00    -0.210 C  
HETATM   19  H   UNL     1     -10.959  13.251  67.292  1.00  0.00     0.000 HD 
HETATM   20  O   UNL     1     -10.896  12.303  67.302  1.00  0.00    -0.231 OA 
ENDBRANCH  17  18
BRANCH  17  21
HETATM   21  C   UNL     1      -9.053   9.817  65.239  1.00  0.00    -0.211 C  
HETATM   22  O   UNL     1      -9.990   9.930  64.167  1.00  0.00    -0.457 OA 
HETATM   23  H   UNL     1      -9.602   9.623  63.356  1.00  0.00     0.000 HD 
ENDBRANCH  17  21
ENDBRANCH  16  17
ENDBRANCH  15  16
ENDBRANCH  13  15
TORSDOF 5
ENDMDL
MODEL      249
REMARK 921   NORMALIZED FREE ENERGY PREDICTED BY IDOCK:   -2.09 KCAL/MOL
REMARK 922        TOTAL FREE ENERGY PREDICTED BY IDOCK:   -3.19 KCAL/MOL
REMARK 923 INTER-LIGAND FREE ENERGY PREDICTED BY IDOCK:   -2.67 KCAL/MOL
REMARK 924 INTRA-LIGAND FREE ENERGY PREDICTED BY IDOCK:   -0.51 KCAL/MOL
REMARK 927      BINDING AFFINITY PREDICTED BY RF-SCORE:    0.00 PKD
ROOT
HETATM    1  N   UNL     1      -8.304   9.169  62.513  1.00  0.00    -0.175 NA 
HETATM    2  C   UNL     1      -8.147   9.230  63.859  1.00  0.00    -0.151 C  
HETATM    3  H1  UNL     1      -7.742   9.766  61.907  1.00  0.00     0.000 HD 
HETATM    4  H2  UNL     1      -8.984   8.525  62.108  1.00  0.00     0.000 HD 
HETATM    5  N   UNL     1      -8.867   8.465  64.636  1.00  0.00     0.067 NA 
HETATM    6  C   UNL     1      -8.614   8.650  65.954  1.00  0.00    -0.157 A  
HETATM    7  C   UNL     1      -7.717   9.518  66.537  1.00  0.00    -0.097 A  
HETATM    8  N   UNL     1      -7.757   9.431  67.906  1.00  0.00    -0.088 NA 
HETATM    9  C   UNL     1      -6.917  10.348  65.664  1.00  0.00    -0.132 C  
HETATM   10  N   UNL     1      -7.202  10.125  64.323  1.00  0.00    -0.196 N  
HETATM   11  O   UNL     1      -6.075  11.167  66.018  1.00  0.00    -0.129 OA 
HETATM   12  C   UNL     1      -8.674   8.519  68.153  1.00  0.00    -0.142 A  
HETATM   13  N   UNL     1      -9.215   8.011  66.999  1.00  0.00    -0.141 NA 
HETATM   14  H   UNL     1      -6.677  10.661  63.631  1.00  0.00     0.000 HD 
ENDROOT
BRANCH  13  15
HETATM   15  C   UNL     1     -10.189   6.946  66.909  1.00  0.00    -0.240 C  
BRANCH  15  16
HETATM   16  O   UNL     1      -9.617   5.661  67.181  1.00  0.00    -0.122 OA 
BRANCH  16  17
HETATM   17  C   UNL     1      -8.800   5.095  66.130  1.00  0.00    -0.132 C  
BRANCH  17  18
HETATM   18  C   UNL     1      -7.394   4.702  66.608  1.00  0.00    -0.081 C  
HETATM   19  H   UNL     1      -5.637   5.577  66.885  1.00  0.00     0.000 HD 
HETATM   20  O   UNL     1      -6.507   5.820  66.589  1.00  0.00    -0.047 OA 
ENDBRANCH  17  18
BRANCH  17  21
HETATM   21  C   UNL     1      -9.542   3.850  65.612  1.00  0.00    -0.182 C  
HETATM   22  O   UNL     1     -10.732   4.236  64.922  1.00  0.00    -0.528 OA 
HETATM   23  H   UNL     1     -11.190   3.467  64.602  1.00  0.00     0.000 HD 
ENDBRANCH  17  21
ENDBRANCH  16  17
ENDBRANCH  15  16
ENDBRANCH  13  15
TORSDOF 5
ENDMDL
MODEL      250
REMARK 921   NORMALIZED FREE ENERGY PREDICTED BY IDOCK:   -1.98 KCAL/MOL
REMARK 922        TOTAL FREE ENERGY PREDICTED BY IDOCK:   -3.05 KCAL/MOL
REMARK 923 INTER-LIGAND FREE ENERGY PREDICTED BY IDOCK:   -3.12 KCAL/MOL
REMARK 924 INTRA-LIGAND FREE ENERGY PREDICTED BY IDOCK:    0.08 KCAL/MOL
REMARK 927      BINDING AFFINITY PREDICTED BY RF-SCORE:    0.00 PKD
ROOT
HETATM    1  N   UNL     1      -6.203   6.581  70.515  1.00  0.00    -0.037 NA 
HETATM    2  C   UNL     1      -7.328   6.699  71.264  1.00  0.00    -0.083 C  
HETATM    3  H1  UNL     1      -5.403   6.061  70.875  1.00  0.00     0.000 HD 
HETATM    4  H2  UNL     1      -6.157   7.012  69.592  1.00  0.00     0.000 HD 
HETATM    5  N   UNL     1      -8.352   7.366  70.802  1.00  0.00    -0.118 NA 
HETATM    6  C   UNL     1      -9.394   7.414  71.668  1.00  0.00    -0.149 A  
HETATM    7  C   UNL     1      -9.485   6.859  72.924  1.00  0.00    -0.140 A  
HETATM    8  N   UNL     1     -10.697   7.136  73.506  1.00  0.00    -0.373 NA 
HETATM    9  C   UNL     1      -8.349   6.111  73.416  1.00  0.00    -0.116 C  
HETATM   10  N   UNL     1      -7.305   6.081  72.499  1.00  0.00    -0.089 N  
HETATM   11  O   UNL     1      -8.267   5.554  74.506  1.00  0.00    -0.106 OA 
HETATM   12  C   UNL     1     -11.336   7.859  72.609  1.00  0.00    -0.408 A  
HETATM   13  N   UNL     1     -10.588   8.045  71.474  1.00  0.00    -0.221 NA 
HETATM   14  H   UNL     1      -6.463   5.566  72.757  1.00  0.00     0.000 HD 
ENDROOT
BRANCH  13  15
HETATM   15  C   UNL     1     -11.015   8.725  70.271  1.00  0.00    -0.235 C  
BRANCH  15  16
HETATM   16  O   UNL     1      -9.912   9.254  69.525  1.00  0.00    -0.174 OA 
BRANCH  16  17
HETATM   17  C   UNL     1     -10.249   9.967  68.313  1.00  0.00    -0.176 C  
BRANCH  17  18
HETATM   18  C   UNL     1      -9.542  11.326  68.199  1.00  0.00    -0.186 C  
HETATM   19  H   UNL     1      -9.143  12.663  66.792  1.00  0.00     0.000 HD 
HETATM   20  O   UNL     1      -9.580  11.822  66.862  1.00  0.00    -0.187 OA 
ENDBRANCH  17  18
BRANCH  17  21
HETATM   21  C   UNL     1      -9.837   9.063  67.138  1.00  0.00    -0.203 C  
HETATM   22  O   UNL     1      -8.622   8.377  67.443  1.00  0.00    -0.123 OA 
HETATM   23  H   UNL     1      -8.368   7.819  66.717  1.00  0.00     0.000 HD 
ENDBRANCH  17  21
ENDBRANCH  16  17
ENDBRANCH  15  16
ENDBRANCH  13  15
TORSDOF 5
ENDMDL
MODEL      251
REMARK 921   NORMALIZED FREE ENERGY PREDICTED BY IDOCK:   -1.94 KCAL/MOL
REMARK 922        TOTAL FREE ENERGY PREDICTED BY IDOCK:   -2.99 KCAL/MOL
REMARK 923 INTER-LIGAND FREE ENERGY PREDICTED BY IDOCK:   -2.59 KCAL/MOL
REMARK 924 INTRA-LIGAND FREE ENERGY PREDICTED BY IDOCK:   -0.40 KCAL/MOL
REMARK 927      BINDING AFFINITY PREDICTED BY RF-SCORE:    0.00 PKD
ROOT
HETATM    1  N   UNL     1      -8.689   8.728  62.334  1.00  0.00    -0.378 NA 
HETATM    2  C   UNL     1      -8.404   7.653  63.109  1.00  0.00     0.110 C  
HETATM    3  H1  UNL     1      -8.868   8.605  61.337  1.00  0.00     0.000 HD 
HETATM    4  H2  UNL     1      -8.726   9.660  62.747  1.00  0.00     0.000 HD 
HETATM    5  N   UNL     1      -8.174   7.811  64.386  1.00  0.00    -0.089 NA 
HETATM    6  C   UNL     1      -7.885   6.652  65.025  1.00  0.00    -0.113 A  
HETATM    7  C   UNL     1      -7.811   5.382  64.498  1.00  0.00    -0.102 A  
HETATM    8  N   UNL     1      -7.474   4.461  65.458  1.00  0.00    -0.080 NA 
HETATM    9  C   UNL     1      -8.082   5.221  63.086  1.00  0.00    -0.104 C  
HETATM   10  N   UNL     1      -8.379   6.429  62.468  1.00  0.00    -0.276 N  
HETATM   11  O   UNL     1      -8.061   4.164  62.463  1.00  0.00    -0.065 OA 
HETATM   12  C   UNL     1      -7.340   5.169  66.561  1.00  0.00    -0.086 A  
HETATM   13  N   UNL     1      -7.588   6.501  66.349  1.00  0.00    -0.089 NA 
HETATM   14  H   UNL     1      -8.593   6.411  61.472  1.00  0.00     0.000 HD 
ENDROOT
BRANCH  13  15
HETATM   15  C   UNL     1      -7.602   7.539  67.355  1.00  0.00    -0.109 C  
BRANCH  15  16
HETATM   16  O   UNL     1      -7.690   7.008  68.683  1.00  0.00    -0.114 OA 
BRANCH  16  17
HETATM   17  C   UNL     1      -8.765   7.521  69.502  1.00  0.00    -0.137 C  
BRANCH  17  18
HETATM   18  C   UNL     1      -8.839   9.055  69.504  1.00  0.00    -0.146 C  
HETATM   19  H   UNL     1      -8.696  10.534  70.816  1.00  0.00     0.000 HD 
HETATM   20  O   UNL     1      -8.650   9.585  70.815  1.00  0.00    -0.220 OA 
ENDBRANCH  17  18
BRANCH  17  21
HETATM   21  C   UNL     1     -10.071   6.935  68.939  1.00  0.00    -0.170 C  
HETATM   22  O   UNL     1     -10.928   7.983  68.483  1.00  0.00    -0.422 OA 
HETATM   23  H   UNL     1     -11.735   7.621  68.135  1.00  0.00     0.000 HD 
ENDBRANCH  17  21
ENDBRANCH  16  17
ENDBRANCH  15  16
ENDBRANCH  13  15
TORSDOF 5
ENDMDL
MODEL      252
REMARK 921   NORMALIZED FREE ENERGY PREDICTED BY IDOCK:   -1.93 KCAL/MOL
REMARK 922        TOTAL FREE ENERGY PREDICTED BY IDOCK:   -2.98 KCAL/MOL
REMARK 923 INTER-LIGAND FREE ENERGY PREDICTED BY IDOCK:   -2.41 KCAL/MOL
REMARK 924 INTRA-LIGAND FREE ENERGY PREDICTED BY IDOCK:   -0.57 KCAL/MOL
REMARK 927      BINDING AFFINITY PREDICTED BY RF-SCORE:    0.00 PKD
ROOT
HETATM    1  N   UNL     1     -10.315  16.603  69.511  1.00  0.00    -0.276 NA 
HETATM    2  C   UNL     1      -9.156  16.175  68.950  1.00  0.00    -0.246 C  
HETATM    3  H1  UNL     1     -10.721  17.494  69.226  1.00  0.00     0.000 HD 
HETATM    4  H2  UNL     1     -10.781  16.033  70.217  1.00  0.00     0.000 HD 
HETATM    5  N   UNL     1      -8.636  15.034  69.316  1.00  0.00    -0.195 NA 
HETATM    6  C   UNL     1      -7.471  14.750  68.685  1.00  0.00    -0.126 A  
HETATM    7  C   UNL     1      -6.807  15.501  67.741  1.00  0.00    -0.161 A  
HETATM    8  N   UNL     1      -5.644  14.890  67.345  1.00  0.00    -0.317 NA 
HETATM    9  C   UNL     1      -7.402  16.755  67.336  1.00  0.00    -0.160 C  
HETATM   10  N   UNL     1      -8.596  17.007  68.000  1.00  0.00    -0.212 N  
HETATM   11  O   UNL     1      -6.945  17.538  66.509  1.00  0.00    -0.200 OA 
HETATM   12  C   UNL     1      -5.601  13.776  68.046  1.00  0.00    -0.127 A  
HETATM   13  N   UNL     1      -6.692  13.644  68.866  1.00  0.00    -0.104 NA 
HETATM   14  H   UNL     1      -9.093  17.868  67.771  1.00  0.00     0.000 HD 
ENDROOT
BRANCH  13  15
HETATM   15  C   UNL     1      -6.994  12.511  69.713  1.00  0.00     0.381 C  
BRANCH  15  16
HETATM   16  O   UNL     1      -6.864  11.264  69.018  1.00  0.00    -0.081 OA 
BRANCH  16  17
HETATM   17  C   UNL     1      -7.984  10.356  69.128  1.00  0.00    -0.141 C  
BRANCH  17  18
HETATM   18  C   UNL     1      -8.047   9.642  70.486  1.00  0.00    -0.109 C  
HETATM   19  H   UNL     1      -9.387   9.295  71.905  1.00  0.00     0.000 HD 
HETATM   20  O   UNL     1      -9.348   9.736  71.064  1.00  0.00    -0.090 OA 
ENDBRANCH  17  18
BRANCH  17  21
HETATM   21  C   UNL     1      -9.257  11.194  68.918  1.00  0.00    -0.096 C  
HETATM   22  O   UNL     1     -10.238  10.434  68.211  1.00  0.00    -0.151 OA 
HETATM   23  H   UNL     1     -11.024  10.951  68.081  1.00  0.00     0.000 HD 
ENDBRANCH  17  21
ENDBRANCH  16  17
ENDBRANCH  15  16
ENDBRANCH  13  15
TORSDOF 5
ENDMDL
MODEL      253
REMARK 921   NORMALIZED FREE ENERGY PREDICTED BY IDOCK:   -1.66 KCAL/MOL
REMARK 922        TOTAL FREE ENERGY PREDICTED BY IDOCK:   -2.63 KCAL/MOL
REMARK 923 INTER-LIGAND FREE ENERGY PREDICTED BY IDOCK:   -2.99 KCAL/MOL
REMARK 924 INTRA-LIGAND FREE ENERGY PREDICTED BY IDOCK:    0.36 KCAL/MOL
REMARK 927      BINDING AFFINITY PREDICTED BY RF-SCORE:    0.00 PKD
ROOT
HETATM    1  N   UNL     1      -8.449   9.414  62.410  1.00  0.00    -0.176 NA 
HETATM    2  C   UNL     1      -8.061   9.702  63.678  1.00  0.00    -0.151 C  
HETATM    3  H1  UNL     1      -7.826   9.614  61.628  1.00  0.00     0.000 HD 
HETATM    4  H2  UNL     1      -9.364   8.997  62.239  1.00  0.00     0.000 HD 
HETATM    5  N   UNL     1      -8.860   9.445  64.679  1.00  0.00    -0.204 NA 
HETATM    6  C   UNL     1      -8.345   9.804  65.881  1.00  0.00    -0.124 A  
HETATM    7  C   UNL     1      -7.124  10.381  66.147  1.00  0.00    -0.130 A  
HETATM    8  N   UNL     1      -6.964  10.614  67.490  1.00  0.00    -0.082 NA 
HETATM    9  C   UNL     1      -6.244  10.646  65.030  1.00  0.00     0.004 C  
HETATM   10  N   UNL     1      -6.806  10.261  63.819  1.00  0.00    -0.262 N  
HETATM   11  O   UNL     1      -5.128  11.151  65.093  1.00  0.00    -0.265 OA 
HETATM   12  C   UNL     1      -8.083  10.182  68.035  1.00  0.00    -0.112 A  
HETATM   13  N   UNL     1      -8.946   9.674  67.099  1.00  0.00    -0.134 NA 
HETATM   14  H   UNL     1      -6.251  10.401  62.974  1.00  0.00     0.000 HD 
ENDROOT
BRANCH  13  15
HETATM   15  C   UNL     1     -10.226   9.054  67.363  1.00  0.00    -0.245 C  
BRANCH  15  16
HETATM   16  O   UNL     1     -10.387   8.707  68.744  1.00  0.00    -0.208 OA 
BRANCH  16  17
HETATM   17  C   UNL     1     -10.571   9.813  69.658  1.00  0.00    -0.239 C  
BRANCH  17  18
HETATM   18  C   UNL     1     -12.040  10.031  70.050  1.00  0.00    -0.021 C  
HETATM   19  H   UNL     1     -13.573  11.136  69.453  1.00  0.00     0.000 HD 
HETATM   20  O   UNL     1     -12.664  11.001  69.211  1.00  0.00    -0.280 OA 
ENDBRANCH  17  18
BRANCH  17  21
HETATM   21  C   UNL     1      -9.737   9.495  70.912  1.00  0.00    -0.172 C  
HETATM   22  O   UNL     1     -10.208   8.296  71.529  1.00  0.00    -0.193 OA 
HETATM   23  H   UNL     1      -9.693   8.100  72.303  1.00  0.00     0.000 HD 
ENDBRANCH  17  21
ENDBRANCH  16  17
ENDBRANCH  15  16
ENDBRANCH  13  15
TORSDOF 5
ENDMDL
MODEL      254
REMARK 921   NORMALIZED FREE ENERGY PREDICTED BY IDOCK:   -1.37 KCAL/MOL
REMARK 922        TOTAL FREE ENERGY PREDICTED BY IDOCK:   -2.26 KCAL/MOL
REMARK 923 INTER-LIGAND FREE ENERGY PREDICTED BY IDOCK:   -1.99 KCAL/MOL
REMARK 924 INTRA-LIGAND FREE ENERGY PREDICTED BY IDOCK:   -0.27 KCAL/MOL
REMARK 927      BINDING AFFINITY PREDICTED BY RF-SCORE:    0.00 PKD
ROOT
HETATM    1  N   UNL     1      -8.654  20.910  66.271  1.00  0.00    -0.069 NA 
HETATM    2  C   UNL     1      -9.104  20.023  67.193  1.00  0.00    -0.363 C  
HETATM    3  H1  UNL     1      -8.858  21.903  66.378  1.00  0.00     0.000 HD 
HETATM    4  H2  UNL     1      -8.111  20.584  65.472  1.00  0.00     0.000 HD 
HETATM    5  N   UNL     1      -8.842  18.750  67.057  1.00  0.00    -0.287 NA 
HETATM    6  C   UNL     1      -9.371  17.985  68.042  1.00  0.00    -0.272 A  
HETATM    7  C   UNL     1     -10.120  18.388  69.125  1.00  0.00    -0.143 A  
HETATM    8  N   UNL     1     -10.494  17.318  69.900  1.00  0.00     0.091 NA 
HETATM    9  C   UNL     1     -10.390  19.802  69.271  1.00  0.00     0.004 C  
HETATM   10  N   UNL     1      -9.827  20.551  68.245  1.00  0.00    -0.110 N  
HETATM   11  O   UNL     1     -11.035  20.325  70.174  1.00  0.00     1.031 OA 
HETATM   12  C   UNL     1      -9.977  16.272  69.289  1.00  0.00    -0.259 A  
HETATM   13  N   UNL     1      -9.280  16.629  68.162  1.00  0.00    -0.216 NA 
HETATM   14  H   UNL     1      -9.957  21.562  68.271  1.00  0.00     0.000 HD 
ENDROOT
BRANCH  13  15
HETATM   15  C   UNL     1      -8.530  15.739  67.303  1.00  0.00    -0.189 C  
BRANCH  15  16
HETATM   16  O   UNL     1      -8.591  14.378  67.745  1.00  0.00    -0.154 OA 
BRANCH  16  17
HETATM   17  C   UNL     1      -7.581  13.491  67.212  1.00  0.00    -0.058 C  
BRANCH  17  18
HETATM   18  C   UNL     1      -6.351  13.363  68.123  1.00  0.00    -0.114 C  
HETATM   19  H   UNL     1      -4.423  13.817  68.065  1.00  0.00     0.000 HD 
HETATM   20  O   UNL     1      -5.184  13.896  67.501  1.00  0.00    -0.327 OA 
ENDBRANCH  17  18
BRANCH  17  21
HETATM   21  C   UNL     1      -8.246  12.115  67.035  1.00  0.00    -0.164 C  
HETATM   22  O   UNL     1      -8.733  11.969  65.700  1.00  0.00    -0.396 OA 
HETATM   23  H   UNL     1      -9.144  11.120  65.590  1.00  0.00     0.000 HD 
ENDBRANCH  17  21
ENDBRANCH  16  17
ENDBRANCH  15  16
ENDBRANCH  13  15
TORSDOF 5
ENDMDL
MODEL      255
REMARK 921   NORMALIZED FREE ENERGY PREDICTED BY IDOCK:   -0.78 KCAL/MOL
REMARK 922        TOTAL FREE ENERGY PREDICTED BY IDOCK:   -1.49 KCAL/MOL
REMARK 923 INTER-LIGAND FREE ENERGY PREDICTED BY IDOCK:   -1.39 KCAL/MOL
REMARK 924 INTRA-LIGAND FREE ENERGY PREDICTED BY IDOCK:   -0.10 KCAL/MOL
REMARK 927      BINDING AFFINITY PREDICTED BY RF-SCORE:    0.00 PKD
ROOT
HETATM    1  N   UNL     1      -8.213  20.805  65.190  1.00  0.00     0.336 NA 
HETATM    2  C   UNL     1      -8.745  20.210  66.287  1.00  0.00    -0.215 C  
HETATM    3  H1  UNL     1      -8.352  21.803  65.034  1.00  0.00     0.000 HD 
HETATM    4  H2  UNL     1      -7.674  20.254  64.522  1.00  0.00     0.000 HD 
HETATM    5  N   UNL     1      -8.566  18.931  66.487  1.00  0.00    -0.298 NA 
HETATM    6  C   UNL     1      -9.170  18.475  67.611  1.00  0.00    -0.281 A  
HETATM    7  C   UNL     1      -9.917  19.184  68.526  1.00  0.00    -0.425 A  
HETATM    8  N   UNL     1     -10.381  18.371  69.529  1.00  0.00     0.222 NA 
HETATM    9  C   UNL     1     -10.094  20.602  68.299  1.00  0.00     0.133 C  
HETATM   10  N   UNL     1      -9.456  21.030  67.141  1.00  0.00    -0.662 N  
HETATM   11  O   UNL     1     -10.723  21.375  69.013  1.00  0.00     0.988 OA 
HETATM   12  C   UNL     1      -9.921  17.175  69.224  1.00  0.00    -0.151 A  
HETATM   13  N   UNL     1      -9.174  17.192  68.074  1.00  0.00    -0.244 NA 
HETATM   14  H   UNL     1      -9.518  22.021  66.905  1.00  0.00     0.000 HD 
ENDROOT
BRANCH  13  15
HETATM   15  C   UNL     1      -8.466  16.070  67.498  1.00  0.00    -0.163 C  
BRANCH  15  16
HETATM   16  O   UNL     1      -8.722  14.847  68.200  1.00  0.00    -0.156 OA 
BRANCH  16  17
HETATM   17  C   UNL     1      -7.732  14.458  69.180  1.00  0.00    -0.050 C  
BRANCH  17  18
HETATM   18  C   UNL     1      -7.147  13.061  68.921  1.00  0.00    -0.068 C  
HETATM   19  H   UNL     1      -7.652  11.413  67.943  1.00  0.00     0.000 HD 
HETATM   20  O   UNL     1      -8.014  12.277  68.103  1.00  0.00    -0.138 OA 
ENDBRANCH  17  18
BRANCH  17  21
HETATM   21  C   UNL     1      -6.613  15.512  69.123  1.00  0.00    -0.136 C  
HETATM   22  O   UNL     1      -5.400  14.921  68.655  1.00  0.00    -0.086 OA 
HETATM   23  H   UNL     1      -4.709  15.573  68.620  1.00  0.00     0.000 HD 
ENDBRANCH  17  21
ENDBRANCH  16  17
ENDBRANCH  15  16
ENDBRANCH  13  15
TORSDOF 5
ENDMDL
MODEL      256
REMARK 921   NORMALIZED FREE ENERGY PREDICTED BY IDOCK:    0.58 KCAL/MOL
REMARK 922        TOTAL FREE ENERGY PREDICTED BY IDOCK:    0.27 KCAL/MOL
REMARK 923 INTER-LIGAND FREE ENERGY PREDICTED BY IDOCK:    0.70 KCAL/MOL
REMARK 924 INTRA-LIGAND FREE ENERGY PREDICTED BY IDOCK:   -0.43 KCAL/MOL
REMARK 927      BINDING AFFINITY PREDICTED BY RF-SCORE:    0.00 PKD
ROOT
HETATM    1  N   UNL     1      -8.112  19.902  65.450  1.00  0.00    -0.352 NA 
HETATM    2  C   UNL     1      -7.937  18.604  65.803  1.00  0.00     0.154 C  
HETATM    3  H1  UNL     1      -7.346  20.421  65.021  1.00  0.00     0.000 HD 
HETATM    4  H2  UNL     1      -9.010  20.359  65.613  1.00  0.00     0.000 HD 
HETATM    5  N   UNL     1      -8.919  17.939  66.353  1.00  0.00    -0.383 NA 
HETATM    6  C   UNL     1      -8.590  16.663  66.668  1.00  0.00    -0.258 A  
HETATM    7  C   UNL     1      -7.388  16.020  66.477  1.00  0.00     0.092 A  
HETATM    8  N   UNL     1      -7.433  14.729  66.942  1.00  0.00     0.048 NA 
HETATM    9  C   UNL     1      -6.315  16.764  65.855  1.00  0.00     1.068 C  
HETATM   10  N   UNL     1      -6.693  18.064  65.543  1.00  0.00    -0.188 N  
HETATM   11  O   UNL     1      -5.190  16.342  65.612  1.00  0.00     1.356 OA 
HETATM   12  C   UNL     1      -8.655  14.591  67.414  1.00  0.00    -0.201 A  
HETATM   13  N   UNL     1      -9.396  15.735  67.262  1.00  0.00    -0.209 NA 
HETATM   14  H   UNL     1      -6.001  18.662  65.090  1.00  0.00     0.000 HD 
ENDROOT
BRANCH  13  15
HETATM   15  C   UNL     1     -10.791  15.902  67.603  1.00  0.00    -0.312 C  
BRANCH  15  16
HETATM   16  O   UNL     1     -11.272  14.853  68.453  1.00  0.00    -0.266 OA 
BRANCH  16  17
HETATM   17  C   UNL     1     -12.312  14.014  67.900  1.00  0.00     0.017 C  
BRANCH  17  18
HETATM   18  C   UNL     1     -12.492  14.200  66.386  1.00  0.00    -0.318 C  
HETATM   19  H   UNL     1     -13.952  14.647  65.122  1.00  0.00     0.000 HD 
HETATM   20  O   UNL     1     -13.840  14.532  66.059  1.00  0.00     1.051 OA 
ENDBRANCH  17  18
BRANCH  17  21
HETATM   21  C   UNL     1     -11.916  12.558  68.204  1.00  0.00    -0.219 C  
HETATM   22  O   UNL     1     -10.796  12.525  69.090  1.00  0.00    -0.385 OA 
HETATM   23  H   UNL     1     -10.552  11.626  69.278  1.00  0.00     0.000 HD 
ENDBRANCH  17  21
ENDBRANCH  16  17
ENDBRANCH  15  16
ENDBRANCH  13  15
TORSDOF 5
ENDMDL
MODEL      257
REMARK 921   NORMALIZED FREE ENERGY PREDICTED BY IDOCK:    1.74 KCAL/MOL
REMARK 922        TOTAL FREE ENERGY PREDICTED BY IDOCK:    1.77 KCAL/MOL
REMARK 923 INTER-LIGAND FREE ENERGY PREDICTED BY IDOCK:    2.20 KCAL/MOL
REMARK 924 INTRA-LIGAND FREE ENERGY PREDICTED BY IDOCK:   -0.44 KCAL/MOL
REMARK 927      BINDING AFFINITY PREDICTED BY RF-SCORE:    0.00 PKD
ROOT
HETATM    1  N   UNL     1      -9.098  15.300  71.048  1.00  0.00     1.430 NA 
HETATM    2  C   UNL     1      -9.266  14.710  69.838  1.00  0.00     0.593 C  
HETATM    3  H1  UNL     1      -9.156  16.314  71.133  1.00  0.00     0.000 HD 
HETATM    4  H2  UNL     1      -8.915  14.729  71.873  1.00  0.00     0.000 HD 
HETATM    5  N   UNL     1      -9.192  13.410  69.730  1.00  0.00     1.753 NA 
HETATM    6  C   UNL     1      -9.361  12.968  68.460  1.00  0.00    -0.078 A  
HETATM    7  C   UNL     1      -9.594  13.708  67.323  1.00  0.00    -0.238 A  
HETATM    8  N   UNL     1      -9.694  12.904  66.215  1.00  0.00    -0.272 NA 
HETATM    9  C   UNL     1      -9.688  15.145  67.461  1.00  0.00    -0.205 C  
HETATM   10  N   UNL     1      -9.515  15.558  68.776  1.00  0.00    -0.199 N  
HETATM   11  O   UNL     1      -9.893  15.946  66.555  1.00  0.00    -0.236 OA 
HETATM   12  C   UNL     1      -9.519  11.683  66.677  1.00  0.00    -0.201 A  
HETATM   13  N   UNL     1      -9.323  11.672  68.034  1.00  0.00    -0.172 NA 
HETATM   14  H   UNL     1      -9.575  16.557  68.971  1.00  0.00     0.000 HD 
ENDROOT
BRANCH  13  15
HETATM   15  C   UNL     1      -9.173  10.499  68.867  1.00  0.00    -0.183 C  
BRANCH  15  16
HETATM   16  O   UNL     1      -9.997  10.555  70.038  1.00  0.00    -0.082 OA 
BRANCH  16  17
HETATM   17  C   UNL     1     -11.261   9.858  69.959  1.00  0.00    -0.276 C  
BRANCH  17  18
HETATM   18  C   UNL     1     -11.703   9.260  71.303  1.00  0.00    -0.346 C  
HETATM   19  H   UNL     1     -11.473   9.647  73.232  1.00  0.00     0.000 HD 
HETATM   20  O   UNL     1     -11.200  10.018  72.401  1.00  0.00     1.372 OA 
ENDBRANCH  17  18
BRANCH  17  21
HETATM   21  C   UNL     1     -12.303  10.882  69.474  1.00  0.00    -0.171 C  
HETATM   22  O   UNL     1     -12.487  11.902  70.456  1.00  0.00    -0.287 OA 
HETATM   23  H   UNL     1     -13.131  12.534  70.157  1.00  0.00     0.000 HD 
ENDBRANCH  17  21
ENDBRANCH  16  17
ENDBRANCH  15  16
ENDBRANCH  13  15
TORSDOF 5
ENDMDL
MODEL      258
REMARK 921   NORMALIZED FREE ENERGY PREDICTED BY IDOCK:    3.91 KCAL/MOL
REMARK 922        TOTAL FREE ENERGY PREDICTED BY IDOCK:    4.57 KCAL/MOL
REMARK 923 INTER-LIGAND FREE ENERGY PREDICTED BY IDOCK:    4.29 KCAL/MOL
REMARK 924 INTRA-LIGAND FREE ENERGY PREDICTED BY IDOCK:    0.28 KCAL/MOL
REMARK 927      BINDING AFFINITY PREDICTED BY RF-SCORE:    0.00 PKD
ROOT
HETATM    1  N   UNL     1     -10.560  18.384  72.746  1.00  0.00     2.538 NA 
HETATM    2  C   UNL     1     -11.430  17.430  72.332  1.00  0.00     1.499 C  
HETATM    3  H1  UNL     1     -10.606  18.737  73.702  1.00  0.00     0.000 HD 
HETATM    4  H2  UNL     1      -9.859  18.750  72.101  1.00  0.00     0.000 HD 
HETATM    5  N   UNL     1     -11.370  16.978  71.108  1.00  0.00     0.486 NA 
HETATM    6  C   UNL     1     -12.313  16.044  70.835  1.00  0.00    -0.192 A  
HETATM    7  C   UNL     1     -13.282  15.540  71.673  1.00  0.00    -0.492 A  
HETATM    8  N   UNL     1     -14.067  14.616  71.030  1.00  0.00    -0.183 NA 
HETATM    9  C   UNL     1     -13.327  16.039  73.030  1.00  0.00    -0.501 C  
HETATM   10  N   UNL     1     -12.343  16.990  73.271  1.00  0.00     0.152 N  
HETATM   11  O   UNL     1     -14.120  15.695  73.900  1.00  0.00     0.781 OA 
HETATM   12  C   UNL     1     -13.579  14.562  69.807  1.00  0.00     1.826 A  
HETATM   13  N   UNL     1     -12.508  15.404  69.645  1.00  0.00    -0.212 NA 
HETATM   14  H   UNL     1     -12.292  17.391  74.207  1.00  0.00     0.000 HD 
ENDROOT
BRANCH  13  15
HETATM   15  C   UNL     1     -11.697  15.536  68.456  1.00  0.00    -0.337 C  
BRANCH  15  16
HETATM   16  O   UNL     1     -10.978  14.333  68.152  1.00  0.00    -0.237 OA 
BRANCH  16  17
HETATM   17  C   UNL     1     -11.558  13.105  68.648  1.00  0.00    -0.321 C  
BRANCH  17  18
HETATM   18  C   UNL     1     -12.008  12.157  67.527  1.00  0.00    -0.105 C  
HETATM   19  H   UNL     1     -11.972  10.214  67.141  1.00  0.00     0.000 HD 
HETATM   20  O   UNL     1     -11.694  10.800  67.835  1.00  0.00    -0.543 OA 
ENDBRANCH  17  18
BRANCH  17  21
HETATM   21  C   UNL     1     -10.482  12.422  69.510  1.00  0.00     0.524 C  
HETATM   22  O   UNL     1      -9.243  12.366  68.801  1.00  0.00    -0.393 OA 
HETATM   23  H   UNL     1      -8.578  11.944  69.334  1.00  0.00     0.000 HD 
ENDBRANCH  17  21
ENDBRANCH  16  17
ENDBRANCH  15  16
ENDBRANCH  13  15
TORSDOF 5
ENDMDL
MODEL      259
REMARK 921   NORMALIZED FREE ENERGY PREDICTED BY IDOCK:    5.31 KCAL/MOL
REMARK 922        TOTAL FREE ENERGY PREDICTED BY IDOCK:    6.38 KCAL/MOL
REMARK 923 INTER-LIGAND FREE ENERGY PREDICTED BY IDOCK:    6.71 KCAL/MOL
REMARK 924 INTRA-LIGAND FREE ENERGY PREDICTED BY IDOCK:   -0.33 KCAL/MOL
REMARK 927      BINDING AFFINITY PREDICTED BY RF-SCORE:    0.00 PKD
ROOT
HETATM    1  N   UNL     1      -7.721  14.840  71.898  1.00  0.00     2.767 NA 
HETATM    2  C   UNL     1      -7.493  13.903  70.945  1.00  0.00     2.725 C  
HETATM    3  H1  UNL     1      -8.314  15.644  71.691  1.00  0.00     0.000 HD 
HETATM    4  H2  UNL     1      -7.302  14.740  72.823  1.00  0.00     0.000 HD 
HETATM    5  N   UNL     1      -6.734  12.873  71.210  1.00  0.00     1.831 NA 
HETATM    6  C   UNL     1      -6.582  12.034  70.157  1.00  0.00     0.272 A  
HETATM    7  C   UNL     1      -7.119  12.144  68.894  1.00  0.00    -0.098 A  
HETATM    8  N   UNL     1      -6.724  11.104  68.090  1.00  0.00    -0.058 NA 
HETATM    9  C   UNL     1      -7.969  13.283  68.619  1.00  0.00    -0.042 C  
HETATM   10  N   UNL     1      -8.103  14.114  69.723  1.00  0.00     0.020 N  
HETATM   11  O   UNL     1      -8.525  13.528  67.554  1.00  0.00    -0.168 OA 
HETATM   12  C   UNL     1      -5.949  10.368  68.860  1.00  0.00    -0.040 A  
HETATM   13  N   UNL     1      -5.841  10.888  70.125  1.00  0.00    -0.085 NA 
HETATM   14  H   UNL     1      -8.694  14.940  69.625  1.00  0.00     0.000 HD 
ENDROOT
BRANCH  13  15
HETATM   15  C   UNL     1      -5.131  10.294  71.236  1.00  0.00    -0.082 C  
BRANCH  15  16
HETATM   16  O   UNL     1      -5.895   9.269  71.884  1.00  0.00    -0.076 OA 
BRANCH  16  17
HETATM   17  C   UNL     1      -5.514   7.907  71.583  1.00  0.00    -0.035 C  
BRANCH  17  18
HETATM   18  C   UNL     1      -5.725   6.949  72.765  1.00  0.00    -0.038 C  
HETATM   19  H   UNL     1      -7.008   6.713  74.257  1.00  0.00     0.000 HD 
HETATM   20  O   UNL     1      -6.878   7.306  73.525  1.00  0.00    -0.065 OA 
ENDBRANCH  17  18
BRANCH  17  21
HETATM   21  C   UNL     1      -6.372   7.460  70.387  1.00  0.00    -0.038 C  
HETATM   22  O   UNL     1      -7.642   6.987  70.839  1.00  0.00    -0.084 OA 
HETATM   23  H   UNL     1      -8.172   6.711  70.100  1.00  0.00     0.000 HD 
ENDBRANCH  17  21
ENDBRANCH  16  17
ENDBRANCH  15  16
ENDBRANCH  13  15
TORSDOF 5
ENDMDL
MODEL      260
REMARK 921   NORMALIZED FREE ENERGY PREDICTED BY IDOCK:    7.95 KCAL/MOL
REMARK 922        TOTAL FREE ENERGY PREDICTED BY IDOCK:    9.79 KCAL/MOL
REMARK 923 INTER-LIGAND FREE ENERGY PREDICTED BY IDOCK:    8.77 KCAL/MOL
REMARK 924 INTRA-LIGAND FREE ENERGY PREDICTED BY IDOCK:    1.01 KCAL/MOL
REMARK 927      BINDING AFFINITY PREDICTED BY RF-SCORE:    0.00 PKD
ROOT
HETATM    1  N   UNL     1      -7.436  14.140  72.887  1.00  0.00     3.730 NA 
HETATM    2  C   UNL     1      -7.394  14.405  71.558  1.00  0.00     2.942 C  
HETATM    3  H1  UNL     1      -8.023  14.704  73.501  1.00  0.00     0.000 HD 
HETATM    4  H2  UNL     1      -6.880  13.377  73.273  1.00  0.00     0.000 HD 
HETATM    5  N   UNL     1      -6.641  13.683  70.771  1.00  0.00     0.273 NA 
HETATM    6  C   UNL     1      -6.687  14.077  69.475  1.00  0.00    -0.091 A  
HETATM    7  C   UNL     1      -7.412  15.110  68.923  1.00  0.00    -0.143 A  
HETATM    8  N   UNL     1      -7.186  15.212  67.573  1.00  0.00    -0.186 NA 
HETATM    9  C   UNL     1      -8.252  15.891  69.804  1.00  0.00     0.233 C  
HETATM   10  N   UNL     1      -8.181  15.454  71.121  1.00  0.00     2.155 N  
HETATM   11  O   UNL     1      -8.959  16.838  69.475  1.00  0.00     0.039 OA 
HETATM   12  C   UNL     1      -6.327  14.249  67.308  1.00  0.00     0.412 A  
HETATM   13  N   UNL     1      -6.003  13.529  68.430  1.00  0.00    -0.086 NA 
HETATM   14  H   UNL     1      -8.749  15.941  71.813  1.00  0.00     0.000 HD 
ENDROOT
BRANCH  13  15
HETATM   15  C   UNL     1      -5.149  12.362  68.480  1.00  0.00    -0.052 C  
BRANCH  15  16
HETATM   16  O   UNL     1      -5.733  11.233  67.819  1.00  0.00    -0.043 OA 
BRANCH  16  17
HETATM   17  C   UNL     1      -6.645  11.531  66.738  1.00  0.00    -0.119 C  
BRANCH  17  18
HETATM   18  C   UNL     1      -6.571  10.513  65.591  1.00  0.00    -0.116 C  
HETATM   19  H   UNL     1      -5.796  10.401  63.770  1.00  0.00     0.000 HD 
HETATM   20  O   UNL     1      -5.842  11.032  64.480  1.00  0.00     0.084 OA 
ENDBRANCH  17  18
BRANCH  17  21
HETATM   21  C   UNL     1      -8.061  11.538  67.341  1.00  0.00    -0.146 C  
HETATM   22  O   UNL     1      -8.330  10.293  67.986  1.00  0.00    -0.112 OA 
HETATM   23  H   UNL     1      -9.204  10.297  68.358  1.00  0.00     0.000 HD 
ENDBRANCH  17  21
ENDBRANCH  16  17
ENDBRANCH  15  16
ENDBRANCH  13  15
TORSDOF 5
ENDMDL
MODEL      261
REMARK 921   NORMALIZED FREE ENERGY PREDICTED BY IDOCK:   14.31 KCAL/MOL
REMARK 922        TOTAL FREE ENERGY PREDICTED BY IDOCK:   18.01 KCAL/MOL
REMARK 923 INTER-LIGAND FREE ENERGY PREDICTED BY IDOCK:   18.34 KCAL/MOL
REMARK 924 INTRA-LIGAND FREE ENERGY PREDICTED BY IDOCK:   -0.33 KCAL/MOL
REMARK 927      BINDING AFFINITY PREDICTED BY RF-SCORE:    0.00 PKD
ROOT
HETATM    1  N   UNL     1      -7.671  13.975  73.116  1.00  0.00     5.199 NA 
HETATM    2  C   UNL     1      -7.999  14.058  71.802  1.00  0.00     6.757 C  
HETATM    3  H1  UNL     1      -8.065  14.639  73.782  1.00  0.00     0.000 HD 
HETATM    4  H2  UNL     1      -7.030  13.250  73.437  1.00  0.00     0.000 HD 
HETATM    5  N   UNL     1      -7.493  13.208  70.948  1.00  0.00     3.222 NA 
HETATM    6  C   UNL     1      -7.897  13.426  69.673  1.00  0.00     1.027 A  
HETATM    7  C   UNL     1      -8.746  14.402  69.202  1.00  0.00     0.095 A  
HETATM    8  N   UNL     1      -8.903  14.313  67.841  1.00  0.00    -0.170 NA 
HETATM    9  C   UNL     1      -9.309  15.327  70.161  1.00  0.00     0.365 C  
HETATM   10  N   UNL     1      -8.876  15.067  71.455  1.00  0.00     2.953 N  
HETATM   11  O   UNL     1     -10.080  16.247  69.910  1.00  0.00    -0.187 OA 
HETATM   12  C   UNL     1      -8.151  13.291  67.488  1.00  0.00    -0.186 A  
HETATM   13  N   UNL     1      -7.528  12.716  68.567  1.00  0.00    -0.121 NA 
HETATM   14  H   UNL     1      -9.230  15.665  72.202  1.00  0.00     0.000 HD 
ENDROOT
BRANCH  13  15
HETATM   15  C   UNL     1      -6.694  11.535  68.543  1.00  0.00    -0.067 C  
BRANCH  15  16
HETATM   16  O   UNL     1      -7.431  10.356  68.198  1.00  0.00    -0.087 OA 
BRANCH  16  17
HETATM   17  C   UNL     1      -6.647   9.225  67.754  1.00  0.00    -0.063 C  
BRANCH  17  18
HETATM   18  C   UNL     1      -7.299   7.874  68.087  1.00  0.00    -0.099 C  
HETATM   19  H   UNL     1      -8.721   7.181  69.281  1.00  0.00     0.000 HD 
HETATM   20  O   UNL     1      -8.318   8.017  69.075  1.00  0.00    -0.126 OA 
ENDBRANCH  17  18
BRANCH  17  21
HETATM   21  C   UNL     1      -6.487   9.366  66.230  1.00  0.00    -0.070 C  
HETATM   22  O   UNL     1      -7.768   9.451  65.604  1.00  0.00    -0.097 OA 
HETATM   23  H   UNL     1      -7.669   9.538  64.663  1.00  0.00     0.000 HD 
ENDBRANCH  17  21
ENDBRANCH  16  17
ENDBRANCH  15  16
ENDBRANCH  13  15
TORSDOF 5
ENDMDL
