MODEL        1
REMARK 921   NORMALIZED FREE ENERGY PREDICTED BY IDOCK:   -7.84 KCAL/MOL
REMARK 922        TOTAL FREE ENERGY PREDICTED BY IDOCK:   -9.24 KCAL/MOL
REMARK 923 INTER-LIGAND FREE ENERGY PREDICTED BY IDOCK:   -9.21 KCAL/MOL
REMARK 924 INTRA-LIGAND FREE ENERGY PREDICTED BY IDOCK:   -0.03 KCAL/MOL
REMARK 927      BINDING AFFINITY PREDICTED BY RF-SCORE:    0.00 PKD
ROOT
HETATM    1  C   UNL     1     -10.266  15.099  65.639  1.00  0.00    -0.361 C  
HETATM    2  O   UNL     1     -11.490  15.079  66.384  1.00  0.00    -0.321 OA 
ENDROOT
BRANCH   2   3
HETATM    3  C   UNL     1     -11.527  14.093  67.358  1.00  0.00    -0.345 A  
HETATM    4  C   UNL     1     -11.598  14.515  68.712  1.00  0.00    -0.312 A  
HETATM    5  N   UNL     1     -11.347  15.854  69.163  1.00  0.00    -0.342 NA 
HETATM    6  C   UNL     1     -11.603  16.197  70.486  1.00  0.00    -0.301 C  
HETATM    7  C   UNL     1     -11.577  12.714  66.991  1.00  0.00    -0.365 A  
HETATM    8  C   UNL     1     -12.009  15.370  71.449  1.00  0.00    -0.440 C  
HETATM    9  F   UNL     1     -12.005  10.490  67.738  1.00  0.00    -0.189 F  
HETATM   10  C   UNL     1     -12.242  15.907  72.807  1.00  0.00    -0.500 C  
HETATM   11  C   UNL     1     -11.895  11.801  68.010  1.00  0.00    -0.234 A  
HETATM   12  C   UNL     1     -12.200  13.949  71.074  1.00  0.00    -0.342 C  
HETATM   13  O   UNL     1     -12.640  14.984  73.717  1.00  0.00    -0.533 OA 
HETATM   14  C   UNL     1     -11.956  13.548  69.670  1.00  0.00    -0.397 A  
HETATM   15  O   UNL     1     -12.567  13.143  71.926  1.00  0.00    -0.153 OA 
HETATM   16  O   UNL     1     -12.032  17.065  73.120  1.00  0.00    -0.231 OA 
HETATM   17  C   UNL     1     -12.114  12.205  69.324  1.00  0.00    -0.234 A  
BRANCH   5  18
HETATM   18  C   UNL     1     -10.567  16.805  68.345  1.00  0.00    -0.354 C  
HETATM   19  C   UNL     1     -10.133  18.177  68.826  1.00  0.00    -0.392 C  
HETATM   20  C   UNL     1      -9.119  17.089  68.681  1.00  0.00    -0.271 C  
ENDBRANCH   5  18
BRANCH   7  21
HETATM   21  N   UNL     1     -11.370  12.331  65.661  1.00  0.00    -0.337 NA 
HETATM   22  C   UNL     1     -12.480  12.305  64.702  1.00  0.00    -0.341 C  
HETATM   23  C   UNL     1     -11.892  12.528  63.287  1.00  0.00    -0.413 C  
HETATM   24  N   UNL     1     -10.866  11.532  62.906  1.00  0.00    -0.716 NA 
HETATM   25  C   UNL     1      -9.798  11.480  63.935  1.00  0.00    -0.296 C  
HETATM   26  H   UNL     1     -10.489  11.709  61.975  1.00  0.00     0.000 HD 
HETATM   27  C   UNL     1      -8.795  10.389  63.573  1.00  0.00    -0.218 C  
HETATM   28  C   UNL     1     -10.340  11.303  65.391  1.00  0.00    -0.272 C  
ENDBRANCH   7  21
ENDBRANCH   2   3
TORSDOF 3
ENDMDL
MODEL        2
REMARK 921   NORMALIZED FREE ENERGY PREDICTED BY IDOCK:   -7.40 KCAL/MOL
REMARK 922        TOTAL FREE ENERGY PREDICTED BY IDOCK:   -8.72 KCAL/MOL
REMARK 923 INTER-LIGAND FREE ENERGY PREDICTED BY IDOCK:   -8.65 KCAL/MOL
REMARK 924 INTRA-LIGAND FREE ENERGY PREDICTED BY IDOCK:   -0.08 KCAL/MOL
REMARK 927      BINDING AFFINITY PREDICTED BY RF-SCORE:    0.00 PKD
ROOT
HETATM    1  C   UNL     1     -11.423  15.926  69.578  1.00  0.00    -0.342 C  
HETATM    2  O   UNL     1     -12.110  14.828  68.964  1.00  0.00    -0.287 OA 
ENDROOT
BRANCH   2   3
HETATM    3  C   UNL     1     -11.351  13.671  68.896  1.00  0.00    -0.290 A  
HETATM    4  C   UNL     1     -11.734  12.589  69.733  1.00  0.00    -0.285 A  
HETATM    5  N   UNL     1     -12.650  12.694  70.833  1.00  0.00    -0.309 NA 
HETATM    6  C   UNL     1     -13.082  11.544  71.484  1.00  0.00    -0.326 C  
HETATM    7  C   UNL     1     -10.283  13.558  67.956  1.00  0.00    -0.243 A  
HETATM    8  C   UNL     1     -12.673  10.299  71.238  1.00  0.00    -0.523 C  
HETATM    9  F   UNL     1      -8.774  12.076  66.854  1.00  0.00    -0.168 F  
HETATM   10  C   UNL     1     -13.246   9.185  72.025  1.00  0.00    -0.441 C  
HETATM   11  C   UNL     1      -9.752  12.274  67.754  1.00  0.00    -0.199 A  
HETATM   12  C   UNL     1     -11.657  10.127  70.174  1.00  0.00    -0.277 C  
HETATM   13  O   UNL     1     -12.755   7.962  71.709  1.00  0.00    -0.314 OA 
HETATM   14  C   UNL     1     -11.185  11.325  69.444  1.00  0.00    -0.345 A  
HETATM   15  O   UNL     1     -11.240   9.001  69.912  1.00  0.00    -0.195 OA 
HETATM   16  O   UNL     1     -14.042   9.340  72.934  1.00  0.00    -0.443 OA 
HETATM   17  C   UNL     1     -10.211  11.164  68.459  1.00  0.00    -0.209 A  
BRANCH   5  18
HETATM   18  C   UNL     1     -12.932  13.994  71.474  1.00  0.00    -0.351 C  
HETATM   19  C   UNL     1     -14.325  14.475  71.835  1.00  0.00    -0.647 C  
HETATM   20  C   UNL     1     -13.387  14.048  72.917  1.00  0.00    -0.487 C  
ENDBRANCH   5  18
BRANCH   7  21
HETATM   21  N   UNL     1      -9.849  14.684  67.246  1.00  0.00    -0.229 NA 
HETATM   22  C   UNL     1     -10.414  15.013  65.934  1.00  0.00    -0.328 C  
HETATM   23  C   UNL     1     -10.292  16.544  65.732  1.00  0.00    -0.341 C  
HETATM   24  N   UNL     1      -8.903  17.046  65.829  1.00  0.00    -0.493 NA 
HETATM   25  C   UNL     1      -8.292  16.617  67.111  1.00  0.00    -0.177 C  
HETATM   26  H   UNL     1      -8.853  18.057  65.702  1.00  0.00     0.000 HD 
HETATM   27  C   UNL     1      -6.835  17.066  67.157  1.00  0.00    -0.214 C  
HETATM   28  C   UNL     1      -8.430  15.084  67.388  1.00  0.00    -0.184 C  
ENDBRANCH   7  21
ENDBRANCH   2   3
TORSDOF 3
ENDMDL
MODEL        3
REMARK 921   NORMALIZED FREE ENERGY PREDICTED BY IDOCK:   -7.37 KCAL/MOL
REMARK 922        TOTAL FREE ENERGY PREDICTED BY IDOCK:   -8.69 KCAL/MOL
REMARK 923 INTER-LIGAND FREE ENERGY PREDICTED BY IDOCK:   -8.30 KCAL/MOL
REMARK 924 INTRA-LIGAND FREE ENERGY PREDICTED BY IDOCK:   -0.39 KCAL/MOL
REMARK 927      BINDING AFFINITY PREDICTED BY RF-SCORE:    0.00 PKD
ROOT
HETATM    1  C   UNL     1     -11.944  14.408  65.369  1.00  0.00    -0.369 C  
HETATM    2  O   UNL     1     -10.766  14.173  66.150  1.00  0.00    -0.290 OA 
ENDROOT
BRANCH   2   3
HETATM    3  C   UNL     1     -10.935  13.199  67.122  1.00  0.00    -0.268 A  
HETATM    4  C   UNL     1     -11.329  13.630  68.417  1.00  0.00    -0.295 A  
HETATM    5  N   UNL     1     -11.286  14.992  68.870  1.00  0.00    -0.280 NA 
HETATM    6  C   UNL     1     -11.847  15.328  70.097  1.00  0.00    -0.323 C  
HETATM    7  C   UNL     1     -10.797  11.816  66.794  1.00  0.00    -0.270 A  
HETATM    8  C   UNL     1     -12.385  14.482  70.975  1.00  0.00    -0.417 C  
HETATM    9  F   UNL     1     -11.200   9.574  67.499  1.00  0.00    -0.313 F  
HETATM   10  C   UNL     1     -12.946  15.015  72.236  1.00  0.00    -0.349 C  
HETATM   11  C   UNL     1     -11.255  10.893  67.749  1.00  0.00    -0.317 A  
HETATM   12  C   UNL     1     -12.379  13.046  70.611  1.00  0.00    -0.310 C  
HETATM   13  O   UNL     1     -13.457  14.073  73.067  1.00  0.00    -0.655 OA 
HETATM   14  C   UNL     1     -11.808  12.649  69.305  1.00  0.00    -0.358 A  
HETATM   15  O   UNL     1     -12.857  12.222  71.389  1.00  0.00    -0.375 OA 
HETATM   16  O   UNL     1     -12.900  16.190  72.552  1.00  0.00    -0.435 OA 
HETATM   17  C   UNL     1     -11.782  11.294  68.973  1.00  0.00    -0.410 A  
BRANCH   5  18
HETATM   18  C   UNL     1     -10.426  15.993  68.210  1.00  0.00    -0.269 C  
HETATM   19  C   UNL     1     -10.314  17.439  68.657  1.00  0.00    -0.364 C  
HETATM   20  C   UNL     1      -9.178  16.499  68.901  1.00  0.00    -0.258 C  
ENDBRANCH   5  18
BRANCH   7  21
HETATM   21  N   UNL     1     -10.279  11.436  65.551  1.00  0.00    -0.252 NA 
HETATM   22  C   UNL     1     -11.148  11.319  64.375  1.00  0.00    -0.203 C  
HETATM   23  C   UNL     1     -10.282  11.570  63.116  1.00  0.00    -0.345 C  
HETATM   24  N   UNL     1      -9.132  10.646  62.993  1.00  0.00    -0.246 NA 
HETATM   25  C   UNL     1      -8.314  10.682  64.230  1.00  0.00    -0.024 C  
HETATM   26  H   UNL     1      -8.575  10.840  62.161  1.00  0.00     0.000 HD 
HETATM   27  C   UNL     1      -7.184   9.662  64.123  1.00  0.00    -0.122 C  
HETATM   28  C   UNL     1      -9.147  10.482  65.538  1.00  0.00    -0.186 C  
ENDBRANCH   7  21
ENDBRANCH   2   3
TORSDOF 3
ENDMDL
MODEL        4
REMARK 921   NORMALIZED FREE ENERGY PREDICTED BY IDOCK:   -7.30 KCAL/MOL
REMARK 922        TOTAL FREE ENERGY PREDICTED BY IDOCK:   -8.61 KCAL/MOL
REMARK 923 INTER-LIGAND FREE ENERGY PREDICTED BY IDOCK:   -8.26 KCAL/MOL
REMARK 924 INTRA-LIGAND FREE ENERGY PREDICTED BY IDOCK:   -0.35 KCAL/MOL
REMARK 927      BINDING AFFINITY PREDICTED BY RF-SCORE:    0.00 PKD
ROOT
HETATM    1  C   UNL     1      -8.616  10.960  66.655  1.00  0.00    -0.148 C  
HETATM    2  O   UNL     1     -10.008  10.684  66.459  1.00  0.00    -0.200 OA 
ENDROOT
BRANCH   2   3
HETATM    3  C   UNL     1     -10.794  10.998  67.557  1.00  0.00    -0.263 A  
HETATM    4  C   UNL     1     -10.927  10.010  68.568  1.00  0.00    -0.209 A  
HETATM    5  N   UNL     1     -10.560   8.631  68.414  1.00  0.00    -0.166 NA 
HETATM    6  C   UNL     1     -10.579   7.784  69.516  1.00  0.00    -0.221 C  
HETATM    7  C   UNL     1     -11.367  12.299  67.689  1.00  0.00    -0.311 A  
HETATM    8  C   UNL     1     -10.984   8.101  70.746  1.00  0.00    -0.261 C  
HETATM    9  F   UNL     1     -12.423  13.847  69.165  1.00  0.00    -0.374 F  
HETATM   10  C   UNL     1     -10.930   7.073  71.808  1.00  0.00    -0.234 C  
HETATM   11  C   UNL     1     -11.904  12.627  68.945  1.00  0.00    -0.302 A  
HETATM   12  C   UNL     1     -11.465   9.486  70.955  1.00  0.00    -0.349 C  
HETATM   13  O   UNL     1     -11.377   7.490  73.019  1.00  0.00    -0.341 OA 
HETATM   14  C   UNL     1     -11.443  10.425  69.811  1.00  0.00    -0.348 A  
HETATM   15  O   UNL     1     -11.857   9.830  72.069  1.00  0.00    -0.261 OA 
HETATM   16  O   UNL     1     -10.584   5.922  71.616  1.00  0.00    -0.225 OA 
HETATM   17  C   UNL     1     -11.918  11.723  70.003  1.00  0.00    -0.421 A  
BRANCH   5  18
HETATM   18  C   UNL     1     -10.431   8.017  67.077  1.00  0.00    -0.340 C  
HETATM   19  C   UNL     1      -9.414   6.945  66.734  1.00  0.00    -0.204 C  
HETATM   20  C   UNL     1     -10.858   6.582  66.854  1.00  0.00    -0.427 C  
ENDBRANCH   5  18
BRANCH   7  21
HETATM   21  N   UNL     1     -11.327  13.198  66.618  1.00  0.00    -0.312 NA 
HETATM   22  C   UNL     1     -11.705  12.777  65.264  1.00  0.00    -0.368 C  
HETATM   23  C   UNL     1     -12.216  14.024  64.502  1.00  0.00    -0.434 C  
HETATM   24  N   UNL     1     -11.228  15.125  64.435  1.00  0.00    -0.676 NA 
HETATM   25  C   UNL     1     -10.762  15.476  65.799  1.00  0.00    -0.353 C  
HETATM   26  H   UNL     1     -11.594  15.936  63.937  1.00  0.00     0.000 HD 
HETATM   27  C   UNL     1      -9.682  16.549  65.708  1.00  0.00    -0.237 C  
HETATM   28  C   UNL     1     -10.279  14.243  66.633  1.00  0.00    -0.272 C  
ENDBRANCH   7  21
ENDBRANCH   2   3
TORSDOF 3
ENDMDL
MODEL        5
REMARK 921   NORMALIZED FREE ENERGY PREDICTED BY IDOCK:   -7.26 KCAL/MOL
REMARK 922        TOTAL FREE ENERGY PREDICTED BY IDOCK:   -8.56 KCAL/MOL
REMARK 923 INTER-LIGAND FREE ENERGY PREDICTED BY IDOCK:   -8.27 KCAL/MOL
REMARK 924 INTRA-LIGAND FREE ENERGY PREDICTED BY IDOCK:   -0.29 KCAL/MOL
REMARK 927      BINDING AFFINITY PREDICTED BY RF-SCORE:    0.00 PKD
ROOT
HETATM    1  C   UNL     1      -8.375  12.923  68.125  1.00  0.00    -0.168 C  
HETATM    2  O   UNL     1      -9.646  12.750  67.487  1.00  0.00    -0.184 OA 
ENDROOT
BRANCH   2   3
HETATM    3  C   UNL     1     -10.722  13.033  68.315  1.00  0.00    -0.245 A  
HETATM    4  C   UNL     1     -11.252  11.964  69.085  1.00  0.00    -0.255 A  
HETATM    5  N   UNL     1     -10.957  10.576  68.865  1.00  0.00    -0.230 NA 
HETATM    6  C   UNL     1     -11.399   9.624  69.777  1.00  0.00    -0.120 C  
HETATM    7  C   UNL     1     -11.209  14.369  68.439  1.00  0.00    -0.273 A  
HETATM    8  C   UNL     1     -12.159   9.852  70.848  1.00  0.00    -0.431 C  
HETATM    9  F   UNL     1     -12.572  15.861  69.706  1.00  0.00    -0.336 F  
HETATM   10  C   UNL     1     -12.531   8.717  71.720  1.00  0.00    -0.346 C  
HETATM   11  C   UNL     1     -12.101  14.620  69.494  1.00  0.00    -0.295 A  
HETATM   12  C   UNL     1     -12.577  11.253  71.085  1.00  0.00    -0.397 C  
HETATM   13  O   UNL     1     -13.316   9.050  72.774  1.00  0.00    -0.418 OA 
HETATM   14  C   UNL     1     -12.113  12.300  70.147  1.00  0.00    -0.364 A  
HETATM   15  O   UNL     1     -13.285  11.517  72.055  1.00  0.00    -0.509 OA 
HETATM   16  O   UNL     1     -12.227   7.560  71.490  1.00  0.00    -0.303 OA 
HETATM   17  C   UNL     1     -12.527  13.615  70.358  1.00  0.00    -0.364 A  
BRANCH   5  18
HETATM   18  C   UNL     1     -10.444  10.098  67.566  1.00  0.00    -0.253 C  
HETATM   19  C   UNL     1      -9.180   9.274  67.407  1.00  0.00    -0.145 C  
HETATM   20  C   UNL     1     -10.514   8.627  67.214  1.00  0.00    -0.360 C  
ENDBRANCH   5  18
BRANCH   7  21
HETATM   21  N   UNL     1     -10.755  15.367  67.570  1.00  0.00    -0.288 NA 
HETATM   22  C   UNL     1     -10.603  15.106  66.134  1.00  0.00    -0.313 C  
HETATM   23  C   UNL     1     -10.769  16.452  65.385  1.00  0.00    -0.296 C  
HETATM   24  N   UNL     1      -9.811  17.494  65.817  1.00  0.00    -0.551 NA 
HETATM   25  C   UNL     1      -9.886  17.679  67.287  1.00  0.00    -0.303 C  
HETATM   26  H   UNL     1      -9.949  18.371  65.315  1.00  0.00     0.000 HD 
HETATM   27  C   UNL     1      -8.833  18.691  67.728  1.00  0.00    -0.294 C  
HETATM   28  C   UNL     1      -9.772  16.343  68.093  1.00  0.00    -0.229 C  
ENDBRANCH   7  21
ENDBRANCH   2   3
TORSDOF 3
ENDMDL
MODEL        6
REMARK 921   NORMALIZED FREE ENERGY PREDICTED BY IDOCK:   -7.19 KCAL/MOL
REMARK 922        TOTAL FREE ENERGY PREDICTED BY IDOCK:   -8.48 KCAL/MOL
REMARK 923 INTER-LIGAND FREE ENERGY PREDICTED BY IDOCK:   -7.71 KCAL/MOL
REMARK 924 INTRA-LIGAND FREE ENERGY PREDICTED BY IDOCK:   -0.77 KCAL/MOL
REMARK 927      BINDING AFFINITY PREDICTED BY RF-SCORE:    0.00 PKD
ROOT
HETATM    1  C   UNL     1     -11.099   6.484  68.293  1.00  0.00    -0.243 C  
HETATM    2  O   UNL     1     -10.053   7.419  68.583  1.00  0.00    -0.168 OA 
ENDROOT
BRANCH   2   3
HETATM    3  C   UNL     1     -10.505   8.717  68.756  1.00  0.00    -0.191 A  
HETATM    4  C   UNL     1     -10.429   9.590  67.637  1.00  0.00    -0.263 A  
HETATM    5  N   UNL     1      -9.667   9.327  66.449  1.00  0.00    -0.236 NA 
HETATM    6  C   UNL     1      -9.791  10.169  65.350  1.00  0.00    -0.307 C  
HETATM    7  C   UNL     1     -11.101   9.119  69.989  1.00  0.00    -0.190 A  
HETATM    8  C   UNL     1     -10.517  11.285  65.291  1.00  0.00    -0.341 C  
HETATM    9  F   UNL     1     -12.406  10.778  71.100  1.00  0.00    -0.391 F  
HETATM   10  C   UNL     1     -10.541  12.061  64.031  1.00  0.00    -0.377 C  
HETATM   11  C   UNL     1     -11.782  10.348  69.991  1.00  0.00    -0.286 A  
HETATM   12  C   UNL     1     -11.258  11.667  66.515  1.00  0.00    -0.294 C  
HETATM   13  O   UNL     1     -11.297  13.185  64.077  1.00  0.00    -0.380 OA 
HETATM   14  C   UNL     1     -11.167  10.787  67.702  1.00  0.00    -0.370 A  
HETATM   15  O   UNL     1     -11.937  12.691  66.517  1.00  0.00    -0.467 OA 
HETATM   16  O   UNL     1      -9.889  11.769  63.046  1.00  0.00    -0.398 OA 
HETATM   17  C   UNL     1     -11.846  11.160  68.862  1.00  0.00    -0.406 A  
BRANCH   5  18
HETATM   18  C   UNL     1      -8.553   8.358  66.451  1.00  0.00    -0.127 C  
HETATM   19  C   UNL     1      -7.495   8.283  65.367  1.00  0.00    -0.085 C  
HETATM   20  C   UNL     1      -7.138   8.826  66.712  1.00  0.00    -0.081 C  
ENDBRANCH   5  18
BRANCH   7  21
HETATM   21  N   UNL     1     -11.038   8.280  71.107  1.00  0.00    -0.243 NA 
HETATM   22  C   UNL     1     -12.232   7.580  71.594  1.00  0.00    -0.322 C  
HETATM   23  C   UNL     1     -11.767   6.291  72.316  1.00  0.00    -0.298 C  
HETATM   24  N   UNL     1     -10.833   6.543  73.436  1.00  0.00    -0.427 NA 
HETATM   25  C   UNL     1      -9.678   7.348  72.967  1.00  0.00    -0.206 C  
HETATM   26  H   UNL     1     -10.536   5.677  73.887  1.00  0.00     0.000 HD 
HETATM   27  C   UNL     1      -8.770   7.672  74.149  1.00  0.00    -0.290 C  
HETATM   28  C   UNL     1     -10.091   8.639  72.187  1.00  0.00    -0.318 C  
ENDBRANCH   7  21
ENDBRANCH   2   3
TORSDOF 3
ENDMDL
MODEL        7
REMARK 921   NORMALIZED FREE ENERGY PREDICTED BY IDOCK:   -7.17 KCAL/MOL
REMARK 922        TOTAL FREE ENERGY PREDICTED BY IDOCK:   -8.45 KCAL/MOL
REMARK 923 INTER-LIGAND FREE ENERGY PREDICTED BY IDOCK:   -7.71 KCAL/MOL
REMARK 924 INTRA-LIGAND FREE ENERGY PREDICTED BY IDOCK:   -0.74 KCAL/MOL
REMARK 927      BINDING AFFINITY PREDICTED BY RF-SCORE:    0.00 PKD
ROOT
HETATM    1  C   UNL     1     -10.785  18.230  67.826  1.00  0.00    -0.333 C  
HETATM    2  O   UNL     1     -10.118  17.634  68.945  1.00  0.00    -0.351 OA 
ENDROOT
BRANCH   2   3
HETATM    3  C   UNL     1      -9.269  16.596  68.592  1.00  0.00    -0.248 A  
HETATM    4  C   UNL     1      -9.784  15.275  68.676  1.00  0.00    -0.212 A  
HETATM    5  N   UNL     1     -10.993  14.913  69.359  1.00  0.00    -0.262 NA 
HETATM    6  C   UNL     1     -11.492  13.620  69.241  1.00  0.00    -0.291 C  
HETATM    7  C   UNL     1      -7.962  16.869  68.086  1.00  0.00    -0.195 A  
HETATM    8  C   UNL     1     -10.914  12.610  68.593  1.00  0.00    -0.292 C  
HETATM    9  F   UNL     1      -6.062  15.978  66.953  1.00  0.00    -0.172 F  
HETATM   10  C   UNL     1     -11.591  11.295  68.562  1.00  0.00    -0.315 C  
HETATM   11  C   UNL     1      -7.279  15.795  67.492  1.00  0.00    -0.184 A  
HETATM   12  C   UNL     1      -9.614  12.889  67.940  1.00  0.00    -0.215 C  
HETATM   13  O   UNL     1     -10.917  10.330  67.889  1.00  0.00    -0.267 OA 
HETATM   14  C   UNL     1      -9.058  14.259  68.026  1.00  0.00    -0.191 A  
HETATM   15  O   UNL     1      -9.035  11.990  67.334  1.00  0.00    -0.165 OA 
HETATM   16  O   UNL     1     -12.633  11.058  69.145  1.00  0.00    -0.378 OA 
HETATM   17  C   UNL     1      -7.823  14.515  67.430  1.00  0.00    -0.221 A  
BRANCH   5  18
HETATM   18  C   UNL     1     -11.574  15.782  70.402  1.00  0.00    -0.360 C  
HETATM   19  C   UNL     1     -12.924  15.540  71.049  1.00  0.00    -0.550 C  
HETATM   20  C   UNL     1     -11.675  15.292  71.831  1.00  0.00    -0.509 C  
ENDBRANCH   5  18
BRANCH   7  21
HETATM   21  N   UNL     1      -7.442  18.166  68.144  1.00  0.00    -0.250 NA 
HETATM   22  C   UNL     1      -7.228  18.949  66.922  1.00  0.00    -0.214 C  
HETATM   23  C   UNL     1      -7.324  20.450  67.294  1.00  0.00    -0.310 C  
HETATM   24  N   UNL     1      -6.361  20.864  68.339  1.00  0.00    -0.295 NA 
HETATM   25  C   UNL     1      -6.502  19.999  69.536  1.00  0.00    -0.335 C  
HETATM   26  H   UNL     1      -6.453  21.853  68.572  1.00  0.00     0.000 HD 
HETATM   27  C   UNL     1      -5.447  20.381  70.569  1.00  0.00    -0.335 C  
HETATM   28  C   UNL     1      -6.461  18.469  69.211  1.00  0.00    -0.258 C  
ENDBRANCH   7  21
ENDBRANCH   2   3
TORSDOF 3
ENDMDL
MODEL        8
REMARK 921   NORMALIZED FREE ENERGY PREDICTED BY IDOCK:   -7.16 KCAL/MOL
REMARK 922        TOTAL FREE ENERGY PREDICTED BY IDOCK:   -8.45 KCAL/MOL
REMARK 923 INTER-LIGAND FREE ENERGY PREDICTED BY IDOCK:   -8.18 KCAL/MOL
REMARK 924 INTRA-LIGAND FREE ENERGY PREDICTED BY IDOCK:   -0.27 KCAL/MOL
REMARK 927      BINDING AFFINITY PREDICTED BY RF-SCORE:    0.00 PKD
ROOT
HETATM    1  C   UNL     1      -7.883  13.039  68.326  1.00  0.00    -0.143 C  
HETATM    2  O   UNL     1      -9.315  12.987  68.332  1.00  0.00    -0.206 OA 
ENDROOT
BRANCH   2   3
HETATM    3  C   UNL     1      -9.892  13.553  67.205  1.00  0.00    -0.237 A  
HETATM    4  C   UNL     1     -10.182  14.943  67.249  1.00  0.00    -0.241 A  
HETATM    5  N   UNL     1     -10.194  15.736  68.446  1.00  0.00    -0.220 NA 
HETATM    6  C   UNL     1     -10.329  17.117  68.357  1.00  0.00    -0.362 C  
HETATM    7  C   UNL     1     -10.100  12.773  66.028  1.00  0.00    -0.268 A  
HETATM    8  C   UNL     1     -10.527  17.818  67.242  1.00  0.00    -0.356 C  
HETATM    9  F   UNL     1     -10.589  12.820  63.694  1.00  0.00    -0.396 F  
HETATM   10  C   UNL     1     -10.642  19.291  67.330  1.00  0.00    -0.484 C  
HETATM   11  C   UNL     1     -10.420  13.476  64.854  1.00  0.00    -0.402 A  
HETATM   12  C   UNL     1     -10.618  17.053  65.977  1.00  0.00    -0.206 C  
HETATM   13  O   UNL     1     -10.856  19.911  66.143  1.00  0.00    -0.397 OA 
HETATM   14  C   UNL     1     -10.460  15.582  66.026  1.00  0.00    -0.335 A  
HETATM   15  O   UNL     1     -10.807  17.651  64.920  1.00  0.00    -0.831 OA 
HETATM   16  O   UNL     1     -10.619  19.908  68.379  1.00  0.00    -0.366 OA 
HETATM   17  C   UNL     1     -10.568  14.860  64.837  1.00  0.00    -0.417 A  
BRANCH   5  18
HETATM   18  C   UNL     1     -10.346  15.114  69.776  1.00  0.00    -0.210 C  
HETATM   19  C   UNL     1     -11.125  15.739  70.918  1.00  0.00    -0.354 C  
HETATM   20  C   UNL     1     -11.685  14.551  70.204  1.00  0.00    -0.357 C  
ENDBRANCH   5  18
BRANCH   7  21
HETATM   21  N   UNL     1      -9.929  11.385  66.064  1.00  0.00    -0.222 NA 
HETATM   22  C   UNL     1     -10.456  10.588  67.177  1.00  0.00    -0.249 C  
HETATM   23  C   UNL     1     -10.734   9.159  66.650  1.00  0.00     0.021 C  
HETATM   24  N   UNL     1      -9.543   8.498  66.070  1.00  0.00    -0.416 NA 
HETATM   25  C   UNL     1      -8.944   9.357  65.018  1.00  0.00    -0.211 C  
HETATM   26  H   UNL     1      -9.756   7.563  65.722  1.00  0.00     0.000 HD 
HETATM   27  C   UNL     1      -7.669   8.704  64.492  1.00  0.00    -0.124 C  
HETATM   28  C   UNL     1      -8.686  10.828  65.483  1.00  0.00    -0.187 C  
ENDBRANCH   7  21
ENDBRANCH   2   3
TORSDOF 3
ENDMDL
MODEL        9
REMARK 921   NORMALIZED FREE ENERGY PREDICTED BY IDOCK:   -7.14 KCAL/MOL
REMARK 922        TOTAL FREE ENERGY PREDICTED BY IDOCK:   -8.42 KCAL/MOL
REMARK 923 INTER-LIGAND FREE ENERGY PREDICTED BY IDOCK:   -7.98 KCAL/MOL
REMARK 924 INTRA-LIGAND FREE ENERGY PREDICTED BY IDOCK:   -0.44 KCAL/MOL
REMARK 927      BINDING AFFINITY PREDICTED BY RF-SCORE:    0.00 PKD
ROOT
HETATM    1  C   UNL     1      -8.522  10.628  66.701  1.00  0.00    -0.137 C  
HETATM    2  O   UNL     1      -9.909  10.320  66.514  1.00  0.00    -0.194 OA 
ENDROOT
BRANCH   2   3
HETATM    3  C   UNL     1     -10.699  10.651  67.604  1.00  0.00    -0.267 A  
HETATM    4  C   UNL     1     -10.891   9.654  68.598  1.00  0.00    -0.167 A  
HETATM    5  N   UNL     1     -10.578   8.263  68.428  1.00  0.00    -0.150 NA 
HETATM    6  C   UNL     1     -10.650   7.402  69.517  1.00  0.00    -0.237 C  
HETATM    7  C   UNL     1     -11.221  11.972  67.748  1.00  0.00    -0.271 A  
HETATM    8  C   UNL     1     -11.063   7.718  70.745  1.00  0.00    -0.265 C  
HETATM    9  F   UNL     1     -12.237  13.540  69.229  1.00  0.00    -0.344 F  
HETATM   10  C   UNL     1     -11.069   6.673  71.792  1.00  0.00    -0.249 C  
HETATM   11  C   UNL     1     -11.765  12.304  68.999  1.00  0.00    -0.324 A  
HETATM   12  C   UNL     1     -11.490   9.118  70.968  1.00  0.00    -0.306 C  
HETATM   13  O   UNL     1     -11.518   7.090  73.001  1.00  0.00    -0.191 OA 
HETATM   14  C   UNL     1     -11.410  10.072  69.838  1.00  0.00    -0.306 A  
HETATM   15  O   UNL     1     -11.886   9.461  72.080  1.00  0.00    -0.355 OA 
HETATM   16  O   UNL     1     -10.767   5.511  71.588  1.00  0.00    -0.243 OA 
HETATM   17  C   UNL     1     -11.834  11.385  70.043  1.00  0.00    -0.440 A  
BRANCH   5  18
HETATM   18  C   UNL     1     -10.451   7.664  67.085  1.00  0.00    -0.342 C  
HETATM   19  C   UNL     1      -9.413   6.620  66.718  1.00  0.00    -0.194 C  
HETATM   20  C   UNL     1     -10.847   6.221  66.854  1.00  0.00    -0.428 C  
ENDBRANCH   5  18
BRANCH   7  21
HETATM   21  N   UNL     1     -11.126  12.884  66.691  1.00  0.00    -0.276 NA 
HETATM   22  C   UNL     1     -10.728  14.276  66.928  1.00  0.00    -0.290 C  
HETATM   23  C   UNL     1     -10.068  14.811  65.633  1.00  0.00    -0.366 C  
HETATM   24  N   UNL     1     -10.943  14.727  64.442  1.00  0.00    -0.618 NA 
HETATM   25  C   UNL     1     -11.436  13.339  64.267  1.00  0.00    -0.396 C  
HETATM   26  H   UNL     1     -10.480  15.076  63.603  1.00  0.00     0.000 HD 
HETATM   27  C   UNL     1     -12.405  13.287  63.089  1.00  0.00    -0.163 C  
HETATM   28  C   UNL     1     -12.070  12.731  65.561  1.00  0.00    -0.465 C  
ENDBRANCH   7  21
ENDBRANCH   2   3
TORSDOF 3
ENDMDL
MODEL       10
REMARK 921   NORMALIZED FREE ENERGY PREDICTED BY IDOCK:   -7.09 KCAL/MOL
REMARK 922        TOTAL FREE ENERGY PREDICTED BY IDOCK:   -8.36 KCAL/MOL
REMARK 923 INTER-LIGAND FREE ENERGY PREDICTED BY IDOCK:   -7.61 KCAL/MOL
REMARK 924 INTRA-LIGAND FREE ENERGY PREDICTED BY IDOCK:   -0.75 KCAL/MOL
REMARK 927      BINDING AFFINITY PREDICTED BY RF-SCORE:    0.00 PKD
ROOT
HETATM    1  C   UNL     1      -9.398   8.411  71.163  1.00  0.00    -0.177 C  
HETATM    2  O   UNL     1     -10.655   8.284  70.488  1.00  0.00    -0.211 OA 
ENDROOT
BRANCH   2   3
HETATM    3  C   UNL     1     -10.905   9.310  69.590  1.00  0.00    -0.212 A  
HETATM    4  C   UNL     1     -11.641  10.428  70.065  1.00  0.00    -0.301 A  
HETATM    5  N   UNL     1     -12.384  10.453  71.293  1.00  0.00    -0.377 NA 
HETATM    6  C   UNL     1     -12.933  11.648  71.743  1.00  0.00    -0.377 C  
HETATM    7  C   UNL     1     -10.363   9.266  68.270  1.00  0.00    -0.217 A  
HETATM    8  C   UNL     1     -12.908  12.817  71.102  1.00  0.00    -0.315 C  
HETATM    9  F   UNL     1      -9.894  10.510  66.289  1.00  0.00    -0.218 F  
HETATM   10  C   UNL     1     -13.539  13.997  71.734  1.00  0.00    -0.394 C  
HETATM   11  C   UNL     1     -10.421  10.455  67.524  1.00  0.00    -0.245 A  
HETATM   12  C   UNL     1     -12.237  12.842  69.783  1.00  0.00    -0.162 C  
HETATM   13  O   UNL     1     -13.472  15.133  70.998  1.00  0.00    -0.436 OA 
HETATM   14  C   UNL     1     -11.622  11.594  69.276  1.00  0.00    -0.385 A  
HETATM   15  O   UNL     1     -12.191  13.893  69.146  1.00  0.00    -0.356 OA 
HETATM   16  O   UNL     1     -14.135  13.956  72.795  1.00  0.00    -0.668 OA 
HETATM   17  C   UNL     1     -11.010  11.614  68.022  1.00  0.00    -0.275 A  
BRANCH   5  18
HETATM   18  C   UNL     1     -12.819   9.205  71.951  1.00  0.00    -0.393 C  
HETATM   19  C   UNL     1     -14.137   9.052  72.688  1.00  0.00    -0.335 C  
HETATM   20  C   UNL     1     -13.950   8.389  71.362  1.00  0.00    -0.333 C  
ENDBRANCH   5  18
BRANCH   7  21
HETATM   21  N   UNL     1      -9.761   8.096  67.795  1.00  0.00    -0.152 NA 
HETATM   22  C   UNL     1      -8.309   8.022  67.595  1.00  0.00    -0.128 C  
HETATM   23  C   UNL     1      -7.883   6.541  67.746  1.00  0.00    -0.111 C  
HETATM   24  N   UNL     1      -8.573   5.625  66.810  1.00  0.00    -0.111 NA 
HETATM   25  C   UNL     1     -10.043   5.781  66.934  1.00  0.00    -0.192 C  
HETATM   26  H   UNL     1      -8.281   4.657  66.938  1.00  0.00     0.000 HD 
HETATM   27  C   UNL     1     -10.738   4.897  65.903  1.00  0.00    -0.233 C  
HETATM   28  C   UNL     1     -10.525   7.266  66.837  1.00  0.00    -0.299 C  
ENDBRANCH   7  21
ENDBRANCH   2   3
TORSDOF 3
ENDMDL
MODEL       11
REMARK 921   NORMALIZED FREE ENERGY PREDICTED BY IDOCK:   -7.03 KCAL/MOL
REMARK 922        TOTAL FREE ENERGY PREDICTED BY IDOCK:   -8.29 KCAL/MOL
REMARK 923 INTER-LIGAND FREE ENERGY PREDICTED BY IDOCK:   -7.50 KCAL/MOL
REMARK 924 INTRA-LIGAND FREE ENERGY PREDICTED BY IDOCK:   -0.79 KCAL/MOL
REMARK 927      BINDING AFFINITY PREDICTED BY RF-SCORE:    0.00 PKD
ROOT
HETATM    1  C   UNL     1      -8.205  12.093  68.232  1.00  0.00    -0.168 C  
HETATM    2  O   UNL     1      -9.465  11.839  67.599  1.00  0.00    -0.173 OA 
ENDROOT
BRANCH   2   3
HETATM    3  C   UNL     1     -10.556  12.157  68.393  1.00  0.00    -0.226 A  
HETATM    4  C   UNL     1     -11.089  11.127  69.213  1.00  0.00    -0.259 A  
HETATM    5  N   UNL     1     -10.780   9.732  69.073  1.00  0.00    -0.217 NA 
HETATM    6  C   UNL     1     -11.228   8.828  70.030  1.00  0.00    -0.106 C  
HETATM    7  C   UNL     1     -11.056  13.494  68.437  1.00  0.00    -0.271 A  
HETATM    8  C   UNL     1     -12.007   9.107  71.075  1.00  0.00    -0.344 C  
HETATM    9  F   UNL     1     -12.450  15.040  69.599  1.00  0.00    -0.320 F  
HETATM   10  C   UNL     1     -12.383   8.017  72.002  1.00  0.00    -0.326 C  
HETATM   11  C   UNL     1     -11.966  13.794  69.463  1.00  0.00    -0.345 A  
HETATM   12  C   UNL     1     -12.440  10.515  71.228  1.00  0.00    -0.419 C  
HETATM   13  O   UNL     1     -13.187   8.401  73.024  1.00  0.00    -0.054 OA 
HETATM   14  C   UNL     1     -11.969  11.513  70.242  1.00  0.00    -0.455 A  
HETATM   15  O   UNL     1     -13.165  10.826  72.171  1.00  0.00    -0.473 OA 
HETATM   16  O   UNL     1     -12.066   6.853  71.840  1.00  0.00    -0.311 OA 
HETATM   17  C   UNL     1     -12.397  12.834  70.374  1.00  0.00    -0.324 A  
BRANCH   5  18
HETATM   18  C   UNL     1     -10.243   9.189  67.811  1.00  0.00    -0.224 C  
HETATM   19  C   UNL     1      -9.044   8.262  67.730  1.00  0.00    -0.138 C  
HETATM   20  C   UNL     1     -10.414   7.721  67.479  1.00  0.00    -0.338 C  
ENDBRANCH   5  18
BRANCH   7  21
HETATM   21  N   UNL     1     -10.596  14.447  67.521  1.00  0.00    -0.263 NA 
HETATM   22  C   UNL     1      -9.669  15.506  67.934  1.00  0.00    -0.211 C  
HETATM   23  C   UNL     1      -8.844  15.929  66.693  1.00  0.00    -0.281 C  
HETATM   24  N   UNL     1      -9.675  16.393  65.560  1.00  0.00    -0.499 NA 
HETATM   25  C   UNL     1     -10.688  15.366  65.213  1.00  0.00    -0.421 C  
HETATM   26  H   UNL     1      -9.108  16.656  64.754  1.00  0.00     0.000 HD 
HETATM   27  C   UNL     1     -11.591  15.895  64.103  1.00  0.00    -0.058 C  
HETATM   28  C   UNL     1     -11.518  14.867  66.441  1.00  0.00    -0.280 C  
ENDBRANCH   7  21
ENDBRANCH   2   3
TORSDOF 3
ENDMDL
MODEL       12
REMARK 921   NORMALIZED FREE ENERGY PREDICTED BY IDOCK:   -6.91 KCAL/MOL
REMARK 922        TOTAL FREE ENERGY PREDICTED BY IDOCK:   -8.15 KCAL/MOL
REMARK 923 INTER-LIGAND FREE ENERGY PREDICTED BY IDOCK:   -7.36 KCAL/MOL
REMARK 924 INTRA-LIGAND FREE ENERGY PREDICTED BY IDOCK:   -0.79 KCAL/MOL
REMARK 927      BINDING AFFINITY PREDICTED BY RF-SCORE:    0.00 PKD
ROOT
HETATM    1  C   UNL     1      -6.709  12.213  67.501  1.00  0.00    -0.129 C  
HETATM    2  O   UNL     1      -7.810  12.474  68.380  1.00  0.00    -0.138 OA 
ENDROOT
BRANCH   2   3
HETATM    3  C   UNL     1      -9.044  12.170  67.825  1.00  0.00    -0.189 A  
HETATM    4  C   UNL     1      -9.704  13.197  67.099  1.00  0.00    -0.235 A  
HETATM    5  N   UNL     1      -9.340  14.586  67.138  1.00  0.00    -0.209 NA 
HETATM    6  C   UNL     1      -9.947  15.482  66.265  1.00  0.00    -0.293 C  
HETATM    7  C   UNL     1      -9.574  10.848  67.916  1.00  0.00    -0.166 A  
HETATM    8  C   UNL     1     -10.923  15.203  65.402  1.00  0.00    -0.381 C  
HETATM    9  F   UNL     1     -11.207   9.317  67.093  1.00  0.00    -0.203 F  
HETATM   10  C   UNL     1     -11.450  16.282  64.539  1.00  0.00    -0.169 C  
HETATM   11  C   UNL     1     -10.676  10.552  67.098  1.00  0.00    -0.265 A  
HETATM   12  C   UNL     1     -11.412  13.805  65.374  1.00  0.00    -0.311 C  
HETATM   13  O   UNL     1     -12.449  15.900  63.706  1.00  0.00    -0.735 OA 
HETATM   14  C   UNL     1     -10.779  12.815  66.275  1.00  0.00    -0.291 A  
HETATM   15  O   UNL     1     -12.316  13.495  64.601  1.00  0.00    -0.455 OA 
HETATM   16  O   UNL     1     -11.080  17.440  64.604  1.00  0.00    -1.029 OA 
HETATM   17  C   UNL     1     -11.256  11.504  66.265  1.00  0.00    -0.286 A  
BRANCH   5  18
HETATM   18  C   UNL     1      -8.551  15.141  68.255  1.00  0.00    -0.164 C  
HETATM   19  C   UNL     1      -8.550  16.607  68.644  1.00  0.00    -0.253 C  
HETATM   20  C   UNL     1      -9.244  15.611  69.517  1.00  0.00    -0.259 C  
ENDBRANCH   5  18
BRANCH   7  21
HETATM   21  N   UNL     1      -8.965   9.902  68.749  1.00  0.00    -0.134 NA 
HETATM   22  C   UNL     1      -8.111   8.846  68.193  1.00  0.00    -0.106 C  
HETATM   23  C   UNL     1      -7.092   8.434  69.284  1.00  0.00    -0.062 C  
HETATM   24  N   UNL     1      -7.723   7.970  70.541  1.00  0.00    -0.083 NA 
HETATM   25  C   UNL     1      -8.672   8.994  71.044  1.00  0.00    -0.222 C  
HETATM   26  H   UNL     1      -7.030   7.715  71.244  1.00  0.00     0.000 HD 
HETATM   27  C   UNL     1      -9.378   8.466  72.289  1.00  0.00    -0.356 C  
HETATM   28  C   UNL     1      -9.695   9.483  69.966  1.00  0.00    -0.236 C  
ENDBRANCH   7  21
ENDBRANCH   2   3
TORSDOF 3
ENDMDL
MODEL       13
REMARK 921   NORMALIZED FREE ENERGY PREDICTED BY IDOCK:   -6.82 KCAL/MOL
REMARK 922        TOTAL FREE ENERGY PREDICTED BY IDOCK:   -8.04 KCAL/MOL
REMARK 923 INTER-LIGAND FREE ENERGY PREDICTED BY IDOCK:   -7.26 KCAL/MOL
REMARK 924 INTRA-LIGAND FREE ENERGY PREDICTED BY IDOCK:   -0.78 KCAL/MOL
REMARK 927      BINDING AFFINITY PREDICTED BY RF-SCORE:    0.00 PKD
ROOT
HETATM    1  C   UNL     1     -12.110  11.234  69.285  1.00  0.00    -0.303 C  
HETATM    2  O   UNL     1     -11.687  11.011  67.934  1.00  0.00    -0.551 OA 
ENDROOT
BRANCH   2   3
HETATM    3  C   UNL     1     -10.320  11.150  67.754  1.00  0.00    -0.187 A  
HETATM    4  C   UNL     1      -9.847  12.410  67.299  1.00  0.00    -0.207 A  
HETATM    5  N   UNL     1     -10.677  13.441  66.744  1.00  0.00    -0.276 NA 
HETATM    6  C   UNL     1     -10.138  14.695  66.482  1.00  0.00    -0.279 C  
HETATM    7  C   UNL     1      -9.431  10.087  68.099  1.00  0.00    -0.138 A  
HETATM    8  C   UNL     1      -8.862  15.050  66.629  1.00  0.00    -0.307 C  
HETATM    9  F   UNL     1      -7.166   9.469  68.514  1.00  0.00    -0.068 F  
HETATM   10  C   UNL     1      -8.460  16.438  66.309  1.00  0.00    -0.337 C  
HETATM   11  C   UNL     1      -8.063  10.402  68.155  1.00  0.00    -0.111 A  
HETATM   12  C   UNL     1      -7.929  14.006  67.113  1.00  0.00    -0.059 C  
HETATM   13  O   UNL     1      -7.140  16.694  66.479  1.00  0.00    -0.233 OA 
HETATM   14  C   UNL     1      -8.467  12.662  67.421  1.00  0.00    -0.186 A  
HETATM   15  O   UNL     1      -6.739  14.279  67.259  1.00  0.00    -0.259 OA 
HETATM   16  O   UNL     1      -9.223  17.275  65.863  1.00  0.00    -0.507 OA 
HETATM   17  C   UNL     1      -7.583  11.673  67.854  1.00  0.00    -0.115 A  
BRANCH   5  18
HETATM   18  C   UNL     1     -12.009  13.134  66.184  1.00  0.00    -0.422 C  
HETATM   19  C   UNL     1     -12.783  14.074  65.280  1.00  0.00    -0.468 C  
HETATM   20  C   UNL     1     -12.164  12.840  64.707  1.00  0.00    -0.517 C  
ENDBRANCH   5  18
BRANCH   7  21
HETATM   21  N   UNL     1      -9.937   8.821  68.414  1.00  0.00    -0.173 NA 
HETATM   22  C   UNL     1      -9.934   8.330  69.796  1.00  0.00    -0.191 C  
HETATM   23  C   UNL     1     -11.094   7.315  69.943  1.00  0.00    -0.212 C  
HETATM   24  N   UNL     1     -11.013   6.178  68.998  1.00  0.00    -0.347 NA 
HETATM   25  C   UNL     1     -10.903   6.679  67.605  1.00  0.00    -0.315 C  
HETATM   26  H   UNL     1     -11.793   5.532  69.110  1.00  0.00     0.000 HD 
HETATM   27  C   UNL     1     -10.731   5.500  66.652  1.00  0.00    -0.332 C  
HETATM   28  C   UNL     1      -9.775   7.745  67.410  1.00  0.00    -0.163 C  
ENDBRANCH   7  21
ENDBRANCH   2   3
TORSDOF 3
ENDMDL
MODEL       14
REMARK 921   NORMALIZED FREE ENERGY PREDICTED BY IDOCK:   -6.82 KCAL/MOL
REMARK 922        TOTAL FREE ENERGY PREDICTED BY IDOCK:   -8.04 KCAL/MOL
REMARK 923 INTER-LIGAND FREE ENERGY PREDICTED BY IDOCK:   -8.11 KCAL/MOL
REMARK 924 INTRA-LIGAND FREE ENERGY PREDICTED BY IDOCK:    0.06 KCAL/MOL
REMARK 927      BINDING AFFINITY PREDICTED BY RF-SCORE:    0.00 PKD
ROOT
HETATM    1  C   UNL     1     -10.499   9.097  68.732  1.00  0.00    -0.212 C  
HETATM    2  O   UNL     1     -11.611   9.935  68.393  1.00  0.00     0.022 OA 
ENDROOT
BRANCH   2   3
HETATM    3  C   UNL     1     -11.712  11.066  69.188  1.00  0.00    -0.333 A  
HETATM    4  C   UNL     1     -11.315  12.304  68.616  1.00  0.00    -0.291 A  
HETATM    5  N   UNL     1     -10.559  12.436  67.402  1.00  0.00    -0.214 NA 
HETATM    6  C   UNL     1     -10.365  13.695  66.844  1.00  0.00    -0.262 C  
HETATM    7  C   UNL     1     -12.275  10.983  70.497  1.00  0.00    -0.381 A  
HETATM    8  C   UNL     1     -10.759  14.856  67.365  1.00  0.00    -0.292 C  
HETATM    9  F   UNL     1     -13.174  12.205  72.337  1.00  0.00    -0.589 F  
HETATM   10  C   UNL     1     -10.474  16.108  66.629  1.00  0.00    -0.300 C  
HETATM   11  C   UNL     1     -12.601  12.198  71.122  1.00  0.00    -0.260 A  
HETATM   12  C   UNL     1     -11.466  14.801  68.666  1.00  0.00    -0.302 C  
HETATM   13  O   UNL     1     -10.903  17.235  67.249  1.00  0.00    -0.258 OA 
HETATM   14  C   UNL     1     -11.710  13.478  69.284  1.00  0.00    -0.382 A  
HETATM   15  O   UNL     1     -11.845  15.844  69.194  1.00  0.00    -0.389 OA 
HETATM   16  O   UNL     1      -9.846  16.150  65.587  1.00  0.00    -0.411 OA 
HETATM   17  C   UNL     1     -12.355  13.429  70.520  1.00  0.00    -0.401 A  
BRANCH   5  18
HETATM   18  C   UNL     1      -9.749  11.319  66.878  1.00  0.00    -0.192 C  
HETATM   19  C   UNL     1      -9.376  11.157  65.417  1.00  0.00    -0.243 C  
HETATM   20  C   UNL     1      -8.332  11.562  66.406  1.00  0.00    -0.118 C  
ENDBRANCH   5  18
BRANCH   7  21
HETATM   21  N   UNL     1     -12.529   9.735  71.077  1.00  0.00    -0.323 NA 
HETATM   22  C   UNL     1     -13.899   9.304  71.372  1.00  0.00    -0.209 C  
HETATM   23  C   UNL     1     -13.932   7.756  71.335  1.00  0.00    -0.322 C  
HETATM   24  N   UNL     1     -12.984   7.120  72.276  1.00  0.00    -0.515 NA 
HETATM   25  C   UNL     1     -11.612   7.640  72.050  1.00  0.00    -0.291 C  
HETATM   26  H   UNL     1     -13.019   6.102  72.224  1.00  0.00     0.000 HD 
HETATM   27  C   UNL     1     -10.664   7.041  73.084  1.00  0.00    -0.359 C  
HETATM   28  C   UNL     1     -11.530   9.202  72.031  1.00  0.00    -0.281 C  
ENDBRANCH   7  21
ENDBRANCH   2   3
TORSDOF 3
ENDMDL
MODEL       15
REMARK 921   NORMALIZED FREE ENERGY PREDICTED BY IDOCK:   -6.76 KCAL/MOL
REMARK 922        TOTAL FREE ENERGY PREDICTED BY IDOCK:   -7.97 KCAL/MOL
REMARK 923 INTER-LIGAND FREE ENERGY PREDICTED BY IDOCK:   -7.54 KCAL/MOL
REMARK 924 INTRA-LIGAND FREE ENERGY PREDICTED BY IDOCK:   -0.43 KCAL/MOL
REMARK 927      BINDING AFFINITY PREDICTED BY RF-SCORE:    0.00 PKD
ROOT
HETATM    1  C   UNL     1      -8.593  10.438  69.422  1.00  0.00    -0.130 C  
HETATM    2  O   UNL     1      -9.759  10.317  68.597  1.00  0.00    -0.155 OA 
ENDROOT
BRANCH   2   3
HETATM    3  C   UNL     1     -10.243  11.534  68.143  1.00  0.00    -0.194 A  
HETATM    4  C   UNL     1     -11.137  12.238  68.993  1.00  0.00    -0.236 A  
HETATM    5  N   UNL     1     -11.796  11.668  70.135  1.00  0.00    -0.347 NA 
HETATM    6  C   UNL     1     -12.521  12.488  70.992  1.00  0.00    -0.258 C  
HETATM    7  C   UNL     1      -9.784  12.082  66.908  1.00  0.00    -0.203 A  
HETATM    8  C   UNL     1     -12.746  13.792  70.834  1.00  0.00    -0.394 C  
HETATM    9  F   UNL     1      -9.667  14.031  65.538  1.00  0.00    -0.296 F  
HETATM   10  C   UNL     1     -13.538  14.514  71.853  1.00  0.00    -0.396 C  
HETATM   11  C   UNL     1     -10.099  13.428  66.659  1.00  0.00    -0.275 A  
HETATM   12  C   UNL     1     -12.172  14.427  69.625  1.00  0.00    -0.307 C  
HETATM   13  O   UNL     1     -13.721  15.832  71.594  1.00  0.00    -0.450 OA 
HETATM   14  C   UNL     1     -11.376  13.594  68.697  1.00  0.00    -0.321 A  
HETATM   15  O   UNL     1     -12.354  15.626  69.427  1.00  0.00    -0.266 OA 
HETATM   16  O   UNL     1     -14.051  13.974  72.817  1.00  0.00    -0.636 OA 
HETATM   17  C   UNL     1     -10.855  14.188  67.547  1.00  0.00    -0.280 A  
BRANCH   5  18
HETATM   18  C   UNL     1     -11.959  10.208  70.276  1.00  0.00    -0.233 C  
HETATM   19  C   UNL     1     -11.534   9.423  71.503  1.00  0.00    -0.467 C  
HETATM   20  C   UNL     1     -12.987   9.646  71.235  1.00  0.00    -0.446 C  
ENDBRANCH   5  18
BRANCH   7  21
HETATM   21  N   UNL     1      -9.011  11.305  66.037  1.00  0.00    -0.201 NA 
HETATM   22  C   UNL     1      -7.558  11.203  66.205  1.00  0.00    -0.075 C  
HETATM   23  C   UNL     1      -7.104   9.844  65.616  1.00  0.00    -0.112 C  
HETATM   24  N   UNL     1      -7.467   9.664  64.192  1.00  0.00    -0.122 NA 
HETATM   25  C   UNL     1      -8.923   9.878  64.004  1.00  0.00    -0.243 C  
HETATM   26  H   UNL     1      -7.165   8.758  63.833  1.00  0.00     0.000 HD 
HETATM   27  C   UNL     1      -9.266   9.775  62.522  1.00  0.00    -0.281 C  
HETATM   28  C   UNL     1      -9.444  11.216  64.624  1.00  0.00    -0.213 C  
ENDBRANCH   7  21
ENDBRANCH   2   3
TORSDOF 3
ENDMDL
MODEL       16
REMARK 921   NORMALIZED FREE ENERGY PREDICTED BY IDOCK:   -6.75 KCAL/MOL
REMARK 922        TOTAL FREE ENERGY PREDICTED BY IDOCK:   -7.96 KCAL/MOL
REMARK 923 INTER-LIGAND FREE ENERGY PREDICTED BY IDOCK:   -7.56 KCAL/MOL
REMARK 924 INTRA-LIGAND FREE ENERGY PREDICTED BY IDOCK:   -0.40 KCAL/MOL
REMARK 927      BINDING AFFINITY PREDICTED BY RF-SCORE:    0.00 PKD
ROOT
HETATM    1  C   UNL     1      -8.726  10.499  67.092  1.00  0.00    -0.130 C  
HETATM    2  O   UNL     1     -10.124  10.240  66.919  1.00  0.00    -0.202 OA 
ENDROOT
BRANCH   2   3
HETATM    3  C   UNL     1     -10.860  10.383  68.086  1.00  0.00    -0.264 A  
HETATM    4  C   UNL     1     -10.951   9.253  68.942  1.00  0.00    -0.017 A  
HETATM    5  N   UNL     1     -10.595   7.915  68.566  1.00  0.00    -0.154 NA 
HETATM    6  C   UNL     1     -10.567   6.912  69.528  1.00  0.00    -0.236 C  
HETATM    7  C   UNL     1     -11.423  11.647  68.438  1.00  0.00    -0.297 A  
HETATM    8  C   UNL     1     -10.917   7.039  70.808  1.00  0.00    -0.285 C  
HETATM    9  F   UNL     1     -12.409  12.951  70.175  1.00  0.00    -0.362 F  
HETATM   10  C   UNL     1     -10.819   5.863  71.700  1.00  0.00    -0.263 C  
HETATM   11  C   UNL     1     -11.903  11.780  69.751  1.00  0.00    -0.349 A  
HETATM   12  C   UNL     1     -11.384   8.375  71.244  1.00  0.00    -0.266 C  
HETATM   13  O   UNL     1     -11.210   6.091  72.978  1.00  0.00    -0.254 OA 
HETATM   14  C   UNL     1     -11.410   9.475  70.254  1.00  0.00    -0.284 A  
HETATM   15  O   UNL     1     -11.725   8.545  72.413  1.00  0.00    -0.375 OA 
HETATM   16  O   UNL     1     -10.484   4.755  71.322  1.00  0.00    -0.159 OA 
HETATM   17  C   UNL     1     -11.872  10.727  70.661  1.00  0.00    -0.460 A  
BRANCH   5  18
HETATM   18  C   UNL     1     -10.526   7.509  67.148  1.00  0.00    -0.336 C  
HETATM   19  C   UNL     1      -9.416   6.655  66.565  1.00  0.00    -0.192 C  
HETATM   20  C   UNL     1     -10.778   6.069  66.755  1.00  0.00    -0.374 C  
ENDBRANCH   5  18
BRANCH   7  21
HETATM   21  N   UNL     1     -11.428  12.697  67.513  1.00  0.00    -0.318 NA 
HETATM   22  C   UNL     1     -12.001  12.521  66.174  1.00  0.00    -0.366 C  
HETATM   23  C   UNL     1     -12.482  13.906  65.675  1.00  0.00    -0.505 C  
HETATM   24  N   UNL     1     -11.412  14.928  65.641  1.00  0.00    -0.325 NA 
HETATM   25  C   UNL     1     -10.757  15.028  66.969  1.00  0.00    -0.304 C  
HETATM   26  H   UNL     1     -11.758  15.832  65.318  1.00  0.00     0.000 HD 
HETATM   27  C   UNL     1      -9.602  16.021  66.894  1.00  0.00    -0.239 C  
HETATM   28  C   UNL     1     -10.294  13.648  67.543  1.00  0.00    -0.241 C  
ENDBRANCH   7  21
ENDBRANCH   2   3
TORSDOF 3
ENDMDL
MODEL       17
REMARK 921   NORMALIZED FREE ENERGY PREDICTED BY IDOCK:   -6.72 KCAL/MOL
REMARK 922        TOTAL FREE ENERGY PREDICTED BY IDOCK:   -7.93 KCAL/MOL
REMARK 923 INTER-LIGAND FREE ENERGY PREDICTED BY IDOCK:   -7.14 KCAL/MOL
REMARK 924 INTRA-LIGAND FREE ENERGY PREDICTED BY IDOCK:   -0.78 KCAL/MOL
REMARK 927      BINDING AFFINITY PREDICTED BY RF-SCORE:    0.00 PKD
ROOT
HETATM    1  C   UNL     1      -7.515  12.333  67.413  1.00  0.00    -0.160 C  
HETATM    2  O   UNL     1      -8.182  13.085  68.435  1.00  0.00    -0.151 OA 
ENDROOT
BRANCH   2   3
HETATM    3  C   UNL     1      -9.228  13.858  67.957  1.00  0.00    -0.193 A  
HETATM    4  C   UNL     1      -8.942  15.210  67.627  1.00  0.00    -0.180 A  
HETATM    5  N   UNL     1      -7.750  15.909  68.015  1.00  0.00    -0.130 NA 
HETATM    6  C   UNL     1      -7.496  17.176  67.502  1.00  0.00    -0.161 C  
HETATM    7  C   UNL     1     -10.513  13.280  67.731  1.00  0.00    -0.239 A  
HETATM    8  C   UNL     1      -8.302  17.881  66.709  1.00  0.00    -0.273 C  
HETATM    9  F   UNL     1     -12.645  13.554  66.696  1.00  0.00    -0.396 F  
HETATM   10  C   UNL     1      -7.868  19.218  66.248  1.00  0.00    -0.299 C  
HETATM   11  C   UNL     1     -11.428  14.045  66.989  1.00  0.00    -0.351 A  
HETATM   12  C   UNL     1      -9.594  17.256  66.343  1.00  0.00    -0.274 C  
HETATM   13  O   UNL     1      -8.763  19.859  65.457  1.00  0.00    -0.243 OA 
HETATM   14  C   UNL     1      -9.895  15.899  66.853  1.00  0.00    -0.251 A  
HETATM   15  O   UNL     1     -10.378  17.866  65.619  1.00  0.00    -0.605 OA 
HETATM   16  O   UNL     1      -6.827  19.747  66.595  1.00  0.00    -0.196 OA 
HETATM   17  C   UNL     1     -11.122  15.322  66.527  1.00  0.00    -0.271 A  
BRANCH   5  18
HETATM   18  C   UNL     1      -6.925  15.448  69.148  1.00  0.00    -0.154 C  
HETATM   19  C   UNL     1      -5.415  15.307  69.095  1.00  0.00    -0.095 C  
HETATM   20  C   UNL     1      -6.026  16.420  69.882  1.00  0.00    -0.195 C  
ENDBRANCH   5  18
BRANCH   7  21
HETATM   21  N   UNL     1     -10.794  11.988  68.190  1.00  0.00    -0.210 NA 
HETATM   22  C   UNL     1     -10.903  10.861  67.257  1.00  0.00    -0.287 C  
HETATM   23  C   UNL     1     -10.532   9.569  68.026  1.00  0.00    -0.230 C  
HETATM   24  N   UNL     1     -11.375   9.325  69.218  1.00  0.00    -0.431 NA 
HETATM   25  C   UNL     1     -11.353  10.511  70.110  1.00  0.00    -0.323 C  
HETATM   26  H   UNL     1     -11.103   8.474  69.710  1.00  0.00     0.000 HD 
HETATM   27  C   UNL     1     -12.293  10.279  71.289  1.00  0.00    -0.506 C  
HETATM   28  C   UNL     1     -11.674  11.853  69.374  1.00  0.00    -0.339 C  
ENDBRANCH   7  21
ENDBRANCH   2   3
TORSDOF 3
ENDMDL
MODEL       18
REMARK 921   NORMALIZED FREE ENERGY PREDICTED BY IDOCK:   -6.70 KCAL/MOL
REMARK 922        TOTAL FREE ENERGY PREDICTED BY IDOCK:   -7.90 KCAL/MOL
REMARK 923 INTER-LIGAND FREE ENERGY PREDICTED BY IDOCK:   -7.38 KCAL/MOL
REMARK 924 INTRA-LIGAND FREE ENERGY PREDICTED BY IDOCK:   -0.52 KCAL/MOL
REMARK 927      BINDING AFFINITY PREDICTED BY RF-SCORE:    0.00 PKD
ROOT
HETATM    1  C   UNL     1      -7.246  12.364  66.833  1.00  0.00     0.095 C  
HETATM    2  O   UNL     1      -8.605  12.346  67.287  1.00  0.00    -0.170 OA 
ENDROOT
BRANCH   2   3
HETATM    3  C   UNL     1      -9.514  12.751  66.322  1.00  0.00    -0.196 A  
HETATM    4  C   UNL     1      -9.867  14.127  66.293  1.00  0.00    -0.306 A  
HETATM    5  N   UNL     1      -9.586  15.062  67.346  1.00  0.00    -0.204 NA 
HETATM    6  C   UNL     1      -9.828  16.416  67.148  1.00  0.00    -0.249 C  
HETATM    7  C   UNL     1     -10.000  11.825  65.350  1.00  0.00    -0.253 A  
HETATM    8  C   UNL     1     -10.381  16.968  66.068  1.00  0.00    -0.324 C  
HETATM    9  F   UNL     1     -11.138  11.566  63.270  1.00  0.00    -0.431 F  
HETATM   10  C   UNL     1     -10.559  18.436  66.021  1.00  0.00    -0.309 C  
HETATM   11  C   UNL     1     -10.686  12.366  64.250  1.00  0.00    -0.357 A  
HETATM   12  C   UNL     1     -10.781  16.048  64.977  1.00  0.00    -0.378 C  
HETATM   13  O   UNL     1     -11.142  18.896  64.887  1.00  0.00    -0.364 OA 
HETATM   14  C   UNL     1     -10.523  14.600  65.141  1.00  0.00    -0.440 A  
HETATM   15  O   UNL     1     -11.302  16.504  63.961  1.00  0.00    -1.064 OA 
HETATM   16  O   UNL     1     -10.276  19.180  66.942  1.00  0.00    -0.342 OA 
HETATM   17  C   UNL     1     -10.921  13.732  64.124  1.00  0.00    -0.149 A  
BRANCH   5  18
HETATM   18  C   UNL     1      -9.313  14.606  68.723  1.00  0.00    -0.191 C  
HETATM   19  C   UNL     1      -8.254  15.218  69.622  1.00  0.00    -0.115 C  
HETATM   20  C   UNL     1      -9.699  15.473  69.903  1.00  0.00    -0.169 C  
ENDBRANCH   5  18
BRANCH   7  21
HETATM   21  N   UNL     1      -9.739  10.457  65.489  1.00  0.00    -0.229 NA 
HETATM   22  C   UNL     1      -9.243   9.665  64.358  1.00  0.00    -0.200 C  
HETATM   23  C   UNL     1      -8.433   8.475  64.929  1.00  0.00    -0.147 C  
HETATM   24  N   UNL     1      -9.209   7.616  65.851  1.00  0.00    -0.382 NA 
HETATM   25  C   UNL     1      -9.803   8.437  66.935  1.00  0.00    -0.245 C  
HETATM   26  H   UNL     1      -8.649   6.847  66.219  1.00  0.00     0.000 HD 
HETATM   27  C   UNL     1     -10.670   7.553  67.826  1.00  0.00    -0.233 C  
HETATM   28  C   UNL     1     -10.594   9.682  66.415  1.00  0.00    -0.027 C  
ENDBRANCH   7  21
ENDBRANCH   2   3
TORSDOF 3
ENDMDL
MODEL       19
REMARK 921   NORMALIZED FREE ENERGY PREDICTED BY IDOCK:   -6.69 KCAL/MOL
REMARK 922        TOTAL FREE ENERGY PREDICTED BY IDOCK:   -7.89 KCAL/MOL
REMARK 923 INTER-LIGAND FREE ENERGY PREDICTED BY IDOCK:   -7.12 KCAL/MOL
REMARK 924 INTRA-LIGAND FREE ENERGY PREDICTED BY IDOCK:   -0.77 KCAL/MOL
REMARK 927      BINDING AFFINITY PREDICTED BY RF-SCORE:    0.00 PKD
ROOT
HETATM    1  C   UNL     1     -11.145  11.664  65.959  1.00  0.00    -0.270 C  
HETATM    2  O   UNL     1     -10.149  11.871  66.968  1.00  0.00    -0.203 OA 
ENDROOT
BRANCH   2   3
HETATM    3  C   UNL     1     -10.484  11.320  68.195  1.00  0.00    -0.189 A  
HETATM    4  C   UNL     1     -11.202  12.141  69.106  1.00  0.00    -0.244 A  
HETATM    5  N   UNL     1     -11.353  13.563  68.976  1.00  0.00    -0.273 NA 
HETATM    6  C   UNL     1     -12.211  14.246  69.831  1.00  0.00    -0.352 C  
HETATM    7  C   UNL     1     -10.187   9.953  68.481  1.00  0.00    -0.177 A  
HETATM    8  C   UNL     1     -12.889  13.721  70.851  1.00  0.00    -0.341 C  
HETATM    9  F   UNL     1     -10.608   8.106  69.930  1.00  0.00    -0.220 F  
HETATM   10  C   UNL     1     -13.767  14.597  71.657  1.00  0.00    -0.418 C  
HETATM   11  C   UNL     1     -10.802   9.398  69.616  1.00  0.00    -0.228 A  
HETATM   12  C   UNL     1     -12.708  12.272  71.100  1.00  0.00    -0.243 C  
HETATM   13  O   UNL     1     -14.402  13.971  72.678  1.00  0.00    -0.596 OA 
HETATM   14  C   UNL     1     -11.818  11.504  70.200  1.00  0.00    -0.440 A  
HETATM   15  O   UNL     1     -13.305  11.738  72.032  1.00  0.00    -0.487 OA 
HETATM   16  O   UNL     1     -13.870  15.797  71.479  1.00  0.00    -0.493 OA 
HETATM   17  C   UNL     1     -11.630  10.144  70.449  1.00  0.00    -0.396 A  
BRANCH   5  18
HETATM   18  C   UNL     1     -10.424  14.361  68.152  1.00  0.00    -0.237 C  
HETATM   19  C   UNL     1     -10.869  15.346  67.088  1.00  0.00    -0.321 C  
HETATM   20  C   UNL     1     -10.300  15.853  68.373  1.00  0.00    -0.240 C  
ENDBRANCH   5  18
BRANCH   7  21
HETATM   21  N   UNL     1      -9.365   9.217  67.621  1.00  0.00    -0.135 NA 
HETATM   22  C   UNL     1      -9.935   8.248  66.678  1.00  0.00    -0.278 C  
HETATM   23  C   UNL     1      -8.967   8.129  65.475  1.00  0.00    -0.032 C  
HETATM   24  N   UNL     1      -7.595   7.724  65.854  1.00  0.00    -0.087 NA 
HETATM   25  C   UNL     1      -7.060   8.641  66.891  1.00  0.00    -0.075 C  
HETATM   26  H   UNL     1      -6.978   7.663  65.045  1.00  0.00     0.000 HD 
HETATM   27  C   UNL     1      -5.682   8.160  67.335  1.00  0.00    -0.039 C  
HETATM   28  C   UNL     1      -8.021   8.835  68.110  1.00  0.00    -0.106 C  
ENDBRANCH   7  21
ENDBRANCH   2   3
TORSDOF 3
ENDMDL
MODEL       20
REMARK 921   NORMALIZED FREE ENERGY PREDICTED BY IDOCK:   -6.68 KCAL/MOL
REMARK 922        TOTAL FREE ENERGY PREDICTED BY IDOCK:   -7.87 KCAL/MOL
REMARK 923 INTER-LIGAND FREE ENERGY PREDICTED BY IDOCK:   -7.08 KCAL/MOL
REMARK 924 INTRA-LIGAND FREE ENERGY PREDICTED BY IDOCK:   -0.79 KCAL/MOL
REMARK 927      BINDING AFFINITY PREDICTED BY RF-SCORE:    0.00 PKD
ROOT
HETATM    1  C   UNL     1     -11.661  10.597  68.195  1.00  0.00    -0.136 C  
HETATM    2  O   UNL     1     -10.713  10.609  67.121  1.00  0.00    -0.252 OA 
ENDROOT
BRANCH   2   3
HETATM    3  C   UNL     1      -9.715  11.559  67.276  1.00  0.00    -0.182 A  
HETATM    4  C   UNL     1      -9.908  12.817  66.645  1.00  0.00    -0.250 A  
HETATM    5  N   UNL     1     -10.897  13.081  65.639  1.00  0.00    -0.271 NA 
HETATM    6  C   UNL     1     -11.109  14.385  65.206  1.00  0.00    -0.342 C  
HETATM    7  C   UNL     1      -8.587  11.296  68.111  1.00  0.00    -0.150 A  
HETATM    8  C   UNL     1     -10.421  15.462  65.584  1.00  0.00    -0.391 C  
HETATM    9  F   UNL     1      -6.719  12.238  69.255  1.00  0.00    -0.094 F  
HETATM   10  C   UNL     1     -10.789  16.782  65.025  1.00  0.00    -0.117 C  
HETATM   11  C   UNL     1      -7.776  12.394  68.440  1.00  0.00    -0.144 A  
HETATM   12  C   UNL     1      -9.323  15.248  66.554  1.00  0.00    -0.281 C  
HETATM   13  O   UNL     1     -10.021  17.811  65.462  1.00  0.00    -0.515 OA 
HETATM   14  C   UNL     1      -9.076  13.877  67.054  1.00  0.00    -0.259 A  
HETATM   15  O   UNL     1      -8.652  16.207  66.930  1.00  0.00    -0.183 OA 
HETATM   16  O   UNL     1     -11.659  16.942  64.189  1.00  0.00    -1.091 OA 
HETATM   17  C   UNL     1      -8.026  13.672  67.950  1.00  0.00    -0.161 A  
BRANCH   5  18
HETATM   18  C   UNL     1     -11.500  11.988  64.851  1.00  0.00    -0.294 C  
HETATM   19  C   UNL     1     -12.240  12.196  63.543  1.00  0.00    -0.670 C  
HETATM   20  C   UNL     1     -10.883  11.569  63.533  1.00  0.00    -0.473 C  
ENDBRANCH   5  18
BRANCH   7  21
HETATM   21  N   UNL     1      -8.363  10.006  68.605  1.00  0.00    -0.112 NA 
HETATM   22  C   UNL     1      -8.519   9.707  70.033  1.00  0.00    -0.204 C  
HETATM   23  C   UNL     1      -8.885   8.208  70.169  1.00  0.00    -0.145 C  
HETATM   24  N   UNL     1      -7.888   7.297  69.564  1.00  0.00    -0.116 NA 
HETATM   25  C   UNL     1      -7.648   7.670  68.148  1.00  0.00    -0.114 C  
HETATM   26  H   UNL     1      -8.159   6.318  69.660  1.00  0.00     0.000 HD 
HETATM   27  C   UNL     1      -6.556   6.778  67.565  1.00  0.00    -0.054 C  
HETATM   28  C   UNL     1      -7.321   9.186  67.947  1.00  0.00    -0.084 C  
ENDBRANCH   7  21
ENDBRANCH   2   3
TORSDOF 3
ENDMDL
MODEL       21
REMARK 921   NORMALIZED FREE ENERGY PREDICTED BY IDOCK:   -6.67 KCAL/MOL
REMARK 922        TOTAL FREE ENERGY PREDICTED BY IDOCK:   -7.86 KCAL/MOL
REMARK 923 INTER-LIGAND FREE ENERGY PREDICTED BY IDOCK:   -7.14 KCAL/MOL
REMARK 924 INTRA-LIGAND FREE ENERGY PREDICTED BY IDOCK:   -0.73 KCAL/MOL
REMARK 927      BINDING AFFINITY PREDICTED BY RF-SCORE:    0.00 PKD
ROOT
HETATM    1  C   UNL     1     -10.816   7.052  67.182  1.00  0.00    -0.357 C  
HETATM    2  O   UNL     1      -9.778   7.967  67.555  1.00  0.00    -0.146 OA 
ENDROOT
BRANCH   2   3
HETATM    3  C   UNL     1     -10.255   9.154  68.088  1.00  0.00    -0.207 A  
HETATM    4  C   UNL     1     -10.605  10.185  67.176  1.00  0.00    -0.246 A  
HETATM    5  N   UNL     1     -10.240  10.204  65.788  1.00  0.00    -0.246 NA 
HETATM    6  C   UNL     1     -10.772  11.176  64.948  1.00  0.00    -0.248 C  
HETATM    7  C   UNL     1     -10.460   9.287  69.495  1.00  0.00    -0.220 A  
HETATM    8  C   UNL     1     -11.565  12.183  65.312  1.00  0.00    -0.376 C  
HETATM    9  F   UNL     1     -11.475  10.574  71.227  1.00  0.00    -0.387 F  
HETATM   10  C   UNL     1     -12.048  13.127  64.280  1.00  0.00    -0.414 C  
HETATM   11  C   UNL     1     -11.201  10.400  69.923  1.00  0.00    -0.306 A  
HETATM   12  C   UNL     1     -11.909  12.278  66.749  1.00  0.00    -0.277 C  
HETATM   13  O   UNL     1     -12.838  14.123  64.753  1.00  0.00    -0.677 OA 
HETATM   14  C   UNL     1     -11.378  11.251  67.674  1.00  0.00    -0.352 A  
HETATM   15  O   UNL     1     -12.632  13.192  67.140  1.00  0.00    -0.125 OA 
HETATM   16  O   UNL     1     -11.719  13.073  63.109  1.00  0.00    -0.438 OA 
HETATM   17  C   UNL     1     -11.683  11.355  69.032  1.00  0.00    -0.409 A  
BRANCH   5  18
HETATM   18  C   UNL     1      -9.109   9.402  65.281  1.00  0.00    -0.232 C  
HETATM   19  C   UNL     1      -8.434   9.641  63.944  1.00  0.00    -0.190 C  
HETATM   20  C   UNL     1      -7.722  10.003  65.207  1.00  0.00    -0.139 C  
ENDBRANCH   5  18
BRANCH   7  21
HETATM   21  N   UNL     1      -9.980   8.306  70.371  1.00  0.00    -0.187 NA 
HETATM   22  C   UNL     1     -10.869   7.267  70.901  1.00  0.00    -0.243 C  
HETATM   23  C   UNL     1     -10.007   6.023  71.226  1.00  0.00    -0.184 C  
HETATM   24  N   UNL     1      -8.912   6.293  72.185  1.00  0.00    -0.138 NA 
HETATM   25  C   UNL     1      -8.077   7.420  71.701  1.00  0.00    -0.099 C  
HETATM   26  H   UNL     1      -8.356   5.460  72.373  1.00  0.00     0.000 HD 
HETATM   27  C   UNL     1      -7.008   7.744  72.740  1.00  0.00    -0.085 C  
HETATM   28  C   UNL     1      -8.903   8.690  71.312  1.00  0.00    -0.207 C  
ENDBRANCH   7  21
ENDBRANCH   2   3
TORSDOF 3
ENDMDL
MODEL       22
REMARK 921   NORMALIZED FREE ENERGY PREDICTED BY IDOCK:   -6.67 KCAL/MOL
REMARK 922        TOTAL FREE ENERGY PREDICTED BY IDOCK:   -7.86 KCAL/MOL
REMARK 923 INTER-LIGAND FREE ENERGY PREDICTED BY IDOCK:   -7.93 KCAL/MOL
REMARK 924 INTRA-LIGAND FREE ENERGY PREDICTED BY IDOCK:    0.07 KCAL/MOL
REMARK 927      BINDING AFFINITY PREDICTED BY RF-SCORE:    0.00 PKD
ROOT
HETATM    1  C   UNL     1     -11.555  13.049  68.354  1.00  0.00    -0.335 C  
HETATM    2  O   UNL     1     -12.069  11.859  67.744  1.00  0.00    -0.564 OA 
ENDROOT
BRANCH   2   3
HETATM    3  C   UNL     1     -11.108  11.131  67.058  1.00  0.00    -0.273 A  
HETATM    4  C   UNL     1     -10.775   9.848  67.567  1.00  0.00    -0.272 A  
HETATM    5  N   UNL     1     -11.132   9.370  68.873  1.00  0.00    -0.046 NA 
HETATM    6  C   UNL     1     -10.899   8.042  69.209  1.00  0.00    -0.059 C  
HETATM    7  C   UNL     1     -10.550  11.632  65.843  1.00  0.00    -0.271 A  
HETATM    8  C   UNL     1     -10.289   7.132  68.449  1.00  0.00    -0.220 C  
HETATM    9  F   UNL     1      -9.284  11.107  63.892  1.00  0.00    -0.203 F  
HETATM   10  C   UNL     1     -10.130   5.754  68.964  1.00  0.00    -0.191 C  
HETATM   11  C   UNL     1      -9.807  10.726  65.070  1.00  0.00    -0.288 A  
HETATM   12  C   UNL     1      -9.810   7.582  67.122  1.00  0.00    -0.201 C  
HETATM   13  O   UNL     1      -9.486   4.909  68.122  1.00  0.00    -0.124 OA 
HETATM   14  C   UNL     1     -10.057   8.985  66.717  1.00  0.00    -0.344 A  
HETATM   15  O   UNL     1      -9.235   6.785  66.384  1.00  0.00    -0.160 OA 
HETATM   16  O   UNL     1     -10.480   5.406  70.077  1.00  0.00    -0.280 OA 
HETATM   17  C   UNL     1      -9.585   9.414  65.477  1.00  0.00    -0.328 A  
BRANCH   5  18
HETATM   18  C   UNL     1     -11.483  10.304  69.961  1.00  0.00    -0.296 C  
HETATM   19  C   UNL     1     -12.802  10.274  70.710  1.00  0.00    -0.427 C  
HETATM   20  C   UNL     1     -11.554   9.814  71.392  1.00  0.00    -0.452 C  
ENDBRANCH   5  18
BRANCH   7  21
HETATM   21  N   UNL     1     -10.800  12.951  65.446  1.00  0.00    -0.278 NA 
HETATM   22  C   UNL     1     -11.616  13.240  64.262  1.00  0.00    -0.400 C  
HETATM   23  C   UNL     1     -12.265  14.632  64.459  1.00  0.00    -0.456 C  
HETATM   24  N   UNL     1     -11.284  15.719  64.680  1.00  0.00    -0.637 NA 
HETATM   25  C   UNL     1     -10.385  15.374  65.809  1.00  0.00    -0.361 C  
HETATM   26  H   UNL     1     -11.739  16.621  64.816  1.00  0.00     0.000 HD 
HETATM   27  C   UNL     1      -9.327  16.461  65.968  1.00  0.00    -0.335 C  
HETATM   28  C   UNL     1      -9.739  13.955  65.684  1.00  0.00    -0.128 C  
ENDBRANCH   7  21
ENDBRANCH   2   3
TORSDOF 3
ENDMDL
MODEL       23
REMARK 921   NORMALIZED FREE ENERGY PREDICTED BY IDOCK:   -6.65 KCAL/MOL
REMARK 922        TOTAL FREE ENERGY PREDICTED BY IDOCK:   -7.84 KCAL/MOL
REMARK 923 INTER-LIGAND FREE ENERGY PREDICTED BY IDOCK:   -7.18 KCAL/MOL
REMARK 924 INTRA-LIGAND FREE ENERGY PREDICTED BY IDOCK:   -0.66 KCAL/MOL
REMARK 927      BINDING AFFINITY PREDICTED BY RF-SCORE:    0.00 PKD
ROOT
HETATM    1  C   UNL     1      -8.175  11.504  68.573  1.00  0.00    -0.148 C  
HETATM    2  O   UNL     1      -9.348  10.946  67.969  1.00  0.00    -0.152 OA 
ENDROOT
BRANCH   2   3
HETATM    3  C   UNL     1     -10.420  10.837  68.841  1.00  0.00    -0.205 A  
HETATM    4  C   UNL     1     -10.613   9.586  69.486  1.00  0.00    -0.221 A  
HETATM    5  N   UNL     1      -9.974   8.361  69.095  1.00  0.00    -0.191 NA 
HETATM    6  C   UNL     1     -10.105   7.229  69.892  1.00  0.00    -0.194 C  
HETATM    7  C   UNL     1     -11.235  11.972  69.134  1.00  0.00    -0.246 A  
HETATM    8  C   UNL     1     -10.847   7.125  70.994  1.00  0.00    -0.262 C  
HETATM    9  F   UNL     1     -12.881  12.894  70.594  1.00  0.00    -0.295 F  
HETATM   10  C   UNL     1     -10.866   5.840  71.729  1.00  0.00    -0.252 C  
HETATM   11  C   UNL     1     -12.110  11.856  70.226  1.00  0.00    -0.325 A  
HETATM   12  C   UNL     1     -11.608   8.327  71.406  1.00  0.00    -0.280 C  
HETATM   13  O   UNL     1     -11.660   5.832  72.828  1.00  0.00    -0.281 OA 
HETATM   14  C   UNL     1     -11.480   9.558  70.594  1.00  0.00    -0.362 A  
HETATM   15  O   UNL     1     -12.313   8.283  72.412  1.00  0.00    -0.353 OA 
HETATM   16  O   UNL     1     -10.279   4.841  71.356  1.00  0.00    -0.199 OA 
HETATM   17  C   UNL     1     -12.215  10.683  70.969  1.00  0.00    -0.498 A  
BRANCH   5  18
HETATM   18  C   UNL     1      -9.416   8.186  67.739  1.00  0.00    -0.142 C  
HETATM   19  C   UNL     1      -9.186   6.836  67.086  1.00  0.00    -0.145 C  
HETATM   20  C   UNL     1     -10.300   7.709  66.607  1.00  0.00    -0.258 C  
ENDBRANCH   5  18
BRANCH   7  21
HETATM   21  N   UNL     1     -11.101  13.146  68.384  1.00  0.00    -0.254 NA 
HETATM   22  C   UNL     1     -10.838  14.433  69.037  1.00  0.00    -0.252 C  
HETATM   23  C   UNL     1     -10.089  15.336  68.026  1.00  0.00    -0.229 C  
HETATM   24  N   UNL     1     -10.828  15.549  66.761  1.00  0.00    -0.310 NA 
HETATM   25  C   UNL     1     -11.192  14.244  66.156  1.00  0.00    -0.331 C  
HETATM   26  H   UNL     1     -10.308  16.138  66.111  1.00  0.00     0.000 HD 
HETATM   27  C   UNL     1     -12.027  14.479  64.901  1.00  0.00    -0.425 C  
HETATM   28  C   UNL     1     -11.909  13.272  67.150  1.00  0.00    -0.374 C  
ENDBRANCH   7  21
ENDBRANCH   2   3
TORSDOF 3
ENDMDL
MODEL       24
REMARK 921   NORMALIZED FREE ENERGY PREDICTED BY IDOCK:   -6.59 KCAL/MOL
REMARK 922        TOTAL FREE ENERGY PREDICTED BY IDOCK:   -7.77 KCAL/MOL
REMARK 923 INTER-LIGAND FREE ENERGY PREDICTED BY IDOCK:   -7.65 KCAL/MOL
REMARK 924 INTRA-LIGAND FREE ENERGY PREDICTED BY IDOCK:   -0.12 KCAL/MOL
REMARK 927      BINDING AFFINITY PREDICTED BY RF-SCORE:    0.00 PKD
ROOT
HETATM    1  C   UNL     1     -11.543  12.293  69.037  1.00  0.00    -0.316 C  
HETATM    2  O   UNL     1     -12.080  11.121  68.412  1.00  0.00    -0.605 OA 
ENDROOT
BRANCH   2   3
HETATM    3  C   UNL     1     -11.146  10.415  67.669  1.00  0.00    -0.293 A  
HETATM    4  C   UNL     1     -10.756   9.138  68.154  1.00  0.00    -0.131 A  
HETATM    5  N   UNL     1     -11.027   8.652  69.477  1.00  0.00    -0.125 NA 
HETATM    6  C   UNL     1     -10.746   7.328  69.796  1.00  0.00    -0.239 C  
HETATM    7  C   UNL     1     -10.671  10.929  66.425  1.00  0.00    -0.194 A  
HETATM    8  C   UNL     1     -10.163   6.433  69.000  1.00  0.00    -0.216 C  
HETATM    9  F   UNL     1      -9.510  10.433  64.401  1.00  0.00    -0.226 F  
HETATM   10  C   UNL     1      -9.946   5.058  69.501  1.00  0.00    -0.232 C  
HETATM   11  C   UNL     1      -9.955  10.040  65.607  1.00  0.00    -0.285 A  
HETATM   12  C   UNL     1      -9.772   6.894  67.648  1.00  0.00    -0.127 C  
HETATM   13  O   UNL     1      -9.334   4.228  68.621  1.00  0.00    -0.131 OA 
HETATM   14  C   UNL     1     -10.071   8.292  67.262  1.00  0.00    -0.315 A  
HETATM   15  O   UNL     1      -9.225   6.110  66.875  1.00  0.00    -0.122 OA 
HETATM   16  O   UNL     1     -10.222   4.700  70.632  1.00  0.00    -0.217 OA 
HETATM   17  C   UNL     1      -9.682   8.732  65.997  1.00  0.00    -0.276 A  
BRANCH   5  18
HETATM   18  C   UNL     1     -11.333   9.577  70.586  1.00  0.00    -0.301 C  
HETATM   19  C   UNL     1     -12.600   9.510  71.419  1.00  0.00    -0.447 C  
HETATM   20  C   UNL     1     -11.298   9.086  72.018  1.00  0.00    -0.395 C  
ENDBRANCH   5  18
BRANCH   7  21
HETATM   21  N   UNL     1     -10.971  12.242  66.045  1.00  0.00    -0.281 NA 
HETATM   22  C   UNL     1     -12.061  12.527  65.107  1.00  0.00    -0.446 C  
HETATM   23  C   UNL     1     -12.585  13.954  65.403  1.00  0.00    -0.507 C  
HETATM   24  N   UNL     1     -11.544  15.001  65.305  1.00  0.00    -0.302 NA 
HETATM   25  C   UNL     1     -10.390  14.656  66.172  1.00  0.00    -0.300 C  
HETATM   26  H   UNL     1     -11.914  15.928  65.515  1.00  0.00     0.000 HD 
HETATM   27  C   UNL     1      -9.290  15.698  65.994  1.00  0.00    -0.384 C  
HETATM   28  C   UNL     1      -9.850  13.205  65.948  1.00  0.00    -0.233 C  
ENDBRANCH   7  21
ENDBRANCH   2   3
TORSDOF 3
ENDMDL
MODEL       25
REMARK 921   NORMALIZED FREE ENERGY PREDICTED BY IDOCK:   -6.58 KCAL/MOL
REMARK 922        TOTAL FREE ENERGY PREDICTED BY IDOCK:   -7.76 KCAL/MOL
REMARK 923 INTER-LIGAND FREE ENERGY PREDICTED BY IDOCK:   -7.70 KCAL/MOL
REMARK 924 INTRA-LIGAND FREE ENERGY PREDICTED BY IDOCK:   -0.06 KCAL/MOL
REMARK 927      BINDING AFFINITY PREDICTED BY RF-SCORE:    0.00 PKD
ROOT
HETATM    1  C   UNL     1      -9.847  15.003  68.917  1.00  0.00    -0.233 C  
HETATM    2  O   UNL     1     -11.181  14.594  68.592  1.00  0.00    -0.252 OA 
ENDROOT
BRANCH   2   3
HETATM    3  C   UNL     1     -11.442  13.268  68.902  1.00  0.00    -0.298 A  
HETATM    4  C   UNL     1     -10.982  12.282  67.989  1.00  0.00    -0.225 A  
HETATM    5  N   UNL     1     -10.532  12.554  66.653  1.00  0.00    -0.232 NA 
HETATM    6  C   UNL     1      -9.950  11.540  65.901  1.00  0.00    -0.230 C  
HETATM    7  C   UNL     1     -12.073  12.922  70.135  1.00  0.00    -0.302 A  
HETATM    8  C   UNL     1      -9.816  10.266  66.267  1.00  0.00    -0.276 C  
HETATM    9  F   UNL     1     -12.580  11.164  71.664  1.00  0.00    -0.453 F  
HETATM   10  C   UNL     1      -9.161   9.316  65.340  1.00  0.00    -0.222 C  
HETATM   11  C   UNL     1     -12.046  11.566  70.499  1.00  0.00    -0.378 A  
HETATM   12  C   UNL     1     -10.343   9.894  67.600  1.00  0.00    -0.225 C  
HETATM   13  O   UNL     1      -9.085   8.043  65.800  1.00  0.00    -0.147 OA 
HETATM   14  C   UNL     1     -10.953  10.949  68.441  1.00  0.00    -0.288 A  
HETATM   15  O   UNL     1     -10.251   8.730  67.985  1.00  0.00    -0.194 OA 
HETATM   16  O   UNL     1      -8.777   9.618  64.225  1.00  0.00    -0.178 OA 
HETATM   17  C   UNL     1     -11.470  10.593  69.687  1.00  0.00    -0.361 A  
BRANCH   5  18
HETATM   18  C   UNL     1     -10.917  13.796  65.953  1.00  0.00    -0.283 C  
HETATM   19  C   UNL     1     -11.252  13.864  64.475  1.00  0.00    -0.372 C  
HETATM   20  C   UNL     1     -12.343  13.996  65.487  1.00  0.00    -0.503 C  
ENDBRANCH   5  18
BRANCH   7  21
HETATM   21  N   UNL     1     -12.631  13.918  70.943  1.00  0.00    -0.349 NA 
HETATM   22  C   UNL     1     -13.355  15.051  70.355  1.00  0.00    -0.020 C  
HETATM   23  C   UNL     1     -14.383  15.553  71.399  1.00  0.00    -0.250 C  
HETATM   24  N   UNL     1     -13.773  15.953  72.687  1.00  0.00    -0.510 NA 
HETATM   25  C   UNL     1     -12.949  14.843  73.228  1.00  0.00    -0.519 C  
HETATM   26  H   UNL     1     -14.473  16.270  73.358  1.00  0.00     0.000 HD 
HETATM   27  C   UNL     1     -12.258  15.300  74.510  1.00  0.00    -0.582 C  
HETATM   28  C   UNL     1     -11.925  14.265  72.198  1.00  0.00     0.179 C  
ENDBRANCH   7  21
ENDBRANCH   2   3
TORSDOF 3
ENDMDL
MODEL       26
REMARK 921   NORMALIZED FREE ENERGY PREDICTED BY IDOCK:   -6.50 KCAL/MOL
REMARK 922        TOTAL FREE ENERGY PREDICTED BY IDOCK:   -7.67 KCAL/MOL
REMARK 923 INTER-LIGAND FREE ENERGY PREDICTED BY IDOCK:   -6.94 KCAL/MOL
REMARK 924 INTRA-LIGAND FREE ENERGY PREDICTED BY IDOCK:   -0.73 KCAL/MOL
REMARK 927      BINDING AFFINITY PREDICTED BY RF-SCORE:    0.00 PKD
ROOT
HETATM    1  C   UNL     1     -10.838   8.768  67.419  1.00  0.00    -0.017 C  
HETATM    2  O   UNL     1      -9.979   9.325  68.423  1.00  0.00    -0.164 OA 
ENDROOT
BRANCH   2   3
HETATM    3  C   UNL     1     -10.652   9.710  69.572  1.00  0.00    -0.229 A  
HETATM    4  C   UNL     1     -10.991  11.083  69.700  1.00  0.00    -0.225 A  
HETATM    5  N   UNL     1     -10.450  12.136  68.887  1.00  0.00    -0.164 NA 
HETATM    6  C   UNL     1     -10.971  13.421  68.987  1.00  0.00    -0.224 C  
HETATM    7  C   UNL     1     -11.055   8.738  70.537  1.00  0.00    -0.246 A  
HETATM    8  C   UNL     1     -11.913  13.825  69.838  1.00  0.00    -0.412 C  
HETATM    9  F   UNL     1     -12.427   8.297  72.437  1.00  0.00    -0.350 F  
HETATM   10  C   UNL     1     -12.358  15.236  69.802  1.00  0.00    -0.253 C  
HETATM   11  C   UNL     1     -11.966   9.162  71.518  1.00  0.00    -0.352 A  
HETATM   12  C   UNL     1     -12.452  12.809  70.771  1.00  0.00    -0.271 C  
HETATM   13  O   UNL     1     -13.309  15.550  70.715  1.00  0.00    -0.465 OA 
HETATM   14  C   UNL     1     -11.938  11.424  70.685  1.00  0.00    -0.413 A  
HETATM   15  O   UNL     1     -13.318  13.131  71.582  1.00  0.00    -0.370 OA 
HETATM   16  O   UNL     1     -11.873  16.078  69.068  1.00  0.00    -0.362 OA 
HETATM   17  C   UNL     1     -12.429  10.473  71.580  1.00  0.00    -0.493 A  
BRANCH   5  18
HETATM   18  C   UNL     1      -9.180  11.963  68.155  1.00  0.00    -0.187 C  
HETATM   19  C   UNL     1      -9.006  12.266  66.679  1.00  0.00    -0.189 C  
HETATM   20  C   UNL     1      -8.395  13.174  67.697  1.00  0.00    -0.174 C  
ENDBRANCH   5  18
BRANCH   7  21
HETATM   21  N   UNL     1     -10.589   7.422  70.446  1.00  0.00    -0.223 NA 
HETATM   22  C   UNL     1     -11.460   6.344  69.963  1.00  0.00    -0.428 C  
HETATM   23  C   UNL     1     -10.561   5.248  69.339  1.00  0.00    -0.145 C  
HETATM   24  N   UNL     1      -9.551   4.705  70.275  1.00  0.00    -0.180 NA 
HETATM   25  C   UNL     1      -8.742   5.808  70.850  1.00  0.00    -0.134 C  
HETATM   26  H   UNL     1      -8.968   3.993  69.836  1.00  0.00     0.000 HD 
HETATM   27  C   UNL     1      -7.766   5.243  71.877  1.00  0.00    -0.110 C  
HETATM   28  C   UNL     1      -9.602   6.968  71.451  1.00  0.00    -0.162 C  
ENDBRANCH   7  21
ENDBRANCH   2   3
TORSDOF 3
ENDMDL
MODEL       27
REMARK 921   NORMALIZED FREE ENERGY PREDICTED BY IDOCK:   -6.47 KCAL/MOL
REMARK 922        TOTAL FREE ENERGY PREDICTED BY IDOCK:   -7.63 KCAL/MOL
REMARK 923 INTER-LIGAND FREE ENERGY PREDICTED BY IDOCK:   -7.26 KCAL/MOL
REMARK 924 INTRA-LIGAND FREE ENERGY PREDICTED BY IDOCK:   -0.38 KCAL/MOL
REMARK 927      BINDING AFFINITY PREDICTED BY RF-SCORE:    0.00 PKD
ROOT
HETATM    1  C   UNL     1      -8.272  15.071  66.834  1.00  0.00    -0.171 C  
HETATM    2  O   UNL     1      -9.632  15.463  66.611  1.00  0.00    -0.231 OA 
ENDROOT
BRANCH   2   3
HETATM    3  C   UNL     1     -10.325  15.740  67.779  1.00  0.00    -0.275 A  
HETATM    4  C   UNL     1     -10.980  14.655  68.422  1.00  0.00    -0.251 A  
HETATM    5  N   UNL     1     -11.222  13.376  67.818  1.00  0.00    -0.267 NA 
HETATM    6  C   UNL     1     -11.724  12.333  68.589  1.00  0.00    -0.328 C  
HETATM    7  C   UNL     1     -10.299  17.050  68.345  1.00  0.00    -0.351 A  
HETATM    8  C   UNL     1     -12.089  12.405  69.869  1.00  0.00    -0.317 C  
HETATM    9  F   UNL     1     -10.750  18.373  70.277  1.00  0.00     0.513 F  
HETATM   10  C   UNL     1     -12.598  11.189  70.540  1.00  0.00    -0.274 C  
HETATM   11  C   UNL     1     -10.780  17.181  69.658  1.00  0.00     0.076 A  
HETATM   12  C   UNL     1     -11.952  13.723  70.531  1.00  0.00    -0.296 C  
HETATM   13  O   UNL     1     -12.955  11.369  71.836  1.00  0.00    -0.453 OA 
HETATM   14  C   UNL     1     -11.404  14.854  69.750  1.00  0.00    -0.314 A  
HETATM   15  O   UNL     1     -12.281  13.846  71.709  1.00  0.00    -0.204 OA 
HETATM   16  O   UNL     1     -12.757  10.122  69.975  1.00  0.00    -0.066 OA 
HETATM   17  C   UNL     1     -11.297  16.101  70.367  1.00  0.00    -0.377 A  
BRANCH   5  18
HETATM   18  C   UNL     1     -11.219  13.207  66.352  1.00  0.00    -0.300 C  
HETATM   19  C   UNL     1     -11.525  11.897  65.650  1.00  0.00    -0.314 C  
HETATM   20  C   UNL     1     -12.522  13.009  65.605  1.00  0.00    -0.452 C  
ENDBRANCH   5  18
BRANCH   7  21
HETATM   21  N   UNL     1      -9.760  18.119  67.619  1.00  0.00    -0.285 NA 
HETATM   22  C   UNL     1     -10.200  18.399  66.248  1.00  0.00    -0.406 C  
HETATM   23  C   UNL     1      -9.996  19.911  65.982  1.00  0.00    -0.458 C  
HETATM   24  N   UNL     1      -8.600  20.364  66.171  1.00  0.00    -0.560 NA 
HETATM   25  C   UNL     1      -8.117  19.981  67.521  1.00  0.00    -0.316 C  
HETATM   26  H   UNL     1      -8.497  21.364  65.998  1.00  0.00     0.000 HD 
HETATM   27  C   UNL     1      -6.651  20.377  67.668  1.00  0.00    -0.312 C  
HETATM   28  C   UNL     1      -8.343  18.472  67.861  1.00  0.00    -0.265 C  
ENDBRANCH   7  21
ENDBRANCH   2   3
TORSDOF 3
ENDMDL
MODEL       28
REMARK 921   NORMALIZED FREE ENERGY PREDICTED BY IDOCK:   -6.41 KCAL/MOL
REMARK 922        TOTAL FREE ENERGY PREDICTED BY IDOCK:   -7.56 KCAL/MOL
REMARK 923 INTER-LIGAND FREE ENERGY PREDICTED BY IDOCK:   -6.81 KCAL/MOL
REMARK 924 INTRA-LIGAND FREE ENERGY PREDICTED BY IDOCK:   -0.75 KCAL/MOL
REMARK 927      BINDING AFFINITY PREDICTED BY RF-SCORE:    0.00 PKD
ROOT
HETATM    1  C   UNL     1     -10.542   7.940  68.150  1.00  0.00    -0.120 C  
HETATM    2  O   UNL     1      -9.764   8.697  69.086  1.00  0.00    -0.168 OA 
ENDROOT
BRANCH   2   3
HETATM    3  C   UNL     1     -10.440   9.789  69.608  1.00  0.00    -0.242 A  
HETATM    4  C   UNL     1     -10.343  11.017  68.899  1.00  0.00    -0.205 A  
HETATM    5  N   UNL     1      -9.386  11.287  67.864  1.00  0.00    -0.156 NA 
HETATM    6  C   UNL     1      -9.484  12.460  67.124  1.00  0.00    -0.198 C  
HETATM    7  C   UNL     1     -11.264   9.646  70.765  1.00  0.00    -0.336 A  
HETATM    8  C   UNL     1     -10.363  13.443  67.317  1.00  0.00    -0.244 C  
HETATM    9  F   UNL     1     -12.965  10.640  72.109  1.00  0.00    -0.527 F  
HETATM   10  C   UNL     1     -10.330  14.623  66.426  1.00  0.00    -0.289 C  
HETATM   11  C   UNL     1     -12.126  10.715  71.062  1.00  0.00    -0.368 A  
HETATM   12  C   UNL     1     -11.324  13.271  68.431  1.00  0.00    -0.291 C  
HETATM   13  O   UNL     1     -11.255  15.571  66.713  1.00  0.00    -0.265 OA 
HETATM   14  C   UNL     1     -11.266  12.027  69.232  1.00  0.00    -0.291 A  
HETATM   15  O   UNL     1     -12.152  14.150  68.657  1.00  0.00    -0.343 OA 
HETATM   16  O   UNL     1      -9.503  14.781  65.546  1.00  0.00    -0.216 OA 
HETATM   17  C   UNL     1     -12.157  11.876  70.295  1.00  0.00    -0.409 A  
BRANCH   5  18
HETATM   18  C   UNL     1      -8.143  10.499  67.744  1.00  0.00    -0.106 C  
HETATM   19  C   UNL     1      -7.677   9.845  66.457  1.00  0.00    -0.107 C  
HETATM   20  C   UNL     1      -6.963  11.052  66.974  1.00  0.00    -0.117 C  
ENDBRANCH   5  18
BRANCH   7  21
HETATM   21  N   UNL     1     -11.229   8.463  71.512  1.00  0.00    -0.253 NA 
HETATM   22  C   UNL     1     -12.398   7.580  71.582  1.00  0.00    -0.333 C  
HETATM   23  C   UNL     1     -11.893   6.141  71.847  1.00  0.00    -0.257 C  
HETATM   24  N   UNL     1     -11.084   6.013  73.079  1.00  0.00    -0.366 NA 
HETATM   25  C   UNL     1      -9.963   6.985  73.058  1.00  0.00    -0.196 C  
HETATM   26  H   UNL     1     -10.757   5.058  73.224  1.00  0.00     0.000 HD 
HETATM   27  C   UNL     1      -9.192   6.902  74.371  1.00  0.00    -0.244 C  
HETATM   28  C   UNL     1     -10.413   8.451  72.747  1.00  0.00    -0.161 C  
ENDBRANCH   7  21
ENDBRANCH   2   3
TORSDOF 3
ENDMDL
MODEL       29
REMARK 921   NORMALIZED FREE ENERGY PREDICTED BY IDOCK:   -6.39 KCAL/MOL
REMARK 922        TOTAL FREE ENERGY PREDICTED BY IDOCK:   -7.54 KCAL/MOL
REMARK 923 INTER-LIGAND FREE ENERGY PREDICTED BY IDOCK:   -7.26 KCAL/MOL
REMARK 924 INTRA-LIGAND FREE ENERGY PREDICTED BY IDOCK:   -0.28 KCAL/MOL
REMARK 927      BINDING AFFINITY PREDICTED BY RF-SCORE:    0.00 PKD
ROOT
HETATM    1  C   UNL     1     -11.232  10.968  66.293  1.00  0.00     0.065 C  
HETATM    2  O   UNL     1     -10.171  10.927  67.255  1.00  0.00    -0.191 OA 
ENDROOT
BRANCH   2   3
HETATM    3  C   UNL     1     -10.596  10.582  68.529  1.00  0.00    -0.206 A  
HETATM    4  C   UNL     1     -11.220  11.595  69.306  1.00  0.00    -0.265 A  
HETATM    5  N   UNL     1     -11.187  12.996  68.995  1.00  0.00    -0.264 NA 
HETATM    6  C   UNL     1     -11.966  13.884  69.729  1.00  0.00    -0.338 C  
HETATM    7  C   UNL     1     -10.479   9.237  68.993  1.00  0.00    -0.216 A  
HETATM    8  C   UNL     1     -12.724  13.581  70.783  1.00  0.00    -0.316 C  
HETATM    9  F   UNL     1     -11.156   7.656  70.645  1.00  0.00    -0.239 F  
HETATM   10  C   UNL     1     -13.498  14.654  71.444  1.00  0.00    -0.392 C  
HETATM   11  C   UNL     1     -11.179   8.911  70.166  1.00  0.00    -0.160 A  
HETATM   12  C   UNL     1     -12.732  12.164  71.216  1.00  0.00    -0.261 C  
HETATM   13  O   UNL     1     -14.226  14.247  72.513  1.00  0.00    -0.568 OA 
HETATM   14  C   UNL     1     -11.931  11.184  70.449  1.00  0.00    -0.469 A  
HETATM   15  O   UNL     1     -13.409  11.832  72.186  1.00  0.00    -0.497 OA 
HETATM   16  O   UNL     1     -13.446  15.825  71.115  1.00  0.00    -0.575 OA 
HETATM   17  C   UNL     1     -11.921   9.854  70.871  1.00  0.00    -0.434 A  
BRANCH   5  18
HETATM   18  C   UNL     1     -10.149  13.562  68.110  1.00  0.00    -0.250 C  
HETATM   19  C   UNL     1     -10.437  14.536  66.984  1.00  0.00    -0.268 C  
HETATM   20  C   UNL     1      -9.763  15.021  68.226  1.00  0.00    -0.215 C  
ENDBRANCH   5  18
BRANCH   7  21
HETATM   21  N   UNL     1      -9.742   8.301  68.259  1.00  0.00    -0.154 NA 
HETATM   22  C   UNL     1      -8.380   8.602  67.805  1.00  0.00    -0.118 C  
HETATM   23  C   UNL     1      -7.617   7.261  67.667  1.00  0.00    -0.110 C  
HETATM   24  N   UNL     1      -8.262   6.303  66.741  1.00  0.00    -0.109 NA 
HETATM   25  C   UNL     1      -9.676   6.085  67.136  1.00  0.00    -0.131 C  
HETATM   26  H   UNL     1      -7.745   5.427  66.677  1.00  0.00     0.000 HD 
HETATM   27  C   UNL     1     -10.352   5.165  66.124  1.00  0.00    -0.280 C  
HETATM   28  C   UNL     1     -10.482   7.410  67.337  1.00  0.00    -0.296 C  
ENDBRANCH   7  21
ENDBRANCH   2   3
TORSDOF 3
ENDMDL
MODEL       30
REMARK 921   NORMALIZED FREE ENERGY PREDICTED BY IDOCK:   -6.37 KCAL/MOL
REMARK 922        TOTAL FREE ENERGY PREDICTED BY IDOCK:   -7.52 KCAL/MOL
REMARK 923 INTER-LIGAND FREE ENERGY PREDICTED BY IDOCK:   -7.14 KCAL/MOL
REMARK 924 INTRA-LIGAND FREE ENERGY PREDICTED BY IDOCK:   -0.38 KCAL/MOL
REMARK 927      BINDING AFFINITY PREDICTED BY RF-SCORE:    0.00 PKD
ROOT
HETATM    1  C   UNL     1      -9.120   9.017  70.227  1.00  0.00    -0.202 C  
HETATM    2  O   UNL     1     -10.395   8.795  69.613  1.00  0.00    -0.203 OA 
ENDROOT
BRANCH   2   3
HETATM    3  C   UNL     1     -10.605   9.568  68.481  1.00  0.00    -0.212 A  
HETATM    4  C   UNL     1     -11.060  10.899  68.675  1.00  0.00    -0.252 A  
HETATM    5  N   UNL     1     -11.589  11.408  69.909  1.00  0.00    -0.315 NA 
HETATM    6  C   UNL     1     -11.853  12.767  70.038  1.00  0.00    -0.281 C  
HETATM    7  C   UNL     1     -10.288   9.057  67.186  1.00  0.00    -0.272 A  
HETATM    8  C   UNL     1     -11.732  13.687  69.081  1.00  0.00    -0.376 C  
HETATM    9  F   UNL     1      -9.928   9.592  64.890  1.00  0.00    -0.369 F  
HETATM   10  C   UNL     1     -12.050  15.097  69.395  1.00  0.00    -0.260 C  
HETATM   11  C   UNL     1     -10.260   9.985  66.132  1.00  0.00    -0.213 A  
HETATM   12  C   UNL     1     -11.278  13.215  67.753  1.00  0.00    -0.277 C  
HETATM   13  O   UNL     1     -11.908  15.952  68.353  1.00  0.00    -0.322 OA 
HETATM   14  C   UNL     1     -10.967  11.778  67.579  1.00  0.00    -0.310 A  
HETATM   15  O   UNL     1     -11.156  14.021  66.833  1.00  0.00    -0.294 OA 
HETATM   16  O   UNL     1     -12.473  15.469  70.475  1.00  0.00    -0.399 OA 
HETATM   17  C   UNL     1     -10.562  11.330  66.322  1.00  0.00    -0.315 A  
BRANCH   5  18
HETATM   18  C   UNL     1     -12.121  10.503  70.947  1.00  0.00    -0.383 C  
HETATM   19  C   UNL     1     -13.229  10.880  71.912  1.00  0.00    -0.508 C  
HETATM   20  C   UNL     1     -13.510   9.916  70.806  1.00  0.00    -0.094 C  
ENDBRANCH   5  18
BRANCH   7  21
HETATM   21  N   UNL     1      -9.972   7.704  67.021  1.00  0.00    -0.215 NA 
HETATM   22  C   UNL     1     -10.930   6.655  67.385  1.00  0.00    -0.360 C  
HETATM   23  C   UNL     1     -10.633   5.413  66.509  1.00  0.00    -0.289 C  
HETATM   24  N   UNL     1      -9.248   4.908  66.644  1.00  0.00    -0.122 NA 
HETATM   25  C   UNL     1      -8.278   6.000  66.385  1.00  0.00    -0.112 C  
HETATM   26  H   UNL     1      -9.078   4.097  66.050  1.00  0.00     0.000 HD 
HETATM   27  C   UNL     1      -6.860   5.487  66.614  1.00  0.00    -0.063 C  
HETATM   28  C   UNL     1      -8.561   7.298  67.210  1.00  0.00    -0.121 C  
ENDBRANCH   7  21
ENDBRANCH   2   3
TORSDOF 3
ENDMDL
MODEL       31
REMARK 921   NORMALIZED FREE ENERGY PREDICTED BY IDOCK:   -6.34 KCAL/MOL
REMARK 922        TOTAL FREE ENERGY PREDICTED BY IDOCK:   -7.48 KCAL/MOL
REMARK 923 INTER-LIGAND FREE ENERGY PREDICTED BY IDOCK:   -7.08 KCAL/MOL
REMARK 924 INTRA-LIGAND FREE ENERGY PREDICTED BY IDOCK:   -0.40 KCAL/MOL
REMARK 927      BINDING AFFINITY PREDICTED BY RF-SCORE:    0.00 PKD
ROOT
HETATM    1  C   UNL     1     -11.889  10.900  68.198  1.00  0.00    -0.046 C  
HETATM    2  O   UNL     1     -10.806  10.716  67.278  1.00  0.00    -0.269 OA 
ENDROOT
BRANCH   2   3
HETATM    3  C   UNL     1      -9.764  11.611  67.467  1.00  0.00    -0.177 A  
HETATM    4  C   UNL     1      -9.876  12.883  66.844  1.00  0.00    -0.235 A  
HETATM    5  N   UNL     1     -10.825  13.208  65.818  1.00  0.00    -0.272 NA 
HETATM    6  C   UNL     1     -10.959  14.525  65.393  1.00  0.00    -0.342 C  
HETATM    7  C   UNL     1      -8.672  11.282  68.325  1.00  0.00    -0.158 A  
HETATM    8  C   UNL     1     -10.225  15.561  65.798  1.00  0.00    -0.390 C  
HETATM    9  F   UNL     1      -6.785  12.115  69.523  1.00  0.00    -0.107 F  
HETATM   10  C   UNL     1     -10.509  16.904  65.245  1.00  0.00    -0.081 C  
HETATM   11  C   UNL     1      -7.812  12.333  68.684  1.00  0.00    -0.063 A  
HETATM   12  C   UNL     1      -9.163  15.281  66.791  1.00  0.00    -0.250 C  
HETATM   13  O   UNL     1      -9.700  17.887  65.709  1.00  0.00    -0.527 OA 
HETATM   14  C   UNL     1      -9.000  13.895  67.284  1.00  0.00    -0.225 A  
HETATM   15  O   UNL     1      -8.452  16.200  67.193  1.00  0.00    -0.170 OA 
HETATM   16  O   UNL     1     -11.349  17.117  64.389  1.00  0.00    -1.115 OA 
HETATM   17  C   UNL     1      -7.984  13.627  68.201  1.00  0.00    -0.148 A  
BRANCH   5  18
HETATM   18  C   UNL     1     -11.465  12.155  65.005  1.00  0.00    -0.323 C  
HETATM   19  C   UNL     1     -11.976  12.369  63.592  1.00  0.00    -0.626 C  
HETATM   20  C   UNL     1     -10.738  11.563  63.816  1.00  0.00    -0.474 C  
ENDBRANCH   5  18
BRANCH   7  21
HETATM   21  N   UNL     1      -8.528   9.978  68.811  1.00  0.00    -0.120 NA 
HETATM   22  C   UNL     1      -8.424   8.837  67.895  1.00  0.00    -0.126 C  
HETATM   23  C   UNL     1      -7.623   7.722  68.611  1.00  0.00    -0.105 C  
HETATM   24  N   UNL     1      -8.222   7.291  69.894  1.00  0.00    -0.131 NA 
HETATM   25  C   UNL     1      -8.429   8.463  70.780  1.00  0.00    -0.139 C  
HETATM   26  H   UNL     1      -7.669   6.564  70.348  1.00  0.00     0.000 HD 
HETATM   27  C   UNL     1      -9.126   8.017  72.061  1.00  0.00    -0.217 C  
HETATM   28  C   UNL     1      -9.193   9.641  70.090  1.00  0.00    -0.246 C  
ENDBRANCH   7  21
ENDBRANCH   2   3
TORSDOF 3
ENDMDL
MODEL       32
REMARK 921   NORMALIZED FREE ENERGY PREDICTED BY IDOCK:   -6.31 KCAL/MOL
REMARK 922        TOTAL FREE ENERGY PREDICTED BY IDOCK:   -7.44 KCAL/MOL
REMARK 923 INTER-LIGAND FREE ENERGY PREDICTED BY IDOCK:   -6.84 KCAL/MOL
REMARK 924 INTRA-LIGAND FREE ENERGY PREDICTED BY IDOCK:   -0.60 KCAL/MOL
REMARK 927      BINDING AFFINITY PREDICTED BY RF-SCORE:    0.00 PKD
ROOT
HETATM    1  C   UNL     1      -9.583  15.995  69.677  1.00  0.00    -0.120 C  
HETATM    2  O   UNL     1      -8.630  16.113  68.614  1.00  0.00    -0.187 OA 
ENDROOT
BRANCH   2   3
HETATM    3  C   UNL     1      -9.144  15.769  67.373  1.00  0.00    -0.197 A  
HETATM    4  C   UNL     1      -9.169  14.389  67.036  1.00  0.00    -0.234 A  
HETATM    5  N   UNL     1      -8.452  13.365  67.743  1.00  0.00    -0.167 NA 
HETATM    6  C   UNL     1      -8.675  12.028  67.432  1.00  0.00    -0.170 C  
HETATM    7  C   UNL     1      -9.700  16.767  66.516  1.00  0.00    -0.283 A  
HETATM    8  C   UNL     1      -9.462  11.566  66.461  1.00  0.00    -0.220 C  
HETATM    9  F   UNL     1     -11.038  17.186  64.587  1.00  0.00    -0.407 F  
HETATM   10  C   UNL     1      -9.589  10.104  66.273  1.00  0.00    -0.193 C  
HETATM   11  C   UNL     1     -10.446  16.310  65.417  1.00  0.00    -0.343 A  
HETATM   12  C   UNL     1     -10.162  12.573  65.631  1.00  0.00    -0.267 C  
HETATM   13  O   UNL     1     -10.402   9.736  65.252  1.00  0.00    -0.111 OA 
HETATM   14  C   UNL     1      -9.967  14.007  65.941  1.00  0.00    -0.325 A  
HETATM   15  O   UNL     1     -10.895  12.200  64.717  1.00  0.00    -0.285 OA 
HETATM   16  O   UNL     1      -8.970   9.283  66.926  1.00  0.00    -0.128 OA 
HETATM   17  C   UNL     1     -10.609  14.955  65.144  1.00  0.00    -0.450 A  
BRANCH   5  18
HETATM   18  C   UNL     1      -7.289  13.689  68.591  1.00  0.00    -0.113 C  
HETATM   19  C   UNL     1      -6.373  12.648  69.205  1.00  0.00    -0.109 C  
HETATM   20  C   UNL     1      -5.883  13.484  68.068  1.00  0.00    -0.130 C  
ENDBRANCH   5  18
BRANCH   7  21
HETATM   21  N   UNL     1      -9.538  18.123  66.819  1.00  0.00    -0.289 NA 
HETATM   22  C   UNL     1     -10.700  18.994  67.029  1.00  0.00    -0.432 C  
HETATM   23  C   UNL     1     -10.267  20.147  67.968  1.00  0.00    -0.353 C  
HETATM   24  N   UNL     1      -9.126  20.936  67.452  1.00  0.00    -0.479 NA 
HETATM   25  C   UNL     1      -7.987  20.040  67.134  1.00  0.00    -0.316 C  
HETATM   26  H   UNL     1      -8.857  21.682  68.094  1.00  0.00     0.000 HD 
HETATM   27  C   UNL     1      -6.853  20.856  66.522  1.00  0.00    -0.281 C  
HETATM   28  C   UNL     1      -8.379  18.828  66.226  1.00  0.00    -0.246 C  
ENDBRANCH   7  21
ENDBRANCH   2   3
TORSDOF 3
ENDMDL
MODEL       33
REMARK 921   NORMALIZED FREE ENERGY PREDICTED BY IDOCK:   -6.30 KCAL/MOL
REMARK 922        TOTAL FREE ENERGY PREDICTED BY IDOCK:   -7.43 KCAL/MOL
REMARK 923 INTER-LIGAND FREE ENERGY PREDICTED BY IDOCK:   -7.05 KCAL/MOL
REMARK 924 INTRA-LIGAND FREE ENERGY PREDICTED BY IDOCK:   -0.38 KCAL/MOL
REMARK 927      BINDING AFFINITY PREDICTED BY RF-SCORE:    0.00 PKD
ROOT
HETATM    1  C   UNL     1      -8.910   9.552  70.386  1.00  0.00    -0.234 C  
HETATM    2  O   UNL     1      -9.973   9.438  69.432  1.00  0.00    -0.170 OA 
ENDROOT
BRANCH   2   3
HETATM    3  C   UNL     1     -10.293  10.638  68.816  1.00  0.00    -0.193 A  
HETATM    4  C   UNL     1     -11.208  11.492  69.487  1.00  0.00    -0.236 A  
HETATM    5  N   UNL     1     -12.036  11.094  70.590  1.00  0.00    -0.362 NA 
HETATM    6  C   UNL     1     -12.774  12.050  71.278  1.00  0.00    -0.279 C  
HETATM    7  C   UNL     1      -9.653  11.021  67.598  1.00  0.00    -0.168 A  
HETATM    8  C   UNL     1     -12.862  13.345  70.976  1.00  0.00    -0.329 C  
HETATM    9  F   UNL     1      -9.212  12.807  66.080  1.00  0.00    -0.226 F  
HETATM   10  C   UNL     1     -13.693  14.227  71.825  1.00  0.00    -0.412 C  
HETATM   11  C   UNL     1      -9.816  12.355  67.192  1.00  0.00    -0.205 A  
HETATM   12  C   UNL     1     -12.104  13.809  69.791  1.00  0.00    -0.340 C  
HETATM   13  O   UNL     1     -13.727  15.523  71.427  1.00  0.00    -0.503 OA 
HETATM   14  C   UNL     1     -11.289  12.826  69.042  1.00  0.00    -0.346 A  
HETATM   15  O   UNL     1     -12.155  14.992  69.464  1.00  0.00    -0.302 OA 
HETATM   16  O   UNL     1     -14.355  13.829  72.766  1.00  0.00    -0.596 OA 
HETATM   17  C   UNL     1     -10.594  13.258  67.912  1.00  0.00    -0.246 A  
BRANCH   5  18
HETATM   18  C   UNL     1     -12.345   9.673  70.843  1.00  0.00    -0.263 C  
HETATM   19  C   UNL     1     -12.142   8.988  72.181  1.00  0.00    -0.412 C  
HETATM   20  C   UNL     1     -13.527   9.294  71.710  1.00  0.00    -0.483 C  
ENDBRANCH   5  18
BRANCH   7  21
HETATM   21  N   UNL     1      -8.863  10.101  66.899  1.00  0.00    -0.132 NA 
HETATM   22  C   UNL     1      -9.369   8.763  66.576  1.00  0.00    -0.203 C  
HETATM   23  C   UNL     1      -8.640   8.273  65.301  1.00  0.00    -0.132 C  
HETATM   24  N   UNL     1      -7.166   8.241  65.434  1.00  0.00    -0.070 NA 
HETATM   25  C   UNL     1      -6.664   9.568  65.870  1.00  0.00    -0.082 C  
HETATM   26  H   UNL     1      -6.712   7.924  64.578  1.00  0.00     0.000 HD 
HETATM   27  C   UNL     1      -5.156   9.496  66.088  1.00  0.00    -0.035 C  
HETATM   28  C   UNL     1      -7.401  10.133  67.129  1.00  0.00    -0.091 C  
ENDBRANCH   7  21
ENDBRANCH   2   3
TORSDOF 3
ENDMDL
MODEL       34
REMARK 921   NORMALIZED FREE ENERGY PREDICTED BY IDOCK:   -6.25 KCAL/MOL
REMARK 922        TOTAL FREE ENERGY PREDICTED BY IDOCK:   -7.38 KCAL/MOL
REMARK 923 INTER-LIGAND FREE ENERGY PREDICTED BY IDOCK:   -7.15 KCAL/MOL
REMARK 924 INTRA-LIGAND FREE ENERGY PREDICTED BY IDOCK:   -0.23 KCAL/MOL
REMARK 927      BINDING AFFINITY PREDICTED BY RF-SCORE:    0.00 PKD
ROOT
HETATM    1  C   UNL     1     -10.569   7.040  67.860  1.00  0.00    -0.218 C  
HETATM    2  O   UNL     1      -9.645   8.023  68.343  1.00  0.00    -0.147 OA 
ENDROOT
BRANCH   2   3
HETATM    3  C   UNL     1     -10.244   9.231  68.664  1.00  0.00    -0.199 A  
HETATM    4  C   UNL     1     -10.511  10.131  67.598  1.00  0.00    -0.245 A  
HETATM    5  N   UNL     1      -9.958  10.018  66.278  1.00  0.00    -0.232 NA 
HETATM    6  C   UNL     1     -10.412  10.856  65.266  1.00  0.00    -0.230 C  
HETATM    7  C   UNL     1     -10.647   9.507  70.006  1.00  0.00    -0.244 A  
HETATM    8  C   UNL     1     -11.292  11.847  65.400  1.00  0.00    -0.334 C  
HETATM    9  F   UNL     1     -11.949  10.916  71.423  1.00  0.00    -0.389 F  
HETATM   10  C   UNL     1     -11.669  12.640  64.209  1.00  0.00    -0.381 C  
HETATM   11  C   UNL     1     -11.490  10.614  70.197  1.00  0.00    -0.329 A  
HETATM   12  C   UNL     1     -11.835  12.081  66.758  1.00  0.00    -0.164 C  
HETATM   13  O   UNL     1     -12.560  13.632  64.452  1.00  0.00    -0.624 OA 
HETATM   14  C   UNL     1     -11.392  11.197  67.860  1.00  0.00    -0.378 A  
HETATM   15  O   UNL     1     -12.646  12.987  66.939  1.00  0.00    -0.194 OA 
HETATM   16  O   UNL     1     -11.180  12.476  63.106  1.00  0.00    -0.388 OA 
HETATM   17  C   UNL     1     -11.886  11.433  69.143  1.00  0.00    -0.413 A  
BRANCH   5  18
HETATM   18  C   UNL     1      -8.733   9.233  66.024  1.00  0.00    -0.153 C  
HETATM   19  C   UNL     1      -7.793   9.486  64.861  1.00  0.00    -0.119 C  
HETATM   20  C   UNL     1      -7.371   9.856  66.246  1.00  0.00    -0.102 C  
ENDBRANCH   5  18
BRANCH   7  21
HETATM   21  N   UNL     1     -10.250   8.661  71.048  1.00  0.00    -0.206 NA 
HETATM   22  C   UNL     1      -8.860   8.642  71.517  1.00  0.00    -0.219 C  
HETATM   23  C   UNL     1      -8.864   8.200  73.001  1.00  0.00    -0.248 C  
HETATM   24  N   UNL     1      -9.496   6.880  73.226  1.00  0.00    -0.147 NA 
HETATM   25  C   UNL     1     -10.864   6.864  72.651  1.00  0.00    -0.257 C  
HETATM   26  H   UNL     1      -9.493   6.619  74.211  1.00  0.00     0.000 HD 
HETATM   27  C   UNL     1     -11.468   5.472  72.813  1.00  0.00    -0.339 C  
HETATM   28  C   UNL     1     -10.924   7.348  71.165  1.00  0.00    -0.246 C  
ENDBRANCH   7  21
ENDBRANCH   2   3
TORSDOF 3
ENDMDL
MODEL       35
REMARK 921   NORMALIZED FREE ENERGY PREDICTED BY IDOCK:   -6.21 KCAL/MOL
REMARK 922        TOTAL FREE ENERGY PREDICTED BY IDOCK:   -7.33 KCAL/MOL
REMARK 923 INTER-LIGAND FREE ENERGY PREDICTED BY IDOCK:   -7.17 KCAL/MOL
REMARK 924 INTRA-LIGAND FREE ENERGY PREDICTED BY IDOCK:   -0.15 KCAL/MOL
REMARK 927      BINDING AFFINITY PREDICTED BY RF-SCORE:    0.00 PKD
ROOT
HETATM    1  C   UNL     1     -12.214  11.404  69.311  1.00  0.00    -0.204 C  
HETATM    2  O   UNL     1     -11.772  11.005  68.007  1.00  0.00    -0.532 OA 
ENDROOT
BRANCH   2   3
HETATM    3  C   UNL     1     -10.395  11.055  67.853  1.00  0.00    -0.186 A  
HETATM    4  C   UNL     1      -9.833  12.279  67.403  1.00  0.00    -0.198 A  
HETATM    5  N   UNL     1     -10.584  13.358  66.827  1.00  0.00    -0.276 NA 
HETATM    6  C   UNL     1      -9.960  14.574  66.571  1.00  0.00    -0.280 C  
HETATM    7  C   UNL     1      -9.584   9.938  68.219  1.00  0.00    -0.140 A  
HETATM    8  C   UNL     1      -8.666  14.846  66.741  1.00  0.00    -0.278 C  
HETATM    9  F   UNL     1      -7.372   9.176  68.680  1.00  0.00    -0.072 F  
HETATM   10  C   UNL     1      -8.169  16.203  66.423  1.00  0.00    -0.301 C  
HETATM   11  C   UNL     1      -8.200  10.164  68.301  1.00  0.00    -0.110 A  
HETATM   12  C   UNL     1      -7.812  13.746  67.246  1.00  0.00    -0.097 C  
HETATM   13  O   UNL     1      -6.838  16.374  66.617  1.00  0.00    -0.199 OA 
HETATM   14  C   UNL     1      -8.442  12.442  67.550  1.00  0.00    -0.175 A  
HETATM   15  O   UNL     1      -6.610  13.942  67.415  1.00  0.00    -0.270 OA 
HETATM   16  O   UNL     1      -8.867  17.086  65.959  1.00  0.00    -0.477 OA 
HETATM   17  C   UNL     1      -7.633  11.400  68.004  1.00  0.00    -0.110 A  
BRANCH   5  18
HETATM   18  C   UNL     1     -11.922  13.135  66.243  1.00  0.00    -0.415 C  
HETATM   19  C   UNL     1     -12.478  13.928  65.075  1.00  0.00    -0.447 C  
HETATM   20  C   UNL     1     -12.059  12.508  64.872  1.00  0.00    -0.499 C  
ENDBRANCH   5  18
BRANCH   7  21
HETATM   21  N   UNL     1     -10.177   8.710  68.529  1.00  0.00    -0.192 NA 
HETATM   22  C   UNL     1     -10.777   7.875  67.483  1.00  0.00    -0.181 C  
HETATM   23  C   UNL     1     -10.711   6.401  67.952  1.00  0.00    -0.299 C  
HETATM   24  N   UNL     1     -11.387   6.159  69.247  1.00  0.00    -0.453 NA 
HETATM   25  C   UNL     1     -10.856   7.082  70.281  1.00  0.00    -0.254 C  
HETATM   26  H   UNL     1     -11.320   5.183  69.536  1.00  0.00     0.000 HD 
HETATM   27  C   UNL     1     -11.623   6.881  71.584  1.00  0.00    -0.325 C  
HETATM   28  C   UNL     1     -10.855   8.582  69.839  1.00  0.00    -0.205 C  
ENDBRANCH   7  21
ENDBRANCH   2   3
TORSDOF 3
ENDMDL
MODEL       36
REMARK 921   NORMALIZED FREE ENERGY PREDICTED BY IDOCK:   -6.20 KCAL/MOL
REMARK 922        TOTAL FREE ENERGY PREDICTED BY IDOCK:   -7.31 KCAL/MOL
REMARK 923 INTER-LIGAND FREE ENERGY PREDICTED BY IDOCK:   -6.55 KCAL/MOL
REMARK 924 INTRA-LIGAND FREE ENERGY PREDICTED BY IDOCK:   -0.76 KCAL/MOL
REMARK 927      BINDING AFFINITY PREDICTED BY RF-SCORE:    0.00 PKD
ROOT
HETATM    1  C   UNL     1     -12.398  10.680  69.982  1.00  0.00    -0.269 C  
HETATM    2  O   UNL     1     -10.970  10.643  69.864  1.00  0.00    -0.270 OA 
ENDROOT
BRANCH   2   3
HETATM    3  C   UNL     1     -10.525   9.885  68.792  1.00  0.00    -0.213 A  
HETATM    4  C   UNL     1     -10.246   8.514  69.034  1.00  0.00    -0.207 A  
HETATM    5  N   UNL     1     -10.112   7.927  70.338  1.00  0.00    -0.193 NA 
HETATM    6  C   UNL     1     -10.001   6.547  70.465  1.00  0.00    -0.184 C  
HETATM    7  C   UNL     1     -10.438  10.456  67.487  1.00  0.00    -0.245 A  
HETATM    8  C   UNL     1      -9.932   5.667  69.466  1.00  0.00    -0.263 C  
HETATM    9  F   UNL     1     -10.206  10.016  65.154  1.00  0.00    -0.388 F  
HETATM   10  C   UNL     1      -9.823   4.226  69.784  1.00  0.00    -0.187 C  
HETATM   11  C   UNL     1     -10.254   9.563  66.418  1.00  0.00    -0.232 A  
HETATM   12  C   UNL     1      -9.972   6.213  68.090  1.00  0.00    -0.142 C  
HETATM   13  O   UNL     1      -9.746   3.415  68.700  1.00  0.00    -0.116 OA 
HETATM   14  C   UNL     1     -10.108   7.676  67.911  1.00  0.00    -0.231 A  
HETATM   15  O   UNL     1      -9.904   5.445  67.132  1.00  0.00    -0.135 OA 
HETATM   16  O   UNL     1      -9.738   3.789  70.917  1.00  0.00    -0.180 OA 
HETATM   17  C   UNL     1     -10.122   8.191  66.615  1.00  0.00    -0.344 A  
BRANCH   5  18
HETATM   18  C   UNL     1      -9.810   8.753  71.523  1.00  0.00    -0.301 C  
HETATM   19  C   UNL     1      -9.747   8.211  72.939  1.00  0.00    -0.340 C  
HETATM   20  C   UNL     1      -8.485   8.600  72.240  1.00  0.00    -0.149 C  
ENDBRANCH   5  18
BRANCH   7  21
HETATM   21  N   UNL     1     -10.590  11.836  67.310  1.00  0.00    -0.217 NA 
HETATM   22  C   UNL     1     -11.783  12.387  66.659  1.00  0.00    -0.372 C  
HETATM   23  C   UNL     1     -12.001  13.822  67.198  1.00  0.00    -0.405 C  
HETATM   24  N   UNL     1     -10.843  14.719  66.983  1.00  0.00    -0.308 NA 
HETATM   25  C   UNL     1      -9.613  14.109  67.545  1.00  0.00    -0.223 C  
HETATM   26  H   UNL     1     -11.010  15.653  67.356  1.00  0.00     0.000 HD 
HETATM   27  C   UNL     1      -8.415  15.003  67.239  1.00  0.00    -0.220 C  
HETATM   28  C   UNL     1      -9.370  12.639  67.070  1.00  0.00    -0.220 C  
ENDBRANCH   7  21
ENDBRANCH   2   3
TORSDOF 3
ENDMDL
MODEL       37
REMARK 921   NORMALIZED FREE ENERGY PREDICTED BY IDOCK:   -6.18 KCAL/MOL
REMARK 922        TOTAL FREE ENERGY PREDICTED BY IDOCK:   -7.29 KCAL/MOL
REMARK 923 INTER-LIGAND FREE ENERGY PREDICTED BY IDOCK:   -6.83 KCAL/MOL
REMARK 924 INTRA-LIGAND FREE ENERGY PREDICTED BY IDOCK:   -0.46 KCAL/MOL
REMARK 927      BINDING AFFINITY PREDICTED BY RF-SCORE:    0.00 PKD
ROOT
HETATM    1  C   UNL     1      -8.796  15.815  69.441  1.00  0.00    -0.237 C  
HETATM    2  O   UNL     1      -8.055  15.872  68.216  1.00  0.00    -0.139 OA 
ENDROOT
BRANCH   2   3
HETATM    3  C   UNL     1      -8.812  16.291  67.133  1.00  0.00    -0.193 A  
HETATM    4  C   UNL     1      -9.500  15.292  66.393  1.00  0.00    -0.298 A  
HETATM    5  N   UNL     1      -9.249  13.882  66.497  1.00  0.00    -0.239 NA 
HETATM    6  C   UNL     1     -10.089  12.983  65.851  1.00  0.00    -0.288 C  
HETATM    7  C   UNL     1      -8.951  17.681  66.839  1.00  0.00    -0.246 A  
HETATM    8  C   UNL     1     -11.109  13.293  65.052  1.00  0.00    -0.327 C  
HETATM    9  F   UNL     1     -10.172  19.324  65.615  1.00  0.00    -0.415 F  
HETATM   10  C   UNL     1     -11.908  12.202  64.450  1.00  0.00    -0.358 C  
HETATM   11  C   UNL     1      -9.948  18.034  65.914  1.00  0.00    -0.107 A  
HETATM   12  C   UNL     1     -11.369  14.733  64.826  1.00  0.00    -0.397 C  
HETATM   13  O   UNL     1     -12.914  12.621  63.642  1.00  0.00    -0.704 OA 
HETATM   14  C   UNL     1     -10.509  15.724  65.511  1.00  0.00    -0.425 A  
HETATM   15  O   UNL     1     -12.294  15.074  64.091  1.00  0.00    -0.659 OA 
HETATM   16  O   UNL     1     -11.656  11.020  64.598  1.00  0.00     0.190 OA 
HETATM   17  C   UNL     1     -10.739  17.080  65.279  1.00  0.00    -0.108 A  
BRANCH   5  18
HETATM   18  C   UNL     1      -7.973  13.369  67.034  1.00  0.00     0.042 C  
HETATM   19  C   UNL     1      -7.872  12.430  68.222  1.00  0.00    -0.150 C  
HETATM   20  C   UNL     1      -7.599  11.914  66.846  1.00  0.00    -0.093 C  
ENDBRANCH   5  18
BRANCH   7  21
HETATM   21  N   UNL     1      -8.156  18.623  67.501  1.00  0.00    -0.247 NA 
HETATM   22  C   UNL     1      -8.567  19.183  68.793  1.00  0.00    -0.335 C  
HETATM   23  C   UNL     1      -7.288  19.602  69.560  1.00  0.00    -0.124 C  
HETATM   24  N   UNL     1      -6.448  20.575  68.827  1.00  0.00    -0.278 NA 
HETATM   25  C   UNL     1      -6.125  20.055  67.475  1.00  0.00    -0.189 C  
HETATM   26  H   UNL     1      -5.609  20.825  69.349  1.00  0.00     0.000 HD 
HETATM   27  C   UNL     1      -5.334  21.105  66.701  1.00  0.00    -0.273 C  
HETATM   28  C   UNL     1      -7.378  19.572  66.673  1.00  0.00    -0.240 C  
ENDBRANCH   7  21
ENDBRANCH   2   3
TORSDOF 3
ENDMDL
MODEL       38
REMARK 921   NORMALIZED FREE ENERGY PREDICTED BY IDOCK:   -6.13 KCAL/MOL
REMARK 922        TOTAL FREE ENERGY PREDICTED BY IDOCK:   -7.23 KCAL/MOL
REMARK 923 INTER-LIGAND FREE ENERGY PREDICTED BY IDOCK:   -7.27 KCAL/MOL
REMARK 924 INTRA-LIGAND FREE ENERGY PREDICTED BY IDOCK:    0.04 KCAL/MOL
REMARK 927      BINDING AFFINITY PREDICTED BY RF-SCORE:    0.00 PKD
ROOT
HETATM    1  C   UNL     1     -12.161  12.569  67.864  1.00  0.00    -0.058 C  
HETATM    2  O   UNL     1     -11.793  11.194  68.032  1.00  0.00    -0.582 OA 
ENDROOT
BRANCH   2   3
HETATM    3  C   UNL     1     -10.484  11.021  68.455  1.00  0.00    -0.180 A  
HETATM    4  C   UNL     1     -10.274  10.242  69.624  1.00  0.00    -0.235 A  
HETATM    5  N   UNL     1     -11.305   9.868  70.550  1.00  0.00    -0.302 NA 
HETATM    6  C   UNL     1     -11.022   8.968  71.572  1.00  0.00    -0.348 C  
HETATM    7  C   UNL     1      -9.399  11.540  67.686  1.00  0.00    -0.171 A  
HETATM    8  C   UNL     1      -9.829   8.440  71.847  1.00  0.00    -0.328 C  
HETATM    9  F   UNL     1      -7.043  11.493  67.321  1.00  0.00    -0.093 F  
HETATM   10  C   UNL     1      -9.708   7.488  72.973  1.00  0.00    -0.225 C  
HETATM   11  C   UNL     1      -8.113  11.086  68.023  1.00  0.00    -0.121 A  
HETATM   12  C   UNL     1      -8.698   8.855  70.986  1.00  0.00    -0.224 C  
HETATM   13  O   UNL     1      -8.453   7.017  73.180  1.00  0.00    -0.115 OA 
HETATM   14  C   UNL     1      -8.963   9.796  69.874  1.00  0.00    -0.254 A  
HETATM   15  O   UNL     1      -7.576   8.402  71.200  1.00  0.00    -0.070 OA 
HETATM   16  O   UNL     1     -10.631   7.192  73.710  1.00  0.00    -0.377 OA 
HETATM   17  C   UNL     1      -7.892  10.205  69.078  1.00  0.00    -0.107 A  
BRANCH   5  18
HETATM   18  C   UNL     1     -12.577  10.614  70.624  1.00  0.00    -0.365 C  
HETATM   19  C   UNL     1     -13.410  10.743  71.886  1.00  0.00    -0.445 C  
HETATM   20  C   UNL     1     -12.648  11.925  71.378  1.00  0.00    -0.346 C  
ENDBRANCH   5  18
BRANCH   7  21
HETATM   21  N   UNL     1      -9.646  12.412  66.620  1.00  0.00    -0.224 NA 
HETATM   22  C   UNL     1      -9.670  11.925  65.237  1.00  0.00    -0.192 C  
HETATM   23  C   UNL     1     -10.591  12.863  64.418  1.00  0.00    -0.396 C  
HETATM   24  N   UNL     1     -10.172  14.283  64.451  1.00  0.00    -0.631 NA 
HETATM   25  C   UNL     1     -10.040  14.744  65.855  1.00  0.00    -0.321 C  
HETATM   26  H   UNL     1     -10.801  14.878  63.912  1.00  0.00     0.000 HD 
HETATM   27  C   UNL     1      -9.524  16.179  65.873  1.00  0.00    -0.337 C  
HETATM   28  C   UNL     1      -9.157  13.804  66.741  1.00  0.00    -0.221 C  
ENDBRANCH   7  21
ENDBRANCH   2   3
TORSDOF 3
ENDMDL
MODEL       39
REMARK 921   NORMALIZED FREE ENERGY PREDICTED BY IDOCK:   -6.11 KCAL/MOL
REMARK 922        TOTAL FREE ENERGY PREDICTED BY IDOCK:   -7.21 KCAL/MOL
REMARK 923 INTER-LIGAND FREE ENERGY PREDICTED BY IDOCK:   -6.48 KCAL/MOL
REMARK 924 INTRA-LIGAND FREE ENERGY PREDICTED BY IDOCK:   -0.73 KCAL/MOL
REMARK 927      BINDING AFFINITY PREDICTED BY RF-SCORE:    0.00 PKD
ROOT
HETATM    1  C   UNL     1     -11.993  12.553  66.462  1.00  0.00    -0.296 C  
HETATM    2  O   UNL     1     -11.614  12.904  67.799  1.00  0.00    -0.300 OA 
ENDROOT
BRANCH   2   3
HETATM    3  C   UNL     1     -10.283  12.642  68.082  1.00  0.00    -0.240 A  
HETATM    4  C   UNL     1      -9.974  11.381  68.660  1.00  0.00    -0.202 A  
HETATM    5  N   UNL     1     -10.941  10.489  69.232  1.00  0.00    -0.227 NA 
HETATM    6  C   UNL     1     -10.555   9.211  69.623  1.00  0.00    -0.228 C  
HETATM    7  C   UNL     1      -9.267  13.578  67.720  1.00  0.00    -0.213 A  
HETATM    8  C   UNL     1      -9.317   8.718  69.590  1.00  0.00    -0.158 C  
HETATM    9  F   UNL     1      -6.927  13.928  67.415  1.00  0.00    -0.174 F  
HETATM   10  C   UNL     1      -9.085   7.328  70.038  1.00  0.00    -0.148 C  
HETATM   11  C   UNL     1      -7.939  13.123  67.780  1.00  0.00    -0.162 A  
HETATM   12  C   UNL     1      -8.251   9.620  69.095  1.00  0.00    -0.120 C  
HETATM   13  O   UNL     1      -7.792   6.926  69.979  1.00  0.00    -0.106 OA 
HETATM   14  C   UNL     1      -8.624  10.982  68.651  1.00  0.00    -0.157 A  
HETATM   15  O   UNL     1      -7.091   9.217  69.050  1.00  0.00    -0.065 OA 
HETATM   16  O   UNL     1      -9.958   6.611  70.493  1.00  0.00    -0.179 OA 
HETATM   17  C   UNL     1      -7.616  11.838  68.207  1.00  0.00    -0.122 A  
BRANCH   5  18
HETATM   18  C   UNL     1     -12.264  10.973  69.676  1.00  0.00    -0.300 C  
HETATM   19  C   UNL     1     -13.007  10.422  70.879  1.00  0.00    -0.475 C  
HETATM   20  C   UNL     1     -12.390  11.782  70.949  1.00  0.00    -0.420 C  
ENDBRANCH   5  18
BRANCH   7  21
HETATM   21  N   UNL     1      -9.615  14.859  67.278  1.00  0.00    -0.212 NA 
HETATM   22  C   UNL     1      -9.594  15.197  65.851  1.00  0.00    -0.338 C  
HETATM   23  C   UNL     1     -10.618  16.334  65.615  1.00  0.00    -0.346 C  
HETATM   24  N   UNL     1     -10.360  17.543  66.429  1.00  0.00    -0.349 NA 
HETATM   25  C   UNL     1     -10.271  17.183  67.865  1.00  0.00    -0.330 C  
HETATM   26  H   UNL     1     -11.054  18.271  66.261  1.00  0.00     0.000 HD 
HETATM   27  C   UNL     1      -9.918  18.423  68.681  1.00  0.00    -0.415 C  
HETATM   28  C   UNL     1      -9.284  16.005  68.155  1.00  0.00    -0.195 C  
ENDBRANCH   7  21
ENDBRANCH   2   3
TORSDOF 3
ENDMDL
MODEL       40
REMARK 921   NORMALIZED FREE ENERGY PREDICTED BY IDOCK:   -6.04 KCAL/MOL
REMARK 922        TOTAL FREE ENERGY PREDICTED BY IDOCK:   -7.13 KCAL/MOL
REMARK 923 INTER-LIGAND FREE ENERGY PREDICTED BY IDOCK:   -6.40 KCAL/MOL
REMARK 924 INTRA-LIGAND FREE ENERGY PREDICTED BY IDOCK:   -0.73 KCAL/MOL
REMARK 927      BINDING AFFINITY PREDICTED BY RF-SCORE:    0.00 PKD
ROOT
HETATM    1  C   UNL     1     -12.743  11.111  70.339  1.00  0.00    -0.168 C  
HETATM    2  O   UNL     1     -11.311  11.166  70.337  1.00  0.00    -0.251 OA 
ENDROOT
BRANCH   2   3
HETATM    3  C   UNL     1     -10.745  10.748  69.142  1.00  0.00    -0.227 A  
HETATM    4  C   UNL     1     -10.459   9.364  69.003  1.00  0.00    -0.217 A  
HETATM    5  N   UNL     1     -10.440   8.423  70.088  1.00  0.00    -0.222 NA 
HETATM    6  C   UNL     1     -10.310   7.065  69.820  1.00  0.00    -0.212 C  
HETATM    7  C   UNL     1     -10.545  11.673  68.073  1.00  0.00    -0.202 A  
HETATM    8  C   UNL     1     -10.123   6.513  68.622  1.00  0.00    -0.175 C  
HETATM    9  F   UNL     1     -10.075  11.927  65.748  1.00  0.00    -0.233 F  
HETATM   10  C   UNL     1     -10.012   5.041  68.518  1.00  0.00    -0.139 C  
HETATM   11  C   UNL     1     -10.237  11.127  66.816  1.00  0.00    -0.232 A  
HETATM   12  C   UNL     1     -10.040   7.435  67.466  1.00  0.00    -0.192 C  
HETATM   13  O   UNL     1      -9.810   4.579  67.260  1.00  0.00    -0.189 OA 
HETATM   14  C   UNL     1     -10.193   8.887  67.706  1.00  0.00    -0.283 A  
HETATM   15  O   UNL     1      -9.862   6.978  66.339  1.00  0.00    -0.140 OA 
HETATM   16  O   UNL     1     -10.028   4.293  69.479  1.00  0.00    -0.200 OA 
HETATM   17  C   UNL     1     -10.092   9.757  66.619  1.00  0.00    -0.303 A  
BRANCH   5  18
HETATM   18  C   UNL     1     -10.274   8.868  71.486  1.00  0.00    -0.328 C  
HETATM   19  C   UNL     1     -10.793   8.098  72.686  1.00  0.00    -0.429 C  
HETATM   20  C   UNL     1      -9.325   8.136  72.410  1.00  0.00    -0.308 C  
ENDBRANCH   5  18
BRANCH   7  21
HETATM   21  N   UNL     1     -10.711  13.045  68.289  1.00  0.00    -0.237 NA 
HETATM   22  C   UNL     1     -11.940  13.731  67.876  1.00  0.00    -0.356 C  
HETATM   23  C   UNL     1     -12.133  14.961  68.799  1.00  0.00    -0.177 C  
HETATM   24  N   UNL     1     -10.992  15.903  68.777  1.00  0.00    -0.281 NA 
HETATM   25  C   UNL     1      -9.730  15.186  69.086  1.00  0.00    -0.232 C  
HETATM   26  H   UNL     1     -11.141  16.697  69.400  1.00  0.00     0.000 HD 
HETATM   27  C   UNL     1      -8.554  16.151  68.974  1.00  0.00    -0.251 C  
HETATM   28  C   UNL     1      -9.509  13.906  68.214  1.00  0.00    -0.217 C  
ENDBRANCH   7  21
ENDBRANCH   2   3
TORSDOF 3
ENDMDL
MODEL       41
REMARK 921   NORMALIZED FREE ENERGY PREDICTED BY IDOCK:   -6.00 KCAL/MOL
REMARK 922        TOTAL FREE ENERGY PREDICTED BY IDOCK:   -7.08 KCAL/MOL
REMARK 923 INTER-LIGAND FREE ENERGY PREDICTED BY IDOCK:   -6.33 KCAL/MOL
REMARK 924 INTRA-LIGAND FREE ENERGY PREDICTED BY IDOCK:   -0.75 KCAL/MOL
REMARK 927      BINDING AFFINITY PREDICTED BY RF-SCORE:    0.00 PKD
ROOT
HETATM    1  C   UNL     1     -11.392  11.110  68.019  1.00  0.00    -0.312 C  
HETATM    2  O   UNL     1     -10.498  11.182  66.901  1.00  0.00    -0.224 OA 
ENDROOT
BRANCH   2   3
HETATM    3  C   UNL     1      -9.389  11.982  67.132  1.00  0.00    -0.187 A  
HETATM    4  C   UNL     1      -9.459  13.334  66.704  1.00  0.00    -0.260 A  
HETATM    5  N   UNL     1     -10.453  13.855  65.808  1.00  0.00    -0.298 NA 
HETATM    6  C   UNL     1     -10.528  15.225  65.583  1.00  0.00    -0.358 C  
HETATM    7  C   UNL     1      -8.265  11.472  67.849  1.00  0.00    -0.134 A  
HETATM    8  C   UNL     1      -9.702  16.150  66.071  1.00  0.00    -0.376 C  
HETATM    9  F   UNL     1      -6.250  12.018  69.003  1.00  0.00    -0.059 F  
HETATM   10  C   UNL     1      -9.935  17.572  65.734  1.00  0.00    -0.042 C  
HETATM   11  C   UNL     1      -7.315  12.411  68.284  1.00  0.00    -0.113 A  
HETATM   12  C   UNL     1      -8.595  15.672  66.931  1.00  0.00    -0.248 C  
HETATM   13  O   UNL     1      -9.033  18.432  66.268  1.00  0.00    -0.403 OA 
HETATM   14  C   UNL     1      -8.491  14.222  67.211  1.00  0.00    -0.226 A  
HETATM   15  O   UNL     1      -7.800  16.482  67.402  1.00  0.00    -0.145 OA 
HETATM   16  O   UNL     1     -10.815  17.952  64.984  1.00  0.00    -0.767 OA 
HETATM   17  C   UNL     1      -7.434  13.769  68.002  1.00  0.00    -0.139 A  
BRANCH   5  18
HETATM   18  C   UNL     1     -11.215  12.968  64.908  1.00  0.00    -0.302 C  
HETATM   19  C   UNL     1     -12.730  12.936  64.833  1.00  0.00    -0.474 C  
HETATM   20  C   UNL     1     -11.947  13.541  63.713  1.00  0.00    -0.475 C  
ENDBRANCH   5  18
BRANCH   7  21
HETATM   21  N   UNL     1      -8.174  10.106  68.136  1.00  0.00    -0.112 NA 
HETATM   22  C   UNL     1      -8.221   9.620  69.519  1.00  0.00    -0.136 C  
HETATM   23  C   UNL     1      -8.777   8.175  69.499  1.00  0.00    -0.142 C  
HETATM   24  N   UNL     1      -7.986   7.247  68.660  1.00  0.00    -0.122 NA 
HETATM   25  C   UNL     1      -7.844   7.793  67.287  1.00  0.00    -0.117 C  
HETATM   26  H   UNL     1      -8.379   6.306  68.657  1.00  0.00     0.000 HD 
HETATM   27  C   UNL     1      -6.955   6.869  66.461  1.00  0.00    -0.066 C  
HETATM   28  C   UNL     1      -7.331   9.270  67.252  1.00  0.00    -0.091 C  
ENDBRANCH   7  21
ENDBRANCH   2   3
TORSDOF 3
ENDMDL
MODEL       42
REMARK 921   NORMALIZED FREE ENERGY PREDICTED BY IDOCK:   -5.99 KCAL/MOL
REMARK 922        TOTAL FREE ENERGY PREDICTED BY IDOCK:   -7.07 KCAL/MOL
REMARK 923 INTER-LIGAND FREE ENERGY PREDICTED BY IDOCK:   -6.27 KCAL/MOL
REMARK 924 INTRA-LIGAND FREE ENERGY PREDICTED BY IDOCK:   -0.80 KCAL/MOL
REMARK 927      BINDING AFFINITY PREDICTED BY RF-SCORE:    0.00 PKD
ROOT
HETATM    1  C   UNL     1     -10.948   6.106  68.210  1.00  0.00    -0.308 C  
HETATM    2  O   UNL     1      -9.785   6.882  68.523  1.00  0.00    -0.138 OA 
ENDROOT
BRANCH   2   3
HETATM    3  C   UNL     1     -10.037   7.924  69.401  1.00  0.00    -0.196 A  
HETATM    4  C   UNL     1     -10.374   9.185  68.839  1.00  0.00    -0.214 A  
HETATM    5  N   UNL     1     -10.193   9.535  67.458  1.00  0.00    -0.212 NA 
HETATM    6  C   UNL     1     -10.706  10.735  66.979  1.00  0.00    -0.265 C  
HETATM    7  C   UNL     1     -10.038   7.701  70.811  1.00  0.00    -0.189 A  
HETATM    8  C   UNL     1     -11.315  11.676  67.700  1.00  0.00    -0.362 C  
HETATM    9  F   UNL     1     -10.651   8.572  72.945  1.00  0.00    -0.369 F  
HETATM   10  C   UNL     1     -11.808  12.895  67.023  1.00  0.00    -0.374 C  
HETATM   11  C   UNL     1     -10.574   8.723  71.612  1.00  0.00    -0.331 A  
HETATM   12  C   UNL     1     -11.453  11.420  69.153  1.00  0.00    -0.299 C  
HETATM   13  O   UNL     1     -12.399  13.796  67.845  1.00  0.00    -0.245 OA 
HETATM   14  C   UNL     1     -10.937  10.145  69.700  1.00  0.00    -0.305 A  
HETATM   15  O   UNL     1     -12.000  12.258  69.866  1.00  0.00    -0.324 OA 
HETATM   16  O   UNL     1     -11.644  13.122  65.838  1.00  0.00    -0.326 OA 
HETATM   17  C   UNL     1     -11.047   9.915  71.072  1.00  0.00    -0.401 A  
BRANCH   5  18
HETATM   18  C   UNL     1      -9.247   8.799  66.598  1.00  0.00    -0.177 C  
HETATM   19  C   UNL     1      -8.737   9.315  65.265  1.00  0.00    -0.214 C  
HETATM   20  C   UNL     1      -7.821   9.284  66.445  1.00  0.00    -0.103 C  
ENDBRANCH   5  18
BRANCH   7  21
HETATM   21  N   UNL     1      -9.573   6.488  71.332  1.00  0.00    -0.165 NA 
HETATM   22  C   UNL     1     -10.505   5.489  71.868  1.00  0.00    -0.225 C  
HETATM   23  C   UNL     1      -9.848   4.095  71.717  1.00  0.00    -0.182 C  
HETATM   24  N   UNL     1      -8.536   3.981  72.393  1.00  0.00    -0.101 NA 
HETATM   25  C   UNL     1      -7.629   5.061  71.932  1.00  0.00    -0.102 C  
HETATM   26  H   UNL     1      -8.122   3.057  72.270  1.00  0.00     0.000 HD 
HETATM   27  C   UNL     1      -6.313   4.984  72.700  1.00  0.00    -0.039 C  
HETATM   28  C   UNL     1      -8.261   6.489  72.017  1.00  0.00    -0.107 C  
ENDBRANCH   7  21
ENDBRANCH   2   3
TORSDOF 3
ENDMDL
MODEL       43
REMARK 921   NORMALIZED FREE ENERGY PREDICTED BY IDOCK:   -5.98 KCAL/MOL
REMARK 922        TOTAL FREE ENERGY PREDICTED BY IDOCK:   -7.05 KCAL/MOL
REMARK 923 INTER-LIGAND FREE ENERGY PREDICTED BY IDOCK:   -6.29 KCAL/MOL
REMARK 924 INTRA-LIGAND FREE ENERGY PREDICTED BY IDOCK:   -0.76 KCAL/MOL
REMARK 927      BINDING AFFINITY PREDICTED BY RF-SCORE:    0.00 PKD
ROOT
HETATM    1  C   UNL     1      -7.855   9.611  67.453  1.00  0.00    -0.095 C  
HETATM    2  O   UNL     1      -7.981  10.423  68.626  1.00  0.00    -0.102 OA 
ENDROOT
BRANCH   2   3
HETATM    3  C   UNL     1      -9.195  11.088  68.709  1.00  0.00    -0.162 A  
HETATM    4  C   UNL     1      -9.261  12.398  68.165  1.00  0.00    -0.205 A  
HETATM    5  N   UNL     1      -8.118  13.188  67.803  1.00  0.00    -0.150 NA 
HETATM    6  C   UNL     1      -8.297  14.391  67.129  1.00  0.00    -0.191 C  
HETATM    7  C   UNL     1     -10.345  10.433  69.246  1.00  0.00    -0.230 A  
HETATM    8  C   UNL     1      -9.464  14.957  66.825  1.00  0.00    -0.269 C  
HETATM    9  F   UNL     1     -12.718  10.488  69.474  1.00  0.00    -0.285 F  
HETATM   10  C   UNL     1      -9.470  16.243  66.092  1.00  0.00    -0.339 C  
HETATM   11  C   UNL     1     -11.583  11.061  69.038  1.00  0.00    -0.323 A  
HETATM   12  C   UNL     1     -10.687  14.239  67.251  1.00  0.00    -0.277 C  
HETATM   13  O   UNL     1     -10.706  16.742  65.843  1.00  0.00    -0.274 OA 
HETATM   14  C   UNL     1     -10.541  12.946  67.955  1.00  0.00    -0.238 A  
HETATM   15  O   UNL     1     -11.790  14.721  67.002  1.00  0.00    -0.362 OA 
HETATM   16  O   UNL     1      -8.461  16.853  65.791  1.00  0.00    -0.492 OA 
HETATM   17  C   UNL     1     -11.693  12.281  68.377  1.00  0.00    -0.390 A  
BRANCH   5  18
HETATM   18  C   UNL     1      -6.782  12.907  68.365  1.00  0.00    -0.092 C  
HETATM   19  C   UNL     1      -5.529  13.679  67.996  1.00  0.00    -0.116 C  
HETATM   20  C   UNL     1      -6.148  13.873  69.342  1.00  0.00    -0.104 C  
ENDBRANCH   5  18
BRANCH   7  21
HETATM   21  N   UNL     1     -10.214   9.199  69.892  1.00  0.00    -0.195 NA 
HETATM   22  C   UNL     1     -10.649   7.957  69.244  1.00  0.00    -0.188 C  
HETATM   23  C   UNL     1      -9.804   6.795  69.823  1.00  0.00    -0.166 C  
HETATM   24  N   UNL     1      -9.904   6.664  71.294  1.00  0.00    -0.177 NA 
HETATM   25  C   UNL     1      -9.571   7.954  71.946  1.00  0.00    -0.173 C  
HETATM   26  H   UNL     1      -9.331   5.898  71.648  1.00  0.00     0.000 HD 
HETATM   27  C   UNL     1      -9.763   7.828  73.454  1.00  0.00    -0.353 C  
HETATM   28  C   UNL     1     -10.362   9.172  71.365  1.00  0.00    -0.338 C  
ENDBRANCH   7  21
ENDBRANCH   2   3
TORSDOF 3
ENDMDL
MODEL       44
REMARK 921   NORMALIZED FREE ENERGY PREDICTED BY IDOCK:   -5.91 KCAL/MOL
REMARK 922        TOTAL FREE ENERGY PREDICTED BY IDOCK:   -6.98 KCAL/MOL
REMARK 923 INTER-LIGAND FREE ENERGY PREDICTED BY IDOCK:   -6.92 KCAL/MOL
REMARK 924 INTRA-LIGAND FREE ENERGY PREDICTED BY IDOCK:   -0.06 KCAL/MOL
REMARK 927      BINDING AFFINITY PREDICTED BY RF-SCORE:    0.00 PKD
ROOT
HETATM    1  C   UNL     1     -10.721  16.437  65.204  1.00  0.00    -0.291 C  
HETATM    2  O   UNL     1      -9.602  15.545  65.123  1.00  0.00    -0.224 OA 
ENDROOT
BRANCH   2   3
HETATM    3  C   UNL     1      -9.145  15.121  66.361  1.00  0.00    -0.296 A  
HETATM    4  C   UNL     1      -9.417  13.776  66.731  1.00  0.00    -0.275 A  
HETATM    5  N   UNL     1     -10.360  12.923  66.066  1.00  0.00    -0.277 NA 
HETATM    6  C   UNL     1     -10.430  11.576  66.405  1.00  0.00    -0.250 C  
HETATM    7  C   UNL     1      -8.360  15.987  67.180  1.00  0.00    -0.199 A  
HETATM    8  C   UNL     1      -9.739  10.970  67.370  1.00  0.00    -0.189 C  
HETATM    9  F   UNL     1      -6.911  16.137  69.069  1.00  0.00    -0.134 F  
HETATM   10  C   UNL     1      -9.933   9.520  67.591  1.00  0.00    -0.180 C  
HETATM   11  C   UNL     1      -7.704  15.398  68.274  1.00  0.00    -0.115 A  
HETATM   12  C   UNL     1      -8.812  11.813  68.160  1.00  0.00    -0.169 C  
HETATM   13  O   UNL     1      -9.196   9.001  68.603  1.00  0.00    -0.136 OA 
HETATM   14  C   UNL     1      -8.694  13.248  67.817  1.00  0.00    -0.194 A  
HETATM   15  O   UNL     1      -8.156  11.305  69.066  1.00  0.00    -0.127 OA 
HETATM   16  O   UNL     1     -10.736   8.844  66.973  1.00  0.00    -0.248 OA 
HETATM   17  C   UNL     1      -7.838  14.047  68.577  1.00  0.00    -0.140 A  
BRANCH   5  18
HETATM   18  C   UNL     1     -11.445  13.480  65.234  1.00  0.00    -0.299 C  
HETATM   19  C   UNL     1     -11.702  13.075  63.795  1.00  0.00    -0.547 C  
HETATM   20  C   UNL     1     -12.639  12.625  64.868  1.00  0.00    -0.525 C  
ENDBRANCH   5  18
BRANCH   7  21
HETATM   21  N   UNL     1      -8.226  17.339  66.847  1.00  0.00    -0.214 NA 
HETATM   22  C   UNL     1      -6.955  17.871  66.343  1.00  0.00    -0.249 C  
HETATM   23  C   UNL     1      -7.270  19.103  65.460  1.00  0.00    -0.098 C  
HETATM   24  N   UNL     1      -8.021  20.164  66.167  1.00  0.00    -0.491 NA 
HETATM   25  C   UNL     1      -9.253  19.602  66.773  1.00  0.00    -0.359 C  
HETATM   26  H   UNL     1      -8.223  20.958  65.560  1.00  0.00     0.000 HD 
HETATM   27  C   UNL     1      -9.970  20.686  67.571  1.00  0.00    -0.428 C  
HETATM   28  C   UNL     1      -8.998  18.324  67.638  1.00  0.00    -0.266 C  
ENDBRANCH   7  21
ENDBRANCH   2   3
TORSDOF 3
ENDMDL
MODEL       45
REMARK 921   NORMALIZED FREE ENERGY PREDICTED BY IDOCK:   -5.87 KCAL/MOL
REMARK 922        TOTAL FREE ENERGY PREDICTED BY IDOCK:   -6.93 KCAL/MOL
REMARK 923 INTER-LIGAND FREE ENERGY PREDICTED BY IDOCK:   -7.68 KCAL/MOL
REMARK 924 INTRA-LIGAND FREE ENERGY PREDICTED BY IDOCK:    0.75 KCAL/MOL
REMARK 927      BINDING AFFINITY PREDICTED BY RF-SCORE:    0.00 PKD
ROOT
HETATM    1  C   UNL     1     -10.968  14.376  67.506  1.00  0.00    -0.293 C  
HETATM    2  O   UNL     1     -11.918  13.303  67.497  1.00  0.00    -0.356 OA 
ENDROOT
BRANCH   2   3
HETATM    3  C   UNL     1     -11.368  12.076  67.835  1.00  0.00    -0.305 A  
HETATM    4  C   UNL     1     -10.792  11.308  66.787  1.00  0.00    -0.282 A  
HETATM    5  N   UNL     1     -10.988  11.562  65.388  1.00  0.00    -0.260 NA 
HETATM    6  C   UNL     1     -10.250  10.852  64.448  1.00  0.00    -0.358 C  
HETATM    7  C   UNL     1     -11.314  11.657  69.198  1.00  0.00    -0.283 A  
HETATM    8  C   UNL     1      -9.389   9.867  64.704  1.00  0.00    -0.338 C  
HETATM    9  F   UNL     1     -10.360  10.118  70.751  1.00  0.00    -0.331 F  
HETATM   10  C   UNL     1      -8.680   9.222  63.577  1.00  0.00    -0.169 C  
HETATM   11  C   UNL     1     -10.499  10.549  69.486  1.00  0.00    -0.235 A  
HETATM   12  C   UNL     1      -9.206   9.490  66.124  1.00  0.00    -0.177 C  
HETATM   13  O   UNL     1      -7.837   8.224  63.940  1.00  0.00    -0.133 OA 
HETATM   14  C   UNL     1      -9.960  10.235  67.158  1.00  0.00    -0.243 A  
HETATM   15  O   UNL     1      -8.429   8.583  66.415  1.00  0.00    -0.110 OA 
HETATM   16  O   UNL     1      -8.874   9.502  62.408  1.00  0.00    -0.213 OA 
HETATM   17  C   UNL     1      -9.805   9.863  68.494  1.00  0.00    -0.168 A  
BRANCH   5  18
HETATM   18  C   UNL     1     -12.140  12.349  64.906  1.00  0.00    -0.407 C  
HETATM   19  C   UNL     1     -12.025  13.514  63.941  1.00  0.00    -0.491 C  
HETATM   20  C   UNL     1     -12.603  12.219  63.470  1.00  0.00    -0.589 C  
ENDBRANCH   5  18
BRANCH   7  21
HETATM   21  N   UNL     1     -12.006  12.372  70.182  1.00  0.00    -0.339 NA 
HETATM   22  C   UNL     1     -13.261  11.861  70.744  1.00  0.00     0.454 C  
HETATM   23  C   UNL     1     -13.408  12.430  72.177  1.00  0.00    -0.403 C  
HETATM   24  N   UNL     1     -13.390  13.909  72.233  1.00  0.00    -0.457 NA 
HETATM   25  C   UNL     1     -12.172  14.430  71.565  1.00  0.00    -0.334 C  
HETATM   26  H   UNL     1     -13.479  14.256  73.188  1.00  0.00     0.000 HD 
HETATM   27  C   UNL     1     -12.210  15.955  71.554  1.00  0.00    -0.525 C  
HETATM   28  C   UNL     1     -11.948  13.850  70.130  1.00  0.00    -0.332 C  
ENDBRANCH   7  21
ENDBRANCH   2   3
TORSDOF 3
ENDMDL
MODEL       46
REMARK 921   NORMALIZED FREE ENERGY PREDICTED BY IDOCK:   -5.83 KCAL/MOL
REMARK 922        TOTAL FREE ENERGY PREDICTED BY IDOCK:   -6.88 KCAL/MOL
REMARK 923 INTER-LIGAND FREE ENERGY PREDICTED BY IDOCK:   -6.49 KCAL/MOL
REMARK 924 INTRA-LIGAND FREE ENERGY PREDICTED BY IDOCK:   -0.39 KCAL/MOL
REMARK 927      BINDING AFFINITY PREDICTED BY RF-SCORE:    0.00 PKD
ROOT
HETATM    1  C   UNL     1      -7.769  15.924  66.758  1.00  0.00    -0.210 C  
HETATM    2  O   UNL     1      -9.112  15.646  66.343  1.00  0.00    -0.265 OA 
ENDROOT
BRANCH   2   3
HETATM    3  C   UNL     1      -9.964  15.348  67.395  1.00  0.00    -0.229 A  
HETATM    4  C   UNL     1     -10.322  13.985  67.578  1.00  0.00    -0.245 A  
HETATM    5  N   UNL     1     -10.111  12.949  66.606  1.00  0.00    -0.241 NA 
HETATM    6  C   UNL     1     -10.349  11.623  66.950  1.00  0.00    -0.220 C  
HETATM    7  C   UNL     1     -10.385  16.369  68.299  1.00  0.00    -0.279 A  
HETATM    8  C   UNL     1     -10.839  11.186  68.109  1.00  0.00    -0.266 C  
HETATM    9  F   UNL     1     -11.394  16.841  70.408  1.00  0.00    -0.311 F  
HETATM   10  C   UNL     1     -11.023   9.731  68.309  1.00  0.00    -0.164 C  
HETATM   11  C   UNL     1     -11.007  15.945  69.485  1.00  0.00    -0.311 A  
HETATM   12  C   UNL     1     -11.167  12.211  69.126  1.00  0.00    -0.244 C  
HETATM   13  O   UNL     1     -11.539   9.389  69.515  1.00  0.00     0.058 OA 
HETATM   14  C   UNL     1     -10.911  13.633  68.807  1.00  0.00    -0.279 A  
HETATM   15  O   UNL     1     -11.629  11.862  70.211  1.00  0.00    -0.249 OA 
HETATM   16  O   UNL     1     -10.800   8.898  67.449  1.00  0.00    -0.218 OA 
HETATM   17  C   UNL     1     -11.242  14.600  69.757  1.00  0.00    -0.296 A  
BRANCH   5  18
HETATM   18  C   UNL     1      -9.918  13.266  65.177  1.00  0.00    -0.153 C  
HETATM   19  C   UNL     1     -10.164  12.280  64.051  1.00  0.00    -0.399 C  
HETATM   20  C   UNL     1     -11.115  13.413  64.262  1.00  0.00    -0.396 C  
ENDBRANCH   5  18
BRANCH   7  21
HETATM   21  N   UNL     1     -10.124  17.714  68.012  1.00  0.00    -0.324 NA 
HETATM   22  C   UNL     1      -9.667  18.634  69.059  1.00  0.00    -0.259 C  
HETATM   23  C   UNL     1      -8.844  19.756  68.381  1.00  0.00    -0.253 C  
HETATM   24  N   UNL     1      -9.594  20.498  67.343  1.00  0.00    -0.444 NA 
HETATM   25  C   UNL     1     -10.151  19.555  66.343  1.00  0.00    -0.455 C  
HETATM   26  H   UNL     1      -9.025  21.224  66.907  1.00  0.00     0.000 HD 
HETATM   27  C   UNL     1     -10.993  20.325  65.330  1.00  0.00     0.182 C  
HETATM   28  C   UNL     1     -10.954  18.372  66.978  1.00  0.00    -0.021 C  
ENDBRANCH   7  21
ENDBRANCH   2   3
TORSDOF 3
ENDMDL
MODEL       47
REMARK 921   NORMALIZED FREE ENERGY PREDICTED BY IDOCK:   -5.80 KCAL/MOL
REMARK 922        TOTAL FREE ENERGY PREDICTED BY IDOCK:   -6.84 KCAL/MOL
REMARK 923 INTER-LIGAND FREE ENERGY PREDICTED BY IDOCK:   -6.47 KCAL/MOL
REMARK 924 INTRA-LIGAND FREE ENERGY PREDICTED BY IDOCK:   -0.37 KCAL/MOL
REMARK 927      BINDING AFFINITY PREDICTED BY RF-SCORE:    0.00 PKD
ROOT
HETATM    1  C   UNL     1      -7.460  10.438  67.719  1.00  0.00    -0.088 C  
HETATM    2  O   UNL     1      -8.646   9.872  67.148  1.00  0.00    -0.125 OA 
ENDROOT
BRANCH   2   3
HETATM    3  C   UNL     1      -9.767  10.014  67.951  1.00  0.00    -0.146 A  
HETATM    4  C   UNL     1      -9.968   9.044  68.969  1.00  0.00    -0.185 A  
HETATM    5  N   UNL     1      -9.276   7.789  69.047  1.00  0.00    -0.144 NA 
HETATM    6  C   UNL     1      -9.429   6.986  70.172  1.00  0.00    -0.162 C  
HETATM    7  C   UNL     1     -10.626  11.144  67.802  1.00  0.00    -0.209 A  
HETATM    8  C   UNL     1     -10.235   7.224  71.206  1.00  0.00    -0.198 C  
HETATM    9  F   UNL     1     -12.382  12.428  68.780  1.00  0.00    -0.271 F  
HETATM   10  C   UNL     1     -10.267   6.261  72.329  1.00  0.00    -0.187 C  
HETATM   11  C   UNL     1     -11.565  11.362  68.824  1.00  0.00    -0.313 A  
HETATM   12  C   UNL     1     -11.049   8.460  71.149  1.00  0.00    -0.256 C  
HETATM   13  O   UNL     1     -11.128   6.587  73.325  1.00  0.00    -0.226 OA 
HETATM   14  C   UNL     1     -10.902   9.352  69.977  1.00  0.00    -0.271 A  
HETATM   15  O   UNL     1     -11.815   8.724  72.074  1.00  0.00    -0.333 OA 
HETATM   16  O   UNL     1      -9.634   5.221  72.345  1.00  0.00    -0.149 OA 
HETATM   17  C   UNL     1     -11.687  10.504  69.913  1.00  0.00    -0.372 A  
BRANCH   5  18
HETATM   18  C   UNL     1      -8.630   7.195  67.860  1.00  0.00    -0.123 C  
HETATM   19  C   UNL     1      -8.554   5.703  67.596  1.00  0.00    -0.108 C  
HETATM   20  C   UNL     1      -9.470   6.553  66.777  1.00  0.00    -0.188 C  
ENDBRANCH   5  18
BRANCH   7  21
HETATM   21  N   UNL     1     -10.475  12.004  66.708  1.00  0.00    -0.210 NA 
HETATM   22  C   UNL     1     -10.477  11.486  65.336  1.00  0.00    -0.281 C  
HETATM   23  C   UNL     1     -10.975  12.616  64.401  1.00  0.00    -0.351 C  
HETATM   24  N   UNL     1     -10.164  13.851  64.478  1.00  0.00    -0.683 NA 
HETATM   25  C   UNL     1     -10.069  14.314  65.885  1.00  0.00    -0.326 C  
HETATM   26  H   UNL     1     -10.519  14.581  63.860  1.00  0.00     0.000 HD 
HETATM   27  C   UNL     1      -9.159  15.535  65.960  1.00  0.00    -0.316 C  
HETATM   28  C   UNL     1      -9.616  13.196  66.882  1.00  0.00    -0.248 C  
ENDBRANCH   7  21
ENDBRANCH   2   3
TORSDOF 3
ENDMDL
MODEL       48
REMARK 921   NORMALIZED FREE ENERGY PREDICTED BY IDOCK:   -5.77 KCAL/MOL
REMARK 922        TOTAL FREE ENERGY PREDICTED BY IDOCK:   -6.81 KCAL/MOL
REMARK 923 INTER-LIGAND FREE ENERGY PREDICTED BY IDOCK:   -6.48 KCAL/MOL
REMARK 924 INTRA-LIGAND FREE ENERGY PREDICTED BY IDOCK:   -0.33 KCAL/MOL
REMARK 927      BINDING AFFINITY PREDICTED BY RF-SCORE:    0.00 PKD
ROOT
HETATM    1  C   UNL     1     -12.195  10.632  70.018  1.00  0.00    -0.298 C  
HETATM    2  O   UNL     1     -10.776  10.646  69.815  1.00  0.00    -0.256 OA 
ENDROOT
BRANCH   2   3
HETATM    3  C   UNL     1     -10.360   9.839  68.768  1.00  0.00    -0.208 A  
HETATM    4  C   UNL     1     -10.095   8.475  69.061  1.00  0.00    -0.199 A  
HETATM    5  N   UNL     1      -9.944   7.940  70.385  1.00  0.00    -0.191 NA 
HETATM    6  C   UNL     1      -9.849   6.565  70.566  1.00  0.00    -0.179 C  
HETATM    7  C   UNL     1     -10.290  10.355  67.439  1.00  0.00    -0.228 A  
HETATM    8  C   UNL     1      -9.809   5.644  69.603  1.00  0.00    -0.243 C  
HETATM    9  F   UNL     1     -10.106   9.817  65.122  1.00  0.00    -0.387 F  
HETATM   10  C   UNL     1      -9.714   4.216  69.977  1.00  0.00    -0.212 C  
HETATM   11  C   UNL     1     -10.137   9.417  66.405  1.00  0.00    -0.262 A  
HETATM   12  C   UNL     1      -9.867   6.134  68.207  1.00  0.00    -0.125 C  
HETATM   13  O   UNL     1      -9.666   3.361  68.926  1.00  0.00    -0.112 OA 
HETATM   14  C   UNL     1      -9.989   7.590  67.971  1.00  0.00    -0.204 A  
HETATM   15  O   UNL     1      -9.827   5.328  67.280  1.00  0.00    -0.140 OA 
HETATM   16  O   UNL     1      -9.614   3.824  71.126  1.00  0.00    -0.154 OA 
HETATM   17  C   UNL     1     -10.019   8.053  66.655  1.00  0.00    -0.326 A  
BRANCH   5  18
HETATM   18  C   UNL     1      -9.610   8.809  71.530  1.00  0.00    -0.284 C  
HETATM   19  C   UNL     1      -9.479   8.315  72.958  1.00  0.00    -0.298 C  
HETATM   20  C   UNL     1      -8.254   8.704  72.196  1.00  0.00    -0.129 C  
ENDBRANCH   5  18
BRANCH   7  21
HETATM   21  N   UNL     1     -10.428  11.729  67.209  1.00  0.00    -0.209 NA 
HETATM   22  C   UNL     1      -9.707  12.707  68.030  1.00  0.00    -0.215 C  
HETATM   23  C   UNL     1      -9.496  13.982  67.177  1.00  0.00    -0.241 C  
HETATM   24  N   UNL     1     -10.755  14.572  66.670  1.00  0.00    -0.300 NA 
HETATM   25  C   UNL     1     -11.538  13.550  65.932  1.00  0.00    -0.335 C  
HETATM   26  H   UNL     1     -10.587  15.404  66.104  1.00  0.00     0.000 HD 
HETATM   27  C   UNL     1     -12.871  14.147  65.492  1.00  0.00    -0.404 C  
HETATM   28  C   UNL     1     -11.740  12.220  66.731  1.00  0.00    -0.342 C  
ENDBRANCH   7  21
ENDBRANCH   2   3
TORSDOF 3
ENDMDL
MODEL       49
REMARK 921   NORMALIZED FREE ENERGY PREDICTED BY IDOCK:   -5.72 KCAL/MOL
REMARK 922        TOTAL FREE ENERGY PREDICTED BY IDOCK:   -6.75 KCAL/MOL
REMARK 923 INTER-LIGAND FREE ENERGY PREDICTED BY IDOCK:   -5.97 KCAL/MOL
REMARK 924 INTRA-LIGAND FREE ENERGY PREDICTED BY IDOCK:   -0.78 KCAL/MOL
REMARK 927      BINDING AFFINITY PREDICTED BY RF-SCORE:    0.00 PKD
ROOT
HETATM    1  C   UNL     1     -10.636   8.137  67.243  1.00  0.00    -0.273 C  
HETATM    2  O   UNL     1     -10.783   9.342  68.005  1.00  0.00    -0.232 OA 
ENDROOT
BRANCH   2   3
HETATM    3  C   UNL     1      -9.602   9.775  68.586  1.00  0.00    -0.151 A  
HETATM    4  C   UNL     1      -9.325   9.335  69.908  1.00  0.00    -0.198 A  
HETATM    5  N   UNL     1     -10.287   8.726  70.783  1.00  0.00    -0.201 NA 
HETATM    6  C   UNL     1      -9.872   8.184  71.994  1.00  0.00    -0.232 C  
HETATM    7  C   UNL     1      -8.672  10.560  67.840  1.00  0.00    -0.126 A  
HETATM    8  C   UNL     1      -8.637   8.227  72.495  1.00  0.00    -0.273 C  
HETATM    9  F   UNL     1      -6.445  11.407  67.734  1.00  0.00    -0.058 F  
HETATM   10  C   UNL     1      -8.369   7.589  73.802  1.00  0.00    -0.177 C  
HETATM   11  C   UNL     1      -7.391  10.718  68.394  1.00  0.00    -0.092 A  
HETATM   12  C   UNL     1      -7.611   8.923  71.685  1.00  0.00    -0.013 C  
HETATM   13  O   UNL     1      -7.087   7.699  74.229  1.00  0.00    -0.106 OA 
HETATM   14  C   UNL     1      -8.008   9.497  70.379  1.00  0.00    -0.200 A  
HETATM   15  O   UNL     1      -6.458   8.997  72.103  1.00  0.00    -0.223 OA 
HETATM   16  O   UNL     1      -9.229   7.064  74.487  1.00  0.00    -0.214 OA 
HETATM   17  C   UNL     1      -7.046  10.172  69.627  1.00  0.00    -0.115 A  
BRANCH   5  18
HETATM   18  C   UNL     1     -11.737   8.901  70.568  1.00  0.00    -0.111 C  
HETATM   19  C   UNL     1     -12.796   8.506  71.580  1.00  0.00    -0.366 C  
HETATM   20  C   UNL     1     -12.500   9.952  71.347  1.00  0.00    -0.495 C  
ENDBRANCH   5  18
BRANCH   7  21
HETATM   21  N   UNL     1      -9.035  11.086  66.595  1.00  0.00    -0.163 NA 
HETATM   22  C   UNL     1      -8.540  10.488  65.350  1.00  0.00    -0.180 C  
HETATM   23  C   UNL     1      -9.574  10.783  64.236  1.00  0.00    -0.283 C  
HETATM   24  N   UNL     1      -9.837  12.226  64.038  1.00  0.00    -0.568 NA 
HETATM   25  C   UNL     1     -10.231  12.855  65.323  1.00  0.00    -0.278 C  
HETATM   26  H   UNL     1     -10.528  12.392  63.306  1.00  0.00     0.000 HD 
HETATM   27  C   UNL     1     -10.413  14.356  65.122  1.00  0.00    -0.437 C  
HETATM   28  C   UNL     1      -9.245  12.548  66.498  1.00  0.00    -0.210 C  
ENDBRANCH   7  21
ENDBRANCH   2   3
TORSDOF 3
ENDMDL
MODEL       50
REMARK 921   NORMALIZED FREE ENERGY PREDICTED BY IDOCK:   -5.71 KCAL/MOL
REMARK 922        TOTAL FREE ENERGY PREDICTED BY IDOCK:   -6.74 KCAL/MOL
REMARK 923 INTER-LIGAND FREE ENERGY PREDICTED BY IDOCK:   -6.27 KCAL/MOL
REMARK 924 INTRA-LIGAND FREE ENERGY PREDICTED BY IDOCK:   -0.48 KCAL/MOL
REMARK 927      BINDING AFFINITY PREDICTED BY RF-SCORE:    0.00 PKD
ROOT
HETATM    1  C   UNL     1     -12.480  10.000  70.564  1.00  0.00    -0.176 C  
HETATM    2  O   UNL     1     -11.395  10.933  70.632  1.00  0.00    -0.256 OA 
ENDROOT
BRANCH   2   3
HETATM    3  C   UNL     1     -11.271  11.719  69.497  1.00  0.00    -0.195 A  
HETATM    4  C   UNL     1     -10.604  11.150  68.379  1.00  0.00    -0.193 A  
HETATM    5  N   UNL     1      -9.807   9.957  68.427  1.00  0.00    -0.148 NA 
HETATM    6  C   UNL     1      -9.333   9.396  67.246  1.00  0.00    -0.131 C  
HETATM    7  C   UNL     1     -11.871  13.013  69.441  1.00  0.00    -0.322 A  
HETATM    8  C   UNL     1      -9.481   9.899  66.020  1.00  0.00    -0.258 C  
HETATM    9  F   UNL     1     -12.532  14.821  68.033  1.00  0.00    -0.206 F  
HETATM   10  C   UNL     1      -8.916   9.163  64.868  1.00  0.00    -0.151 C  
HETATM   11  C   UNL     1     -11.944  13.621  68.177  1.00  0.00    -0.355 A  
HETATM   12  C   UNL     1     -10.216  11.181  65.907  1.00  0.00    -0.251 C  
HETATM   13  O   UNL     1      -9.108   9.764  63.668  1.00  0.00    -0.248 OA 
HETATM   14  C   UNL     1     -10.753  11.800  67.140  1.00  0.00    -0.283 A  
HETATM   15  O   UNL     1     -10.375  11.692  64.801  1.00  0.00    -0.254 OA 
HETATM   16  O   UNL     1      -8.268   8.138  64.974  1.00  0.00    -0.147 OA 
HETATM   17  C   UNL     1     -11.424  13.019  67.035  1.00  0.00    -0.381 A  
BRANCH   5  18
HETATM   18  C   UNL     1      -9.243   9.461  69.698  1.00  0.00    -0.185 C  
HETATM   19  C   UNL     1      -8.083   8.487  69.786  1.00  0.00    -0.116 C  
HETATM   20  C   UNL     1      -7.874   9.920  70.153  1.00  0.00    -0.186 C  
ENDBRANCH   5  18
BRANCH   7  21
HETATM   21  N   UNL     1     -12.401  13.593  70.599  1.00  0.00    -0.361 NA 
HETATM   22  C   UNL     1     -13.783  13.326  71.012  1.00  0.00     0.582 C  
HETATM   23  C   UNL     1     -13.861  13.493  72.550  1.00  0.00    -0.519 C  
HETATM   24  N   UNL     1     -13.437  14.829  73.025  1.00  0.00    -0.550 NA 
HETATM   25  C   UNL     1     -12.080  15.146  72.514  1.00  0.00    -0.386 C  
HETATM   26  H   UNL     1     -13.489  14.907  74.041  1.00  0.00     0.000 HD 
HETATM   27  C   UNL     1     -11.693  16.559  72.938  1.00  0.00    -0.272 C  
HETATM   28  C   UNL     1     -11.932  14.948  70.969  1.00  0.00    -0.320 C  
ENDBRANCH   7  21
ENDBRANCH   2   3
TORSDOF 3
ENDMDL
MODEL       51
REMARK 921   NORMALIZED FREE ENERGY PREDICTED BY IDOCK:   -5.69 KCAL/MOL
REMARK 922        TOTAL FREE ENERGY PREDICTED BY IDOCK:   -6.72 KCAL/MOL
REMARK 923 INTER-LIGAND FREE ENERGY PREDICTED BY IDOCK:   -6.60 KCAL/MOL
REMARK 924 INTRA-LIGAND FREE ENERGY PREDICTED BY IDOCK:   -0.12 KCAL/MOL
REMARK 927      BINDING AFFINITY PREDICTED BY RF-SCORE:    0.00 PKD
ROOT
HETATM    1  C   UNL     1      -5.893  16.437  67.253  1.00  0.00    -0.144 C  
HETATM    2  O   UNL     1      -6.743  16.131  68.365  1.00  0.00    -0.122 OA 
ENDROOT
BRANCH   2   3
HETATM    3  C   UNL     1      -8.093  16.148  68.048  1.00  0.00    -0.146 A  
HETATM    4  C   UNL     1      -8.785  14.908  68.076  1.00  0.00    -0.165 A  
HETATM    5  N   UNL     1      -8.150  13.621  68.121  1.00  0.00    -0.146 NA 
HETATM    6  C   UNL     1      -8.920  12.478  68.311  1.00  0.00    -0.178 C  
HETATM    7  C   UNL     1      -8.762  17.382  67.791  1.00  0.00    -0.232 A  
HETATM    8  C   UNL     1     -10.250  12.429  68.390  1.00  0.00    -0.227 C  
HETATM    9  F   UNL     1     -10.871  18.471  67.565  1.00  0.00    -0.431 F  
HETATM   10  C   UNL     1     -10.909  11.121  68.602  1.00  0.00    -0.209 C  
HETATM   11  C   UNL     1     -10.165  17.344  67.759  1.00  0.00    -0.345 A  
HETATM   12  C   UNL     1     -10.976  13.713  68.259  1.00  0.00    -0.254 C  
HETATM   13  O   UNL     1     -12.263  11.176  68.656  1.00  0.00    -0.582 OA 
HETATM   14  C   UNL     1     -10.192  14.955  68.076  1.00  0.00    -0.228 A  
HETATM   15  O   UNL     1     -12.204  13.723  68.318  1.00  0.00    -0.335 OA 
HETATM   16  O   UNL     1     -10.308  10.063  68.657  1.00  0.00    -0.174 OA 
HETATM   17  C   UNL     1     -10.878  16.161  67.929  1.00  0.00    -0.332 A  
BRANCH   5  18
HETATM   18  C   UNL     1      -6.748  13.442  67.698  1.00  0.00    -0.167 C  
HETATM   19  C   UNL     1      -5.720  12.650  68.485  1.00  0.00    -0.056 C  
HETATM   20  C   UNL     1      -6.265  12.092  67.211  1.00  0.00    -0.152 C  
ENDBRANCH   5  18
BRANCH   7  21
HETATM   21  N   UNL     1      -8.026  18.563  67.640  1.00  0.00    -0.244 NA 
HETATM   22  C   UNL     1      -7.974  19.562  68.713  1.00  0.00    -0.327 C  
HETATM   23  C   UNL     1      -6.641  20.339  68.576  1.00  0.00    -0.288 C  
HETATM   24  N   UNL     1      -6.469  20.995  67.260  1.00  0.00    -0.321 NA 
HETATM   25  C   UNL     1      -6.633  20.002  66.169  1.00  0.00    -0.221 C  
HETATM   26  H   UNL     1      -5.580  21.490  67.194  1.00  0.00     0.000 HD 
HETATM   27  C   UNL     1      -6.540  20.708  64.820  1.00  0.00    -0.275 C  
HETATM   28  C   UNL     1      -7.942  19.154  66.286  1.00  0.00    -0.300 C  
ENDBRANCH   7  21
ENDBRANCH   2   3
TORSDOF 3
ENDMDL
MODEL       52
REMARK 921   NORMALIZED FREE ENERGY PREDICTED BY IDOCK:   -5.69 KCAL/MOL
REMARK 922        TOTAL FREE ENERGY PREDICTED BY IDOCK:   -6.71 KCAL/MOL
REMARK 923 INTER-LIGAND FREE ENERGY PREDICTED BY IDOCK:   -7.99 KCAL/MOL
REMARK 924 INTRA-LIGAND FREE ENERGY PREDICTED BY IDOCK:    1.28 KCAL/MOL
REMARK 927      BINDING AFFINITY PREDICTED BY RF-SCORE:    0.00 PKD
ROOT
HETATM    1  C   UNL     1     -13.285  10.388  71.472  1.00  0.00    -0.386 C  
HETATM    2  O   UNL     1     -12.021  11.048  71.327  1.00  0.00    -0.241 OA 
ENDROOT
BRANCH   2   3
HETATM    3  C   UNL     1     -11.491  10.950  70.050  1.00  0.00    -0.329 A  
HETATM    4  C   UNL     1     -11.047   9.669  69.624  1.00  0.00    -0.193 A  
HETATM    5  N   UNL     1     -10.837   8.548  70.496  1.00  0.00    -0.225 NA 
HETATM    6  C   UNL     1     -10.559   7.297  69.956  1.00  0.00    -0.233 C  
HETATM    7  C   UNL     1     -11.480  12.082  69.180  1.00  0.00    -0.300 A  
HETATM    8  C   UNL     1     -10.387   7.018  68.664  1.00  0.00    -0.200 C  
HETATM    9  F   UNL     1     -11.206  12.842  66.936  1.00  0.00    -0.269 F  
HETATM   10  C   UNL     1     -10.103   5.622  68.262  1.00  0.00    -0.169 C  
HETATM   11  C   UNL     1     -11.194  11.836  67.827  1.00  0.00    -0.266 A  
HETATM   12  C   UNL     1     -10.499   8.148  67.714  1.00  0.00    -0.214 C  
HETATM   13  O   UNL     1      -9.932   5.444  66.929  1.00  0.00    -0.148 OA 
HETATM   14  C   UNL     1     -10.813   9.493  68.247  1.00  0.00    -0.194 A  
HETATM   15  O   UNL     1     -10.343   7.947  66.512  1.00  0.00    -0.247 OA 
HETATM   16  O   UNL     1      -9.961   4.708  69.054  1.00  0.00    -0.175 OA 
HETATM   17  C   UNL     1     -10.895  10.562  67.354  1.00  0.00    -0.349 A  
BRANCH   5  18
HETATM   18  C   UNL     1     -10.633   8.732  71.946  1.00  0.00    -0.354 C  
HETATM   19  C   UNL     1     -10.688   7.604  72.958  1.00  0.00    -0.449 C  
HETATM   20  C   UNL     1      -9.372   8.219  72.608  1.00  0.00    -0.350 C  
ENDBRANCH   5  18
BRANCH   7  21
HETATM   21  N   UNL     1     -11.800  13.352  69.674  1.00  0.00    -0.316 NA 
HETATM   22  C   UNL     1     -10.913  14.497  69.443  1.00  0.00    -0.249 C  
HETATM   23  C   UNL     1     -11.778  15.782  69.466  1.00  0.00    -0.360 C  
HETATM   24  N   UNL     1     -12.531  15.967  70.726  1.00  0.00    -0.495 NA 
HETATM   25  C   UNL     1     -13.344  14.761  71.019  1.00  0.00    -0.374 C  
HETATM   26  H   UNL     1     -13.099  16.815  70.710  1.00  0.00     0.000 HD 
HETATM   27  C   UNL     1     -14.045  14.932  72.363  1.00  0.00    -0.554 C  
HETATM   28  C   UNL     1     -12.528  13.428  70.961  1.00  0.00    -0.353 C  
ENDBRANCH   7  21
ENDBRANCH   2   3
TORSDOF 3
ENDMDL
MODEL       53
REMARK 921   NORMALIZED FREE ENERGY PREDICTED BY IDOCK:   -5.63 KCAL/MOL
REMARK 922        TOTAL FREE ENERGY PREDICTED BY IDOCK:   -6.64 KCAL/MOL
REMARK 923 INTER-LIGAND FREE ENERGY PREDICTED BY IDOCK:   -6.74 KCAL/MOL
REMARK 924 INTRA-LIGAND FREE ENERGY PREDICTED BY IDOCK:    0.10 KCAL/MOL
REMARK 927      BINDING AFFINITY PREDICTED BY RF-SCORE:    0.00 PKD
ROOT
HETATM    1  C   UNL     1     -10.686  17.630  69.406  1.00  0.00     0.346 C  
HETATM    2  O   UNL     1     -11.589  16.642  68.894  1.00  0.00    -0.157 OA 
ENDROOT
BRANCH   2   3
HETATM    3  C   UNL     1     -10.961  15.471  68.500  1.00  0.00    -0.288 A  
HETATM    4  C   UNL     1     -11.282  14.286  69.214  1.00  0.00    -0.273 A  
HETATM    5  N   UNL     1     -11.971  14.254  70.472  1.00  0.00    -0.318 NA 
HETATM    6  C   UNL     1     -12.380  13.036  71.004  1.00  0.00    -0.244 C  
HETATM    7  C   UNL     1     -10.094  15.460  67.366  1.00  0.00    -0.233 A  
HETATM    8  C   UNL     1     -12.134  11.830  70.492  1.00  0.00    -0.439 C  
HETATM    9  F   UNL     1      -8.946  14.104  65.775  1.00  0.00    -0.027 F  
HETATM   10  C   UNL     1     -12.653  10.633  71.189  1.00  0.00    -0.423 C  
HETATM   11  C   UNL     1      -9.725  14.200  66.866  1.00  0.00    -0.269 A  
HETATM   12  C   UNL     1     -11.346  11.784  69.239  1.00  0.00    -0.286 C  
HETATM   13  O   UNL     1     -12.338   9.455  70.595  1.00  0.00    -0.182 OA 
HETATM   14  C   UNL     1     -10.908  13.060  68.629  1.00  0.00    -0.287 A  
HETATM   15  O   UNL     1     -11.085  10.698  68.727  1.00  0.00    -0.229 OA 
HETATM   16  O   UNL     1     -13.255  10.676  72.246  1.00  0.00    -0.400 OA 
HETATM   17  C   UNL     1     -10.146  13.015  67.462  1.00  0.00    -0.218 A  
BRANCH   5  18
HETATM   18  C   UNL     1     -12.017  15.438  71.352  1.00  0.00    -0.378 C  
HETATM   19  C   UNL     1     -13.286  15.969  71.992  1.00  0.00    -0.203 C  
HETATM   20  C   UNL     1     -12.267  15.275  72.836  1.00  0.00    -0.516 C  
ENDBRANCH   5  18
BRANCH   7  21
HETATM   21  N   UNL     1      -9.696  16.663  66.773  1.00  0.00    -0.250 NA 
HETATM   22  C   UNL     1     -10.557  17.346  65.801  1.00  0.00    -0.182 C  
HETATM   23  C   UNL     1     -10.229  18.859  65.854  1.00  0.00    -0.286 C  
HETATM   24  N   UNL     1      -8.808  19.169  65.582  1.00  0.00    -0.192 NA 
HETATM   25  C   UNL     1      -7.932  18.392  66.493  1.00  0.00    -0.271 C  
HETATM   26  H   UNL     1      -8.619  20.170  65.633  1.00  0.00     0.000 HD 
HETATM   27  C   UNL     1      -6.471  18.655  66.142  1.00  0.00    -0.249 C  
HETATM   28  C   UNL     1      -8.252  16.861  66.514  1.00  0.00    -0.285 C  
ENDBRANCH   7  21
ENDBRANCH   2   3
TORSDOF 3
ENDMDL
MODEL       54
REMARK 921   NORMALIZED FREE ENERGY PREDICTED BY IDOCK:   -5.51 KCAL/MOL
REMARK 922        TOTAL FREE ENERGY PREDICTED BY IDOCK:   -6.50 KCAL/MOL
REMARK 923 INTER-LIGAND FREE ENERGY PREDICTED BY IDOCK:   -5.84 KCAL/MOL
REMARK 924 INTRA-LIGAND FREE ENERGY PREDICTED BY IDOCK:   -0.66 KCAL/MOL
REMARK 927      BINDING AFFINITY PREDICTED BY RF-SCORE:    0.00 PKD
ROOT
HETATM    1  C   UNL     1      -8.322  10.938  66.040  1.00  0.00    -0.165 C  
HETATM    2  O   UNL     1      -8.162  11.202  67.439  1.00  0.00    -0.126 OA 
ENDROOT
BRANCH   2   3
HETATM    3  C   UNL     1      -9.279  11.779  68.024  1.00  0.00    -0.181 A  
HETATM    4  C   UNL     1      -9.354  13.197  68.028  1.00  0.00    -0.219 A  
HETATM    5  N   UNL     1      -8.252  14.073  67.742  1.00  0.00    -0.153 NA 
HETATM    6  C   UNL     1      -8.473  15.440  67.614  1.00  0.00    -0.162 C  
HETATM    7  C   UNL     1     -10.341  10.963  68.518  1.00  0.00    -0.187 A  
HETATM    8  C   UNL     1      -9.631  16.071  67.802  1.00  0.00    -0.219 C  
HETATM    9  F   UNL     1     -12.606  10.914  69.263  1.00  0.00    -0.372 F  
HETATM   10  C   UNL     1      -9.689  17.538  67.615  1.00  0.00    -0.275 C  
HETATM   11  C   UNL     1     -11.545  11.616  68.832  1.00  0.00    -0.314 A  
HETATM   12  C   UNL     1     -10.793  15.238  68.190  1.00  0.00    -0.273 C  
HETATM   13  O   UNL     1     -10.907  18.087  67.842  1.00  0.00    -0.367 OA 
HETATM   14  C   UNL     1     -10.604  13.776  68.319  1.00  0.00    -0.262 A  
HETATM   15  O   UNL     1     -11.883  15.772  68.383  1.00  0.00    -0.338 OA 
HETATM   16  O   UNL     1      -8.719  18.223  67.347  1.00  0.00    -0.252 OA 
HETATM   17  C   UNL     1     -11.693  12.994  68.707  1.00  0.00    -0.363 A  
BRANCH   5  18
HETATM   18  C   UNL     1      -6.855  13.609  67.855  1.00  0.00    -0.153 C  
HETATM   19  C   UNL     1      -5.684  14.520  68.172  1.00  0.00    -0.130 C  
HETATM   20  C   UNL     1      -6.176  13.561  69.207  1.00  0.00    -0.105 C  
ENDBRANCH   5  18
BRANCH   7  21
HETATM   21  N   UNL     1     -10.175   9.578  68.620  1.00  0.00    -0.188 NA 
HETATM   22  C   UNL     1     -10.600   8.685  67.536  1.00  0.00    -0.222 C  
HETATM   23  C   UNL     1      -9.724   7.410  67.597  1.00  0.00    -0.144 C  
HETATM   24  N   UNL     1      -9.793   6.703  68.896  1.00  0.00    -0.138 NA 
HETATM   25  C   UNL     1      -9.471   7.637  70.004  1.00  0.00    -0.161 C  
HETATM   26  H   UNL     1      -9.200   5.874  68.911  1.00  0.00     0.000 HD 
HETATM   27  C   UNL     1      -9.632   6.917  71.339  1.00  0.00    -0.167 C  
HETATM   28  C   UNL     1     -10.295   8.965  69.962  1.00  0.00    -0.204 C  
ENDBRANCH   7  21
ENDBRANCH   2   3
TORSDOF 3
ENDMDL
MODEL       55
REMARK 921   NORMALIZED FREE ENERGY PREDICTED BY IDOCK:   -5.49 KCAL/MOL
REMARK 922        TOTAL FREE ENERGY PREDICTED BY IDOCK:   -6.47 KCAL/MOL
REMARK 923 INTER-LIGAND FREE ENERGY PREDICTED BY IDOCK:   -6.39 KCAL/MOL
REMARK 924 INTRA-LIGAND FREE ENERGY PREDICTED BY IDOCK:   -0.08 KCAL/MOL
REMARK 927      BINDING AFFINITY PREDICTED BY RF-SCORE:    0.00 PKD
ROOT
HETATM    1  C   UNL     1     -10.942   6.115  69.576  1.00  0.00    -0.393 C  
HETATM    2  O   UNL     1     -10.150   7.290  69.782  1.00  0.00    -0.187 OA 
ENDROOT
BRANCH   2   3
HETATM    3  C   UNL     1     -10.357   8.271  68.824  1.00  0.00    -0.205 A  
HETATM    4  C   UNL     1     -10.989   9.471  69.246  1.00  0.00    -0.145 A  
HETATM    5  N   UNL     1     -11.680   9.634  70.494  1.00  0.00    -0.260 NA 
HETATM    6  C   UNL     1     -12.121  10.895  70.878  1.00  0.00    -0.349 C  
HETATM    7  C   UNL     1      -9.871   8.098  67.493  1.00  0.00    -0.177 A  
HETATM    8  C   UNL     1     -12.035  12.013  70.158  1.00  0.00    -0.401 C  
HETATM    9  F   UNL     1      -9.389   9.167  65.417  1.00  0.00    -0.257 F  
HETATM   10  C   UNL     1     -12.551  13.277  70.728  1.00  0.00    -0.280 C  
HETATM   11  C   UNL     1      -9.870   9.236  66.670  1.00  0.00    -0.245 A  
HETATM   12  C   UNL     1     -11.415  11.899  68.818  1.00  0.00    -0.290 C  
HETATM   13  O   UNL     1     -12.429  14.353  69.912  1.00  0.00    -0.327 OA 
HETATM   14  C   UNL     1     -10.915  10.577  68.378  1.00  0.00    -0.310 A  
HETATM   15  O   UNL     1     -11.316  12.899  68.109  1.00  0.00    -0.252 OA 
HETATM   16  O   UNL     1     -13.107  13.353  71.808  1.00  0.00    -0.374 OA 
HETATM   17  C   UNL     1     -10.352  10.466  67.106  1.00  0.00    -0.290 A  
BRANCH   5  18
HETATM   18  C   UNL     1     -12.181   8.470  71.250  1.00  0.00    -0.277 C  
HETATM   19  C   UNL     1     -11.732   8.118  72.656  1.00  0.00    -0.419 C  
HETATM   20  C   UNL     1     -13.102   8.671  72.435  1.00  0.00    -0.396 C  
ENDBRANCH   5  18
BRANCH   7  21
HETATM   21  N   UNL     1      -9.376   6.856  67.080  1.00  0.00    -0.136 NA 
HETATM   22  C   UNL     1      -7.940   6.562  67.130  1.00  0.00    -0.112 C  
HETATM   23  C   UNL     1      -7.773   5.030  67.290  1.00  0.00    -0.092 C  
HETATM   24  N   UNL     1      -8.416   4.247  66.212  1.00  0.00    -0.112 NA 
HETATM   25  C   UNL     1      -9.845   4.626  66.087  1.00  0.00    -0.226 C  
HETATM   26  H   UNL     1      -8.299   3.243  66.348  1.00  0.00     0.000 HD 
HETATM   27  C   UNL     1     -10.471   3.876  64.916  1.00  0.00    -0.125 C  
HETATM   28  C   UNL     1     -10.075   6.169  65.971  1.00  0.00     0.247 C  
ENDBRANCH   7  21
ENDBRANCH   2   3
TORSDOF 3
ENDMDL
MODEL       56
REMARK 921   NORMALIZED FREE ENERGY PREDICTED BY IDOCK:   -5.46 KCAL/MOL
REMARK 922        TOTAL FREE ENERGY PREDICTED BY IDOCK:   -6.45 KCAL/MOL
REMARK 923 INTER-LIGAND FREE ENERGY PREDICTED BY IDOCK:   -6.33 KCAL/MOL
REMARK 924 INTRA-LIGAND FREE ENERGY PREDICTED BY IDOCK:   -0.12 KCAL/MOL
REMARK 927      BINDING AFFINITY PREDICTED BY RF-SCORE:    0.00 PKD
ROOT
HETATM    1  C   UNL     1     -10.713  17.277  65.814  1.00  0.00    -0.131 C  
HETATM    2  O   UNL     1      -9.606  16.540  65.283  1.00  0.00    -0.370 OA 
ENDROOT
BRANCH   2   3
HETATM    3  C   UNL     1      -9.004  15.703  66.211  1.00  0.00    -0.342 A  
HETATM    4  C   UNL     1      -8.075  16.289  67.112  1.00  0.00    -0.188 A  
HETATM    5  N   UNL     1      -7.501  17.595  66.955  1.00  0.00    -0.190 NA 
HETATM    6  C   UNL     1      -6.729  18.136  67.978  1.00  0.00    -0.206 C  
HETATM    7  C   UNL     1      -9.380  14.329  66.299  1.00  0.00    -0.208 A  
HETATM    8  C   UNL     1      -6.387  17.527  69.113  1.00  0.00    -0.235 C  
HETATM    9  F   UNL     1      -9.288  12.340  67.612  1.00  0.00    -0.168 F  
HETATM   10  C   UNL     1      -5.563  18.258  70.100  1.00  0.00    -0.242 C  
HETATM   11  C   UNL     1      -8.941  13.626  67.433  1.00  0.00    -0.218 A  
HETATM   12  C   UNL     1      -6.870  16.140  69.300  1.00  0.00    -0.206 C  
HETATM   13  O   UNL     1      -5.257  17.548  71.214  1.00  0.00    -0.348 OA 
HETATM   14  C   UNL     1      -7.711  15.534  68.243  1.00  0.00    -0.115 A  
HETATM   15  O   UNL     1      -6.577  15.530  70.326  1.00  0.00    -0.065 OA 
HETATM   16  O   UNL     1      -5.125  19.380  69.917  1.00  0.00    -0.185 OA 
HETATM   17  C   UNL     1      -8.146  14.219  68.409  1.00  0.00    -0.142 A  
BRANCH   5  18
HETATM   18  C   UNL     1      -7.470  18.267  65.641  1.00  0.00     0.027 C  
HETATM   19  C   UNL     1      -7.466  19.773  65.461  1.00  0.00    -0.184 C  
HETATM   20  C   UNL     1      -6.222  18.993  65.187  1.00  0.00    -0.320 C  
ENDBRANCH   5  18
BRANCH   7  21
HETATM   21  N   UNL     1     -10.193  13.757  65.314  1.00  0.00    -0.341 NA 
HETATM   22  C   UNL     1     -11.634  14.032  65.272  1.00  0.00    -0.337 C  
HETATM   23  C   UNL     1     -12.106  13.875  63.805  1.00  0.00    -0.285 C  
HETATM   24  N   UNL     1     -11.826  12.540  63.231  1.00  0.00    -0.710 NA 
HETATM   25  C   UNL     1     -10.385  12.214  63.375  1.00  0.00    -0.402 C  
HETATM   26  H   UNL     1     -12.138  12.467  62.263  1.00  0.00     0.000 HD 
HETATM   27  C   UNL     1     -10.128  10.802  62.859  1.00  0.00    -0.136 C  
HETATM   28  C   UNL     1      -9.843  12.403  64.830  1.00  0.00    -0.079 C  
ENDBRANCH   7  21
ENDBRANCH   2   3
TORSDOF 3
ENDMDL
MODEL       57
REMARK 921   NORMALIZED FREE ENERGY PREDICTED BY IDOCK:   -5.45 KCAL/MOL
REMARK 922        TOTAL FREE ENERGY PREDICTED BY IDOCK:   -6.43 KCAL/MOL
REMARK 923 INTER-LIGAND FREE ENERGY PREDICTED BY IDOCK:   -5.73 KCAL/MOL
REMARK 924 INTRA-LIGAND FREE ENERGY PREDICTED BY IDOCK:   -0.69 KCAL/MOL
REMARK 927      BINDING AFFINITY PREDICTED BY RF-SCORE:    0.00 PKD
ROOT
HETATM    1  C   UNL     1     -11.285  10.806  67.896  1.00  0.00    -0.318 C  
HETATM    2  O   UNL     1     -10.708  11.218  66.651  1.00  0.00    -0.252 OA 
ENDROOT
BRANCH   2   3
HETATM    3  C   UNL     1      -9.489  11.862  66.794  1.00  0.00    -0.201 A  
HETATM    4  C   UNL     1      -9.501  13.282  66.832  1.00  0.00    -0.249 A  
HETATM    5  N   UNL     1     -10.619  14.097  66.449  1.00  0.00    -0.277 NA 
HETATM    6  C   UNL     1     -10.583  15.468  66.679  1.00  0.00    -0.307 C  
HETATM    7  C   UNL     1      -8.289  11.110  66.981  1.00  0.00    -0.144 A  
HETATM    8  C   UNL     1      -9.555  16.157  67.174  1.00  0.00    -0.235 C  
HETATM    9  F   UNL     1      -5.998  11.187  67.638  1.00  0.00    -0.046 F  
HETATM   10  C   UNL     1      -9.693  17.618  67.361  1.00  0.00    -0.283 C  
HETATM   11  C   UNL     1      -7.155  11.826  67.398  1.00  0.00    -0.126 A  
HETATM   12  C   UNL     1      -8.333  15.390  67.505  1.00  0.00    -0.174 C  
HETATM   13  O   UNL     1      -8.588  18.229  67.856  1.00  0.00    -0.249 OA 
HETATM   14  C   UNL     1      -8.337  13.924  67.293  1.00  0.00    -0.199 A  
HETATM   15  O   UNL     1      -7.353  15.977  67.958  1.00  0.00    -0.123 OA 
HETATM   16  O   UNL     1     -10.682  18.250  67.037  1.00  0.00    -0.370 OA 
HETATM   17  C   UNL     1      -7.177  13.206  67.584  1.00  0.00    -0.160 A  
BRANCH   5  18
HETATM   18  C   UNL     1     -11.685  13.574  65.572  1.00  0.00    -0.340 C  
HETATM   19  C   UNL     1     -12.349  14.383  64.473  1.00  0.00    -0.440 C  
HETATM   20  C   UNL     1     -11.398  13.287  64.114  1.00  0.00    -0.424 C  
ENDBRANCH   5  18
BRANCH   7  21
HETATM   21  N   UNL     1      -8.294   9.722  66.805  1.00  0.00    -0.123 NA 
HETATM   22  C   UNL     1      -8.147   8.815  67.948  1.00  0.00    -0.107 C  
HETATM   23  C   UNL     1      -8.847   7.481  67.592  1.00  0.00    -0.128 C  
HETATM   24  N   UNL     1      -8.319   6.843  66.365  1.00  0.00    -0.119 NA 
HETATM   25  C   UNL     1      -8.365   7.800  65.231  1.00  0.00    -0.122 C  
HETATM   26  H   UNL     1      -8.804   5.973  66.148  1.00  0.00     0.000 HD 
HETATM   27  C   UNL     1      -7.738   7.158  63.997  1.00  0.00    -0.123 C  
HETATM   28  C   UNL     1      -7.713   9.184  65.554  1.00  0.00    -0.094 C  
ENDBRANCH   7  21
ENDBRANCH   2   3
TORSDOF 3
ENDMDL
MODEL       58
REMARK 921   NORMALIZED FREE ENERGY PREDICTED BY IDOCK:   -5.39 KCAL/MOL
REMARK 922        TOTAL FREE ENERGY PREDICTED BY IDOCK:   -6.37 KCAL/MOL
REMARK 923 INTER-LIGAND FREE ENERGY PREDICTED BY IDOCK:   -6.16 KCAL/MOL
REMARK 924 INTRA-LIGAND FREE ENERGY PREDICTED BY IDOCK:   -0.21 KCAL/MOL
REMARK 927      BINDING AFFINITY PREDICTED BY RF-SCORE:    0.00 PKD
ROOT
HETATM    1  C   UNL     1     -10.202  10.427  68.438  1.00  0.00    -0.165 C  
HETATM    2  O   UNL     1      -9.259  10.676  67.388  1.00  0.00    -0.143 OA 
ENDROOT
BRANCH   2   3
HETATM    3  C   UNL     1      -8.517  11.831  67.575  1.00  0.00    -0.154 A  
HETATM    4  C   UNL     1      -8.965  13.009  66.919  1.00  0.00    -0.209 A  
HETATM    5  N   UNL     1      -9.940  13.033  65.865  1.00  0.00    -0.277 NA 
HETATM    6  C   UNL     1     -10.427  14.252  65.405  1.00  0.00    -0.365 C  
HETATM    7  C   UNL     1      -7.399  11.839  68.463  1.00  0.00    -0.103 A  
HETATM    8  C   UNL     1     -10.025  15.460  65.799  1.00  0.00    -0.393 C  
HETATM    9  F   UNL     1      -5.855  13.192  69.678  1.00  0.00    -0.082 F  
HETATM   10  C   UNL     1     -10.661  16.657  65.206  1.00  0.00    -0.204 C  
HETATM   11  C   UNL     1      -6.880  13.096  68.813  1.00  0.00    -0.102 A  
HETATM   12  C   UNL     1      -8.954  15.509  66.820  1.00  0.00    -0.266 C  
HETATM   13  O   UNL     1     -10.174  17.837  65.663  1.00  0.00    -0.590 OA 
HETATM   14  C   UNL     1      -8.421  14.233  67.350  1.00  0.00    -0.216 A  
HETATM   15  O   UNL     1      -8.542  16.598  67.214  1.00  0.00    -0.184 OA 
HETATM   16  O   UNL     1     -11.504  16.610  64.329  1.00  0.00    -1.075 OA 
HETATM   17  C   UNL     1      -7.396  14.280  68.295  1.00  0.00    -0.124 A  
BRANCH   5  18
HETATM   18  C   UNL     1     -10.236  11.828  65.066  1.00  0.00    -0.272 C  
HETATM   19  C   UNL     1     -11.297  11.770  63.984  1.00  0.00    -0.461 C  
HETATM   20  C   UNL     1      -9.853  11.772  63.602  1.00  0.00    -0.357 C  
ENDBRANCH   5  18
BRANCH   7  21
HETATM   21  N   UNL     1      -6.907  10.637  68.985  1.00  0.00    -0.064 NA 
HETATM   22  C   UNL     1      -6.407   9.579  68.101  1.00  0.00    -0.057 C  
HETATM   23  C   UNL     1      -5.361   8.753  68.890  1.00  0.00    -0.037 C  
HETATM   24  N   UNL     1      -5.889   8.165  70.141  1.00  0.00    -0.022 NA 
HETATM   25  C   UNL     1      -6.495   9.223  70.987  1.00  0.00    -0.086 C  
HETATM   26  H   UNL     1      -5.177   7.636  70.644  1.00  0.00     0.000 HD 
HETATM   27  C   UNL     1      -7.113   8.589  72.230  1.00  0.00    -0.091 C  
HETATM   28  C   UNL     1      -7.527  10.119  70.225  1.00  0.00    -0.062 C  
ENDBRANCH   7  21
ENDBRANCH   2   3
TORSDOF 3
ENDMDL
MODEL       59
REMARK 921   NORMALIZED FREE ENERGY PREDICTED BY IDOCK:   -5.39 KCAL/MOL
REMARK 922        TOTAL FREE ENERGY PREDICTED BY IDOCK:   -6.36 KCAL/MOL
REMARK 923 INTER-LIGAND FREE ENERGY PREDICTED BY IDOCK:   -6.11 KCAL/MOL
REMARK 924 INTRA-LIGAND FREE ENERGY PREDICTED BY IDOCK:   -0.25 KCAL/MOL
REMARK 927      BINDING AFFINITY PREDICTED BY RF-SCORE:    0.00 PKD
ROOT
HETATM    1  C   UNL     1     -12.252   9.346  71.082  1.00  0.00    -0.323 C  
HETATM    2  O   UNL     1     -11.133  10.233  70.963  1.00  0.00    -0.276 OA 
ENDROOT
BRANCH   2   3
HETATM    3  C   UNL     1     -11.004  10.791  69.700  1.00  0.00    -0.264 A  
HETATM    4  C   UNL     1     -10.305  10.035  68.722  1.00  0.00    -0.198 A  
HETATM    5  N   UNL     1      -9.487   8.890  69.007  1.00  0.00    -0.155 NA 
HETATM    6  C   UNL     1      -8.981   8.126  67.961  1.00  0.00    -0.134 C  
HETATM    7  C   UNL     1     -11.627  12.037  69.391  1.00  0.00    -0.330 A  
HETATM    8  C   UNL     1      -9.116   8.384  66.661  1.00  0.00    -0.202 C  
HETATM    9  F   UNL     1     -12.297  13.529  67.654  1.00  0.00    -0.361 F  
HETATM   10  C   UNL     1      -8.516   7.455  65.678  1.00  0.00    -0.130 C  
HETATM   11  C   UNL     1     -11.688  12.392  68.033  1.00  0.00    -0.356 A  
HETATM   12  C   UNL     1      -9.872   9.603  66.295  1.00  0.00    -0.256 C  
HETATM   13  O   UNL     1      -8.697   7.812  64.383  1.00  0.00     0.176 OA 
HETATM   14  C   UNL     1     -10.444  10.434  67.379  1.00  0.00    -0.299 A  
HETATM   15  O   UNL     1     -10.021   9.891  65.109  1.00  0.00    -0.318 OA 
HETATM   16  O   UNL     1      -7.850   6.483  65.987  1.00  0.00    -0.096 OA 
HETATM   17  C   UNL     1     -11.137  11.595  67.034  1.00  0.00    -0.359 A  
BRANCH   5  18
HETATM   18  C   UNL     1      -8.936   8.659  70.357  1.00  0.00    -0.158 C  
HETATM   19  C   UNL     1      -7.742   7.769  70.643  1.00  0.00    -0.091 C  
HETATM   20  C   UNL     1      -7.599   9.253  70.747  1.00  0.00    -0.154 C  
ENDBRANCH   5  18
BRANCH   7  21
HETATM   21  N   UNL     1     -12.189  12.815  70.409  1.00  0.00    -0.338 NA 
HETATM   22  C   UNL     1     -13.505  12.488  70.970  1.00  0.00     0.637 C  
HETATM   23  C   UNL     1     -13.548  13.019  72.424  1.00  0.00    -0.529 C  
HETATM   24  N   UNL     1     -13.296  14.474  72.532  1.00  0.00    -0.434 NA 
HETATM   25  C   UNL     1     -12.017  14.822  71.866  1.00  0.00    -0.318 C  
HETATM   26  H   UNL     1     -13.321  14.794  73.500  1.00  0.00     0.000 HD 
HETATM   27  C   UNL     1     -11.815  16.333  71.909  1.00  0.00    -0.538 C  
HETATM   28  C   UNL     1     -11.900  14.267  70.408  1.00  0.00    -0.305 C  
ENDBRANCH   7  21
ENDBRANCH   2   3
TORSDOF 3
ENDMDL
MODEL       60
REMARK 921   NORMALIZED FREE ENERGY PREDICTED BY IDOCK:   -5.35 KCAL/MOL
REMARK 922        TOTAL FREE ENERGY PREDICTED BY IDOCK:   -6.31 KCAL/MOL
REMARK 923 INTER-LIGAND FREE ENERGY PREDICTED BY IDOCK:   -5.65 KCAL/MOL
REMARK 924 INTRA-LIGAND FREE ENERGY PREDICTED BY IDOCK:   -0.66 KCAL/MOL
REMARK 927      BINDING AFFINITY PREDICTED BY RF-SCORE:    0.00 PKD
ROOT
HETATM    1  C   UNL     1     -10.480  10.900  69.160  1.00  0.00    -0.221 C  
HETATM    2  O   UNL     1      -9.422  11.640  68.538  1.00  0.00    -0.195 OA 
ENDROOT
BRANCH   2   3
HETATM    3  C   UNL     1      -9.626  11.864  67.186  1.00  0.00    -0.186 A  
HETATM    4  C   UNL     1      -9.091  10.911  66.278  1.00  0.00    -0.176 A  
HETATM    5  N   UNL     1      -8.126   9.908  66.625  1.00  0.00    -0.116 NA 
HETATM    6  C   UNL     1      -7.792   8.923  65.702  1.00  0.00    -0.096 C  
HETATM    7  C   UNL     1     -10.418  12.968  66.745  1.00  0.00    -0.259 A  
HETATM    8  C   UNL     1      -8.233   8.837  64.448  1.00  0.00    -0.169 C  
HETATM    9  F   UNL     1     -11.591  13.945  64.913  1.00  0.00    -0.319 F  
HETATM   10  C   UNL     1      -7.778   7.713  63.601  1.00  0.00    -0.123 C  
HETATM   11  C   UNL     1     -10.809  12.965  65.396  1.00  0.00    -0.283 A  
HETATM   12  C   UNL     1      -9.164   9.896  63.992  1.00  0.00    -0.253 C  
HETATM   13  O   UNL     1      -8.273   7.723  62.338  1.00  0.00    -0.160 OA 
HETATM   14  C   UNL     1      -9.559  10.952  64.951  1.00  0.00    -0.297 A  
HETATM   15  O   UNL     1      -9.595   9.868  62.842  1.00  0.00    -0.212 OA 
HETATM   16  O   UNL     1      -6.972   6.876  63.965  1.00  0.00    -0.051 OA 
HETATM   17  C   UNL     1     -10.418  11.961  64.514  1.00  0.00    -0.341 A  
BRANCH   5  18
HETATM   18  C   UNL     1      -7.273  10.046  67.822  1.00  0.00    -0.087 C  
HETATM   19  C   UNL     1      -6.576   8.883  68.504  1.00  0.00    -0.059 C  
HETATM   20  C   UNL     1      -5.774   9.865  67.714  1.00  0.00    -0.039 C  
ENDBRANCH   5  18
BRANCH   7  21
HETATM   21  N   UNL     1     -10.814  13.956  67.652  1.00  0.00    -0.252 NA 
HETATM   22  C   UNL     1     -12.138  13.916  68.283  1.00  0.00    -0.287 C  
HETATM   23  C   UNL     1     -12.039  14.645  69.646  1.00  0.00    -0.311 C  
HETATM   24  N   UNL     1     -11.569  16.044  69.538  1.00  0.00    -0.326 NA 
HETATM   25  C   UNL     1     -10.282  16.096  68.801  1.00  0.00    -0.238 C  
HETATM   26  H   UNL     1     -11.504  16.496  70.450  1.00  0.00     0.000 HD 
HETATM   27  C   UNL     1      -9.855  17.549  68.621  1.00  0.00    -0.338 C  
HETATM   28  C   UNL     1     -10.312  15.332  67.436  1.00  0.00    -0.256 C  
ENDBRANCH   7  21
ENDBRANCH   2   3
TORSDOF 3
ENDMDL
MODEL       61
REMARK 921   NORMALIZED FREE ENERGY PREDICTED BY IDOCK:   -5.34 KCAL/MOL
REMARK 922        TOTAL FREE ENERGY PREDICTED BY IDOCK:   -6.31 KCAL/MOL
REMARK 923 INTER-LIGAND FREE ENERGY PREDICTED BY IDOCK:   -6.18 KCAL/MOL
REMARK 924 INTRA-LIGAND FREE ENERGY PREDICTED BY IDOCK:   -0.12 KCAL/MOL
REMARK 927      BINDING AFFINITY PREDICTED BY RF-SCORE:    0.00 PKD
ROOT
HETATM    1  C   UNL     1      -8.204  11.287  69.003  1.00  0.00    -0.021 C  
HETATM    2  O   UNL     1      -9.615  11.406  68.783  1.00  0.00    -0.190 OA 
ENDROOT
BRANCH   2   3
HETATM    3  C   UNL     1      -9.939  11.845  67.508  1.00  0.00    -0.187 A  
HETATM    4  C   UNL     1     -10.182  13.234  67.339  1.00  0.00    -0.229 A  
HETATM    5  N   UNL     1     -10.400  14.160  68.414  1.00  0.00    -0.243 NA 
HETATM    6  C   UNL     1     -10.466  15.523  68.147  1.00  0.00    -0.259 C  
HETATM    7  C   UNL     1      -9.939  10.936  66.407  1.00  0.00    -0.221 A  
HETATM    8  C   UNL     1     -10.417  16.093  66.943  1.00  0.00    -0.300 C  
HETATM    9  F   UNL     1      -9.960  10.718  64.032  1.00  0.00    -0.286 F  
HETATM   10  C   UNL     1     -10.494  17.567  66.842  1.00  0.00    -0.285 C  
HETATM   11  C   UNL     1      -9.998  11.502  65.122  1.00  0.00    -0.262 A  
HETATM   12  C   UNL     1     -10.285  15.188  65.779  1.00  0.00    -0.341 C  
HETATM   13  O   UNL     1     -10.449  18.048  65.575  1.00  0.00    -0.636 OA 
HETATM   14  C   UNL     1     -10.192  13.730  66.021  1.00  0.00    -0.315 A  
HETATM   15  O   UNL     1     -10.242  15.661  64.645  1.00  0.00    -0.284 OA 
HETATM   16  O   UNL     1     -10.655  18.302  67.800  1.00  0.00    -0.408 OA 
HETATM   17  C   UNL     1     -10.091  12.876  64.923  1.00  0.00    -0.229 A  
BRANCH   5  18
HETATM   18  C   UNL     1     -10.833  13.699  69.747  1.00  0.00     0.267 C  
HETATM   19  C   UNL     1     -11.475  14.598  70.787  1.00  0.00    -0.232 C  
HETATM   20  C   UNL     1     -12.307  13.583  70.072  1.00  0.00    -0.315 C  
ENDBRANCH   5  18
BRANCH   7  21
HETATM   21  N   UNL     1      -9.829   9.560  66.630  1.00  0.00    -0.213 NA 
HETATM   22  C   UNL     1     -10.499   8.923  67.769  1.00  0.00    -0.239 C  
HETATM   23  C   UNL     1     -10.777   7.446  67.394  1.00  0.00    -0.278 C  
HETATM   24  N   UNL     1      -9.560   6.687  67.030  1.00  0.00    -0.144 NA 
HETATM   25  C   UNL     1      -8.822   7.390  65.952  1.00  0.00    -0.120 C  
HETATM   26  H   UNL     1      -9.773   5.722  66.779  1.00  0.00     0.000 HD 
HETATM   27  C   UNL     1      -7.527   6.643  65.650  1.00  0.00    -0.082 C  
HETATM   28  C   UNL     1      -8.556   8.901  66.259  1.00  0.00    -0.133 C  
ENDBRANCH   7  21
ENDBRANCH   2   3
TORSDOF 3
ENDMDL
MODEL       62
REMARK 921   NORMALIZED FREE ENERGY PREDICTED BY IDOCK:   -5.33 KCAL/MOL
REMARK 922        TOTAL FREE ENERGY PREDICTED BY IDOCK:   -6.29 KCAL/MOL
REMARK 923 INTER-LIGAND FREE ENERGY PREDICTED BY IDOCK:   -5.65 KCAL/MOL
REMARK 924 INTRA-LIGAND FREE ENERGY PREDICTED BY IDOCK:   -0.64 KCAL/MOL
REMARK 927      BINDING AFFINITY PREDICTED BY RF-SCORE:    0.00 PKD
ROOT
HETATM    1  C   UNL     1      -6.381  11.949  66.752  1.00  0.00    -0.038 C  
HETATM    2  O   UNL     1      -7.345  12.223  67.776  1.00  0.00    -0.097 OA 
ENDROOT
BRANCH   2   3
HETATM    3  C   UNL     1      -8.427  12.966  67.330  1.00  0.00    -0.196 A  
HETATM    4  C   UNL     1      -8.437  14.353  67.638  1.00  0.00    -0.185 A  
HETATM    5  N   UNL     1      -7.579  14.980  68.603  1.00  0.00    -0.121 NA 
HETATM    6  C   UNL     1      -7.557  16.367  68.709  1.00  0.00    -0.211 C  
HETATM    7  C   UNL     1      -9.438  12.363  66.523  1.00  0.00    -0.242 A  
HETATM    8  C   UNL     1      -8.328  17.220  68.034  1.00  0.00    -0.228 C  
HETATM    9  F   UNL     1     -11.292  12.746  65.072  1.00  0.00    -0.315 F  
HETATM   10  C   UNL     1      -8.166  18.672  68.267  1.00  0.00    -0.323 C  
HETATM   11  C   UNL     1     -10.337  13.232  65.884  1.00  0.00    -0.292 A  
HETATM   12  C   UNL     1      -9.303  16.635  67.086  1.00  0.00    -0.228 C  
HETATM   13  O   UNL     1      -9.004  19.455  67.543  1.00  0.00    -0.293 OA 
HETATM   14  C   UNL     1      -9.345  15.164  66.930  1.00  0.00    -0.251 A  
HETATM   15  O   UNL     1     -10.043  17.377  66.443  1.00  0.00    -0.302 OA 
HETATM   16  O   UNL     1      -7.398  19.143  69.086  1.00  0.00    -0.337 OA 
HETATM   17  C   UNL     1     -10.280  14.612  66.053  1.00  0.00    -0.326 A  
BRANCH   5  18
HETATM   18  C   UNL     1      -6.928  14.199  69.672  1.00  0.00    -0.011 C  
HETATM   19  C   UNL     1      -5.425  14.118  69.867  1.00  0.00    -0.099 C  
HETATM   20  C   UNL     1      -6.254  14.905  70.829  1.00  0.00     0.027 C  
ENDBRANCH   5  18
BRANCH   7  21
HETATM   21  N   UNL     1      -9.467  10.974  66.354  1.00  0.00    -0.188 NA 
HETATM   22  C   UNL     1      -9.353  10.374  65.020  1.00  0.00    -0.229 C  
HETATM   23  C   UNL     1      -8.744   8.959  65.184  1.00  0.00    -0.178 C  
HETATM   24  N   UNL     1      -9.528   8.075  66.075  1.00  0.00    -0.413 NA 
HETATM   25  C   UNL     1      -9.739   8.731  67.390  1.00  0.00    -0.174 C  
HETATM   26  H   UNL     1      -9.100   7.155  66.173  1.00  0.00     0.000 HD 
HETATM   27  C   UNL     1     -10.621   7.847  68.265  1.00  0.00    -0.163 C  
HETATM   28  C   UNL     1     -10.309  10.184  67.280  1.00  0.00    -0.237 C  
ENDBRANCH   7  21
ENDBRANCH   2   3
TORSDOF 3
ENDMDL
MODEL       63
REMARK 921   NORMALIZED FREE ENERGY PREDICTED BY IDOCK:   -5.30 KCAL/MOL
REMARK 922        TOTAL FREE ENERGY PREDICTED BY IDOCK:   -6.25 KCAL/MOL
REMARK 923 INTER-LIGAND FREE ENERGY PREDICTED BY IDOCK:   -6.13 KCAL/MOL
REMARK 924 INTRA-LIGAND FREE ENERGY PREDICTED BY IDOCK:   -0.12 KCAL/MOL
REMARK 927      BINDING AFFINITY PREDICTED BY RF-SCORE:    0.00 PKD
ROOT
HETATM    1  C   UNL     1      -8.100   7.150  66.217  1.00  0.00    -0.118 C  
HETATM    2  O   UNL     1      -9.507   7.421  66.217  1.00  0.00    -0.161 OA 
ENDROOT
BRANCH   2   3
HETATM    3  C   UNL     1      -9.879   8.403  67.122  1.00  0.00    -0.215 A  
HETATM    4  C   UNL     1     -10.292   9.655  66.593  1.00  0.00    -0.208 A  
HETATM    5  N   UNL     1     -10.083  10.075  65.236  1.00  0.00    -0.297 NA 
HETATM    6  C   UNL     1     -10.670  11.250  64.779  1.00  0.00    -0.285 C  
HETATM    7  C   UNL     1      -9.922   8.122  68.521  1.00  0.00    -0.190 A  
HETATM    8  C   UNL     1     -11.382  12.109  65.508  1.00  0.00    -0.393 C  
HETATM    9  F   UNL     1     -10.693   8.853  70.656  1.00  0.00    -0.222 F  
HETATM   10  C   UNL     1     -11.943  13.312  64.855  1.00  0.00    -0.378 C  
HETATM   11  C   UNL     1     -10.572   9.064  69.335  1.00  0.00    -0.221 A  
HETATM   12  C   UNL     1     -11.560  11.783  66.942  1.00  0.00    -0.234 C  
HETATM   13  O   UNL     1     -12.640  14.129  65.683  1.00  0.00    -0.487 OA 
HETATM   14  C   UNL     1     -10.967  10.531  67.463  1.00  0.00    -0.365 A  
HETATM   15  O   UNL     1     -12.203  12.546  67.660  1.00  0.00    -0.401 OA 
HETATM   16  O   UNL     1     -11.748  13.600  63.688  1.00  0.00    -0.323 OA 
HETATM   17  C   UNL     1     -11.116  10.237  68.819  1.00  0.00    -0.276 A  
BRANCH   5  18
HETATM   18  C   UNL     1      -9.044   9.452  64.392  1.00  0.00    -0.127 C  
HETATM   19  C   UNL     1      -8.911   9.691  62.899  1.00  0.00    -0.260 C  
HETATM   20  C   UNL     1      -7.912  10.289  63.836  1.00  0.00    -0.126 C  
ENDBRANCH   5  18
BRANCH   7  21
HETATM   21  N   UNL     1      -9.383   6.929  69.015  1.00  0.00    -0.136 NA 
HETATM   22  C   UNL     1     -10.249   5.800  69.372  1.00  0.00    -0.234 C  
HETATM   23  C   UNL     1      -9.425   4.498  69.214  1.00  0.00    -0.172 C  
HETATM   24  N   UNL     1      -8.192   4.473  70.033  1.00  0.00    -0.066 NA 
HETATM   25  C   UNL     1      -7.368   5.674  69.752  1.00  0.00    -0.070 C  
HETATM   26  H   UNL     1      -7.665   3.610  69.902  1.00  0.00     0.000 HD 
HETATM   27  C   UNL     1      -6.146   5.678  70.666  1.00  0.00    -0.030 C  
HETATM   28  C   UNL     1      -8.164   7.017  69.851  1.00  0.00    -0.130 C  
ENDBRANCH   7  21
ENDBRANCH   2   3
TORSDOF 3
ENDMDL
MODEL       64
REMARK 921   NORMALIZED FREE ENERGY PREDICTED BY IDOCK:   -5.23 KCAL/MOL
REMARK 922        TOTAL FREE ENERGY PREDICTED BY IDOCK:   -6.18 KCAL/MOL
REMARK 923 INTER-LIGAND FREE ENERGY PREDICTED BY IDOCK:   -5.51 KCAL/MOL
REMARK 924 INTRA-LIGAND FREE ENERGY PREDICTED BY IDOCK:   -0.67 KCAL/MOL
REMARK 927      BINDING AFFINITY PREDICTED BY RF-SCORE:    0.00 PKD
ROOT
HETATM    1  C   UNL     1      -7.321  12.469  67.763  1.00  0.00    -0.124 C  
HETATM    2  O   UNL     1      -8.305  11.848  66.927  1.00  0.00    -0.169 OA 
ENDROOT
BRANCH   2   3
HETATM    3  C   UNL     1      -9.448  11.465  67.611  1.00  0.00    -0.162 A  
HETATM    4  C   UNL     1      -9.555  10.100  67.991  1.00  0.00    -0.145 A  
HETATM    5  N   UNL     1      -8.727   9.045  67.480  1.00  0.00    -0.120 NA 
HETATM    6  C   UNL     1      -8.806   7.774  68.039  1.00  0.00    -0.124 C  
HETATM    7  C   UNL     1     -10.427  12.434  67.985  1.00  0.00    -0.217 A  
HETATM    8  C   UNL     1      -9.651   7.385  68.993  1.00  0.00    -0.148 C  
HETATM    9  F   UNL     1     -12.334  12.885  69.345  1.00  0.00    -0.285 F  
HETATM   10  C   UNL     1      -9.593   5.988  69.479  1.00  0.00    -0.143 C  
HETATM   11  C   UNL     1     -11.402  12.021  68.909  1.00  0.00    -0.278 A  
HETATM   12  C   UNL     1     -10.600   8.402  69.503  1.00  0.00    -0.213 C  
HETATM   13  O   UNL     1     -10.502   5.688  70.439  1.00  0.00    -0.243 OA 
HETATM   14  C   UNL     1     -10.535   9.772  68.947  1.00  0.00    -0.233 A  
HETATM   15  O   UNL     1     -11.405   8.094  70.378  1.00  0.00    -0.259 OA 
HETATM   16  O   UNL     1      -8.846   5.144  69.019  1.00  0.00    -0.092 OA 
HETATM   17  C   UNL     1     -11.444  10.724  69.411  1.00  0.00    -0.366 A  
BRANCH   5  18
HETATM   18  C   UNL     1      -7.997   9.191  66.205  1.00  0.00    -0.103 C  
HETATM   19  C   UNL     1      -6.484   9.202  66.092  1.00  0.00    -0.065 C  
HETATM   20  C   UNL     1      -7.252   8.013  65.615  1.00  0.00    -0.071 C  
ENDBRANCH   5  18
BRANCH   7  21
HETATM   21  N   UNL     1     -10.357  13.737  67.481  1.00  0.00    -0.240 NA 
HETATM   22  C   UNL     1     -10.101  14.877  68.368  1.00  0.00    -0.225 C  
HETATM   23  C   UNL     1      -9.419  15.988  67.532  1.00  0.00    -0.223 C  
HETATM   24  N   UNL     1     -10.215  16.422  66.362  1.00  0.00    -0.304 NA 
HETATM   25  C   UNL     1     -10.569  15.251  65.522  1.00  0.00    -0.373 C  
HETATM   26  H   UNL     1      -9.739  17.147  65.824  1.00  0.00     0.000 HD 
HETATM   27  C   UNL     1     -11.461  15.702  64.369  1.00  0.00    -0.266 C  
HETATM   28  C   UNL     1     -11.218  14.077  66.326  1.00  0.00    -0.320 C  
ENDBRANCH   7  21
ENDBRANCH   2   3
TORSDOF 3
ENDMDL
MODEL       65
REMARK 921   NORMALIZED FREE ENERGY PREDICTED BY IDOCK:   -5.23 KCAL/MOL
REMARK 922        TOTAL FREE ENERGY PREDICTED BY IDOCK:   -6.17 KCAL/MOL
REMARK 923 INTER-LIGAND FREE ENERGY PREDICTED BY IDOCK:   -5.77 KCAL/MOL
REMARK 924 INTRA-LIGAND FREE ENERGY PREDICTED BY IDOCK:   -0.40 KCAL/MOL
REMARK 927      BINDING AFFINITY PREDICTED BY RF-SCORE:    0.00 PKD
ROOT
HETATM    1  C   UNL     1     -10.400  10.158  65.528  1.00  0.00    -0.126 C  
HETATM    2  O   UNL     1      -9.345  10.367  66.474  1.00  0.00    -0.158 OA 
ENDROOT
BRANCH   2   3
HETATM    3  C   UNL     1      -9.633   9.877  67.739  1.00  0.00    -0.141 A  
HETATM    4  C   UNL     1     -10.357  10.727  68.618  1.00  0.00    -0.192 A  
HETATM    5  N   UNL     1     -10.557  12.133  68.411  1.00  0.00    -0.219 NA 
HETATM    6  C   UNL     1     -11.417  12.837  69.247  1.00  0.00    -0.289 C  
HETATM    7  C   UNL     1      -9.285   8.539  68.095  1.00  0.00    -0.137 A  
HETATM    8  C   UNL     1     -12.055  12.351  70.311  1.00  0.00    -0.377 C  
HETATM    9  F   UNL     1      -9.612   6.767  69.657  1.00  0.00    -0.149 F  
HETATM   10  C   UNL     1     -12.942  13.244  71.088  1.00  0.00    -0.216 C  
HETATM   11  C   UNL     1      -9.855   8.032  69.274  1.00  0.00    -0.178 A  
HETATM   12  C   UNL     1     -11.820  10.926  70.638  1.00  0.00    -0.352 C  
HETATM   13  O   UNL     1     -13.533  12.659  72.158  1.00  0.00    -0.535 OA 
HETATM   14  C   UNL     1     -10.926  10.135  69.762  1.00  0.00    -0.325 A  
HETATM   15  O   UNL     1     -12.378  10.428  71.614  1.00  0.00    -0.370 OA 
HETATM   16  O   UNL     1     -13.089  14.428  70.844  1.00  0.00    -0.354 OA 
HETATM   17  C   UNL     1     -10.688   8.799  70.084  1.00  0.00    -0.239 A  
BRANCH   5  18
HETATM   18  C   UNL     1      -9.674  12.911  67.520  1.00  0.00    -0.205 C  
HETATM   19  C   UNL     1     -10.175  13.816  66.411  1.00  0.00    -0.292 C  
HETATM   20  C   UNL     1      -9.596  14.417  67.650  1.00  0.00    -0.214 C  
ENDBRANCH   5  18
BRANCH   7  21
HETATM   21  N   UNL     1      -8.459   7.781  67.258  1.00  0.00    -0.117 NA 
HETATM   22  C   UNL     1      -7.124   8.257  66.881  1.00  0.00    -0.078 C  
HETATM   23  C   UNL     1      -6.244   7.019  66.580  1.00  0.00    -0.042 C  
HETATM   24  N   UNL     1      -6.791   6.146  65.518  1.00  0.00    -0.051 NA 
HETATM   25  C   UNL     1      -8.184   5.754  65.847  1.00  0.00    -0.121 C  
HETATM   26  H   UNL     1      -6.197   5.334  65.347  1.00  0.00     0.000 HD 
HETATM   27  C   UNL     1      -8.764   4.927  64.703  1.00  0.00    -0.152 C  
HETATM   28  C   UNL     1      -9.107   6.964  66.207  1.00  0.00    -0.141 C  
ENDBRANCH   7  21
ENDBRANCH   2   3
TORSDOF 3
ENDMDL
MODEL       66
REMARK 921   NORMALIZED FREE ENERGY PREDICTED BY IDOCK:   -5.07 KCAL/MOL
REMARK 922        TOTAL FREE ENERGY PREDICTED BY IDOCK:   -5.99 KCAL/MOL
REMARK 923 INTER-LIGAND FREE ENERGY PREDICTED BY IDOCK:   -6.69 KCAL/MOL
REMARK 924 INTRA-LIGAND FREE ENERGY PREDICTED BY IDOCK:    0.70 KCAL/MOL
REMARK 927      BINDING AFFINITY PREDICTED BY RF-SCORE:    0.00 PKD
ROOT
HETATM    1  C   UNL     1     -11.965  12.090  69.307  1.00  0.00    -0.270 C  
HETATM    2  O   UNL     1     -12.059  10.922  68.483  1.00  0.00    -0.545 OA 
ENDROOT
BRANCH   2   3
HETATM    3  C   UNL     1     -10.851  10.263  68.320  1.00  0.00    -0.255 A  
HETATM    4  C   UNL     1     -10.623   9.110  69.118  1.00  0.00    -0.208 A  
HETATM    5  N   UNL     1     -11.405   8.746  70.266  1.00  0.00    -0.202 NA 
HETATM    6  C   UNL     1     -11.200   7.514  70.877  1.00  0.00    -0.269 C  
HETATM    7  C   UNL     1      -9.921  10.689  67.324  1.00  0.00    -0.188 A  
HETATM    8  C   UNL     1     -10.271   6.617  70.550  1.00  0.00    -0.215 C  
HETATM    9  F   UNL     1      -7.969  10.121  66.077  1.00  0.00    -0.108 F  
HETATM   10  C   UNL     1     -10.198   5.348  71.306  1.00  0.00    -0.223 C  
HETATM   11  C   UNL     1      -8.863   9.813  67.032  1.00  0.00    -0.135 A  
HETATM   12  C   UNL     1      -9.367   6.969  69.430  1.00  0.00    -0.146 C  
HETATM   13  O   UNL     1      -9.212   4.509  70.905  1.00  0.00    -0.124 OA 
HETATM   14  C   UNL     1      -9.564   8.263  68.740  1.00  0.00    -0.150 A  
HETATM   15  O   UNL     1      -8.487   6.180  69.092  1.00  0.00    -0.117 OA 
HETATM   16  O   UNL     1     -10.911   5.088  72.259  1.00  0.00    -0.205 OA 
HETATM   17  C   UNL     1      -8.697   8.604  67.701  1.00  0.00    -0.136 A  
BRANCH   5  18
HETATM   18  C   UNL     1     -12.222   9.744  70.985  1.00  0.00    -0.347 C  
HETATM   19  C   UNL     1     -13.661   9.513  71.407  1.00  0.00    -0.353 C  
HETATM   20  C   UNL     1     -12.581   9.528  72.439  1.00  0.00    -0.261 C  
ENDBRANCH   5  18
BRANCH   7  21
HETATM   21  N   UNL     1     -10.116  11.901  66.652  1.00  0.00    -0.198 NA 
HETATM   22  C   UNL     1      -9.771  13.179  67.285  1.00  0.00    -0.230 C  
HETATM   23  C   UNL     1      -9.440  14.193  66.162  1.00  0.00    -0.203 C  
HETATM   24  N   UNL     1     -10.542  14.385  65.192  1.00  0.00    -0.383 NA 
HETATM   25  C   UNL     1     -10.966  13.077  64.635  1.00  0.00    -0.342 C  
HETATM   26  H   UNL     1     -10.293  15.050  64.459  1.00  0.00     0.000 HD 
HETATM   27  C   UNL     1     -12.158  13.282  63.705  1.00  0.00    -0.546 C  
HETATM   28  C   UNL     1     -11.267  11.999  65.727  1.00  0.00    -0.334 C  
ENDBRANCH   7  21
ENDBRANCH   2   3
TORSDOF 3
ENDMDL
MODEL       67
REMARK 921   NORMALIZED FREE ENERGY PREDICTED BY IDOCK:   -5.00 KCAL/MOL
REMARK 922        TOTAL FREE ENERGY PREDICTED BY IDOCK:   -5.90 KCAL/MOL
REMARK 923 INTER-LIGAND FREE ENERGY PREDICTED BY IDOCK:   -5.23 KCAL/MOL
REMARK 924 INTRA-LIGAND FREE ENERGY PREDICTED BY IDOCK:   -0.68 KCAL/MOL
REMARK 927      BINDING AFFINITY PREDICTED BY RF-SCORE:    0.00 PKD
ROOT
HETATM    1  C   UNL     1     -11.741  12.052  68.202  1.00  0.00    -0.333 C  
HETATM    2  O   UNL     1     -10.699  11.931  69.178  1.00  0.00    -0.189 OA 
ENDROOT
BRANCH   2   3
HETATM    3  C   UNL     1      -9.566  11.290  68.700  1.00  0.00    -0.190 A  
HETATM    4  C   UNL     1      -9.475   9.887  68.906  1.00  0.00    -0.170 A  
HETATM    5  N   UNL     1     -10.307   9.139  69.806  1.00  0.00    -0.206 NA 
HETATM    6  C   UNL     1     -10.245   7.750  69.810  1.00  0.00    -0.211 C  
HETATM    7  C   UNL     1      -8.583  12.011  67.958  1.00  0.00    -0.170 A  
HETATM    8  C   UNL     1      -9.414   6.997  69.090  1.00  0.00    -0.143 C  
HETATM    9  F   UNL     1      -6.688  11.849  66.519  1.00  0.00    -0.104 F  
HETATM   10  C   UNL     1      -9.490   5.525  69.212  1.00  0.00    -0.129 C  
HETATM   11  C   UNL     1      -7.623  11.247  67.274  1.00  0.00    -0.130 A  
HETATM   12  C   UNL     1      -8.463   7.708  68.205  1.00  0.00    -0.125 C  
HETATM   13  O   UNL     1      -8.595   4.850  68.450  1.00  0.00    -0.097 OA 
HETATM   14  C   UNL     1      -8.510   9.187  68.157  1.00  0.00    -0.125 A  
HETATM   15  O   UNL     1      -7.670   7.062  67.524  1.00  0.00    -0.107 OA 
HETATM   16  O   UNL     1     -10.238   4.949  69.981  1.00  0.00    -0.264 OA 
HETATM   17  C   UNL     1      -7.598   9.857  67.342  1.00  0.00    -0.091 A  
BRANCH   5  18
HETATM   18  C   UNL     1     -11.021   9.799  70.917  1.00  0.00    -0.341 C  
HETATM   19  C   UNL     1     -12.501   9.619  71.198  1.00  0.00    -0.421 C  
HETATM   20  C   UNL     1     -11.494   8.989  72.105  1.00  0.00    -0.328 C  
ENDBRANCH   5  18
BRANCH   7  21
HETATM   21  N   UNL     1      -8.637  13.408  67.891  1.00  0.00    -0.171 NA 
HETATM   22  C   UNL     1      -9.267  14.085  66.753  1.00  0.00    -0.265 C  
HETATM   23  C   UNL     1      -9.779  15.462  67.242  1.00  0.00    -0.212 C  
HETATM   24  N   UNL     1      -8.720  16.318  67.821  1.00  0.00    -0.178 NA 
HETATM   25  C   UNL     1      -8.007  15.590  68.900  1.00  0.00    -0.187 C  
HETATM   26  H   UNL     1      -9.086  17.214  68.143  1.00  0.00     0.000 HD 
HETATM   27  C   UNL     1      -6.863  16.451  69.426  1.00  0.00    -0.217 C  
HETATM   28  C   UNL     1      -7.509  14.170  68.473  1.00  0.00    -0.123 C  
ENDBRANCH   7  21
ENDBRANCH   2   3
TORSDOF 3
ENDMDL
MODEL       68
REMARK 921   NORMALIZED FREE ENERGY PREDICTED BY IDOCK:   -4.96 KCAL/MOL
REMARK 922        TOTAL FREE ENERGY PREDICTED BY IDOCK:   -5.86 KCAL/MOL
REMARK 923 INTER-LIGAND FREE ENERGY PREDICTED BY IDOCK:   -5.13 KCAL/MOL
REMARK 924 INTRA-LIGAND FREE ENERGY PREDICTED BY IDOCK:   -0.72 KCAL/MOL
REMARK 927      BINDING AFFINITY PREDICTED BY RF-SCORE:    0.00 PKD
ROOT
HETATM    1  C   UNL     1     -11.075  14.493  66.110  1.00  0.00    -0.334 C  
HETATM    2  O   UNL     1     -10.717  14.523  67.497  1.00  0.00    -0.269 OA 
ENDROOT
BRANCH   2   3
HETATM    3  C   UNL     1      -9.349  14.493  67.715  1.00  0.00    -0.198 A  
HETATM    4  C   UNL     1      -8.762  13.233  68.009  1.00  0.00    -0.186 A  
HETATM    5  N   UNL     1      -9.499  12.057  68.379  1.00  0.00    -0.200 NA 
HETATM    6  C   UNL     1      -8.842  10.837  68.485  1.00  0.00    -0.149 C  
HETATM    7  C   UNL     1      -8.564  15.675  67.561  1.00  0.00    -0.172 A  
HETATM    8  C   UNL     1      -7.532  10.633  68.345  1.00  0.00    -0.093 C  
HETATM    9  F   UNL     1      -6.362  16.565  67.334  1.00  0.00    -0.129 F  
HETATM   10  C   UNL     1      -7.000   9.259  68.485  1.00  0.00    -0.067 C  
HETATM   11  C   UNL     1      -7.170  15.507  67.520  1.00  0.00    -0.194 A  
HETATM   12  C   UNL     1      -6.697  11.820  68.053  1.00  0.00    -0.069 C  
HETATM   13  O   UNL     1      -5.656   9.159  68.339  1.00  0.00    -0.037 OA 
HETATM   14  C   UNL     1      -7.361  13.136  67.913  1.00  0.00    -0.131 A  
HETATM   15  O   UNL     1      -5.482  11.689  67.921  1.00  0.00    -0.044 OA 
HETATM   16  O   UNL     1      -7.685   8.296  68.777  1.00  0.00    -0.108 OA 
HETATM   17  C   UNL     1      -6.571  14.258  67.661  1.00  0.00    -0.172 A  
BRANCH   5  18
HETATM   18  C   UNL     1     -10.870  12.150  68.918  1.00  0.00    -0.200 C  
HETATM   19  C   UNL     1     -11.949  11.113  68.668  1.00  0.00    -0.289 C  
HETATM   20  C   UNL     1     -11.320  11.214  70.019  1.00  0.00    -0.326 C  
ENDBRANCH   5  18
BRANCH   7  21
HETATM   21  N   UNL     1      -9.187  16.918  67.404  1.00  0.00    -0.221 NA 
HETATM   22  C   UNL     1      -9.239  17.577  66.095  1.00  0.00    -0.135 C  
HETATM   23  C   UNL     1     -10.490  18.490  66.070  1.00  0.00    -0.400 C  
HETATM   24  N   UNL     1     -10.508  19.502  67.150  1.00  0.00    -0.444 NA 
HETATM   25  C   UNL     1     -10.343  18.843  68.470  1.00  0.00    -0.251 C  
HETATM   26  H   UNL     1     -11.346  20.082  67.116  1.00  0.00     0.000 HD 
HETATM   27  C   UNL     1     -10.276  19.904  69.564  1.00  0.00    -0.032 C  
HETATM   28  C   UNL     1      -9.120  17.871  68.536  1.00  0.00    -0.285 C  
ENDBRANCH   7  21
ENDBRANCH   2   3
TORSDOF 3
ENDMDL
MODEL       69
REMARK 921   NORMALIZED FREE ENERGY PREDICTED BY IDOCK:   -4.95 KCAL/MOL
REMARK 922        TOTAL FREE ENERGY PREDICTED BY IDOCK:   -5.85 KCAL/MOL
REMARK 923 INTER-LIGAND FREE ENERGY PREDICTED BY IDOCK:   -5.17 KCAL/MOL
REMARK 924 INTRA-LIGAND FREE ENERGY PREDICTED BY IDOCK:   -0.67 KCAL/MOL
REMARK 927      BINDING AFFINITY PREDICTED BY RF-SCORE:    0.00 PKD
ROOT
HETATM    1  C   UNL     1     -11.609   9.825  71.210  1.00  0.00    -0.390 C  
HETATM    2  O   UNL     1     -10.229   9.690  70.845  1.00  0.00    -0.295 OA 
ENDROOT
BRANCH   2   3
HETATM    3  C   UNL     1     -10.021   8.822  69.785  1.00  0.00    -0.190 A  
HETATM    4  C   UNL     1      -9.735   7.466  70.098  1.00  0.00    -0.175 A  
HETATM    5  N   UNL     1      -9.365   6.991  71.402  1.00  0.00    -0.156 NA 
HETATM    6  C   UNL     1      -9.266   5.624  71.635  1.00  0.00    -0.142 C  
HETATM    7  C   UNL     1     -10.176   9.271  68.439  1.00  0.00    -0.202 A  
HETATM    8  C   UNL     1      -9.416   4.658  70.730  1.00  0.00    -0.235 C  
HETATM    9  F   UNL     1     -10.415   8.617  66.158  1.00  0.00    -0.316 F  
HETATM   10  C   UNL     1      -9.284   3.247  71.156  1.00  0.00    -0.125 C  
HETATM   11  C   UNL     1     -10.228   8.280  67.445  1.00  0.00    -0.258 A  
HETATM   12  C   UNL     1      -9.710   5.081  69.342  1.00  0.00    -0.184 C  
HETATM   13  O   UNL     1      -9.441   2.341  70.160  1.00  0.00    -0.122 OA 
HETATM   14  C   UNL     1      -9.841   6.527  69.055  1.00  0.00    -0.153 A  
HETATM   15  O   UNL     1      -9.850   4.230  68.466  1.00  0.00    -0.133 OA 
HETATM   16  O   UNL     1      -8.991   2.908  72.288  1.00  0.00    -0.083 OA 
HETATM   17  C   UNL     1     -10.095   6.926  67.742  1.00  0.00    -0.199 A  
BRANCH   5  18
HETATM   18  C   UNL     1      -8.816   7.905  72.423  1.00  0.00    -0.154 C  
HETATM   19  C   UNL     1      -8.530   7.498  73.856  1.00  0.00    -0.250 C  
HETATM   20  C   UNL     1      -7.394   7.732  72.914  1.00  0.00    -0.106 C  
ENDBRANCH   5  18
BRANCH   7  21
HETATM   21  N   UNL     1     -10.325  10.635  68.165  1.00  0.00    -0.168 NA 
HETATM   22  C   UNL     1     -11.652  11.223  67.954  1.00  0.00    -0.256 C  
HETATM   23  C   UNL     1     -11.580  12.718  68.354  1.00  0.00    -0.325 C  
HETATM   24  N   UNL     1     -10.559  13.484  67.606  1.00  0.00    -0.239 NA 
HETATM   25  C   UNL     1      -9.235  12.826  67.728  1.00  0.00    -0.199 C  
HETATM   26  H   UNL     1     -10.527  14.461  67.896  1.00  0.00     0.000 HD 
HETATM   27  C   UNL     1      -8.212  13.577  66.881  1.00  0.00     0.046 C  
HETATM   28  C   UNL     1      -9.260  11.301  67.381  1.00  0.00    -0.162 C  
ENDBRANCH   7  21
ENDBRANCH   2   3
TORSDOF 3
ENDMDL
MODEL       70
REMARK 921   NORMALIZED FREE ENERGY PREDICTED BY IDOCK:   -4.95 KCAL/MOL
REMARK 922        TOTAL FREE ENERGY PREDICTED BY IDOCK:   -5.84 KCAL/MOL
REMARK 923 INTER-LIGAND FREE ENERGY PREDICTED BY IDOCK:   -5.07 KCAL/MOL
REMARK 924 INTRA-LIGAND FREE ENERGY PREDICTED BY IDOCK:   -0.77 KCAL/MOL
REMARK 927      BINDING AFFINITY PREDICTED BY RF-SCORE:    0.00 PKD
ROOT
HETATM    1  C   UNL     1      -8.835  10.693  65.463  1.00  0.00    -0.188 C  
HETATM    2  O   UNL     1      -8.256  10.672  66.774  1.00  0.00    -0.123 OA 
ENDROOT
BRANCH   2   3
HETATM    3  C   UNL     1      -9.197  10.627  67.792  1.00  0.00    -0.146 A  
HETATM    4  C   UNL     1      -9.667  11.868  68.299  1.00  0.00    -0.200 A  
HETATM    5  N   UNL     1      -9.047  13.138  68.051  1.00  0.00    -0.200 NA 
HETATM    6  C   UNL     1      -9.681  14.307  68.459  1.00  0.00    -0.225 C  
HETATM    7  C   UNL     1      -9.723   9.378  68.239  1.00  0.00    -0.145 A  
HETATM    8  C   UNL     1     -10.818  14.386  69.149  1.00  0.00    -0.275 C  
HETATM    9  F   UNL     1     -11.443   8.297  69.488  1.00  0.00    -0.020 F  
HETATM   10  C   UNL     1     -11.358  15.720  69.495  1.00  0.00    -0.328 C  
HETATM   11  C   UNL     1     -10.861   9.430  69.060  1.00  0.00    -0.136 A  
HETATM   12  C   UNL     1     -11.467  13.107  69.520  1.00  0.00    -0.226 C  
HETATM   13  O   UNL     1     -12.511  15.693  70.208  1.00  0.00    -0.410 OA 
HETATM   14  C   UNL     1     -10.834  11.841  69.087  1.00  0.00    -0.221 A  
HETATM   15  O   UNL     1     -12.515  13.123  70.162  1.00  0.00    -0.233 OA 
HETATM   16  O   UNL     1     -10.792  16.765  69.232  1.00  0.00    -0.325 OA 
HETATM   17  C   UNL     1     -11.433  10.636  69.457  1.00  0.00    -0.360 A  
BRANCH   5  18
HETATM   18  C   UNL     1      -7.636  13.233  67.628  1.00  0.00    -0.170 C  
HETATM   19  C   UNL     1      -6.802  14.495  67.739  1.00  0.00    -0.193 C  
HETATM   20  C   UNL     1      -6.537  13.351  68.662  1.00  0.00    -0.091 C  
ENDBRANCH   5  18
BRANCH   7  21
HETATM   21  N   UNL     1      -9.143   8.178  67.814  1.00  0.00    -0.135 NA 
HETATM   22  C   UNL     1      -9.758   7.376  66.751  1.00  0.00    -0.207 C  
HETATM   23  C   UNL     1      -8.636   6.567  66.054  1.00  0.00    -0.148 C  
HETATM   24  N   UNL     1      -7.876   5.693  66.975  1.00  0.00    -0.101 NA 
HETATM   25  C   UNL     1      -7.346   6.486  68.112  1.00  0.00    -0.090 C  
HETATM   26  H   UNL     1      -7.138   5.180  66.492  1.00  0.00     0.000 HD 
HETATM   27  C   UNL     1      -6.640   5.558  69.096  1.00  0.00    -0.047 C  
HETATM   28  C   UNL     1      -8.430   7.361  68.823  1.00  0.00    -0.129 C  
ENDBRANCH   7  21
ENDBRANCH   2   3
TORSDOF 3
ENDMDL
MODEL       71
REMARK 921   NORMALIZED FREE ENERGY PREDICTED BY IDOCK:   -4.91 KCAL/MOL
REMARK 922        TOTAL FREE ENERGY PREDICTED BY IDOCK:   -5.80 KCAL/MOL
REMARK 923 INTER-LIGAND FREE ENERGY PREDICTED BY IDOCK:   -6.76 KCAL/MOL
REMARK 924 INTRA-LIGAND FREE ENERGY PREDICTED BY IDOCK:    0.96 KCAL/MOL
REMARK 927      BINDING AFFINITY PREDICTED BY RF-SCORE:    0.00 PKD
ROOT
HETATM    1  C   UNL     1      -5.929  15.869  68.067  1.00  0.00    -0.131 C  
HETATM    2  O   UNL     1      -7.268  16.063  68.539  1.00  0.00    -0.128 OA 
ENDROOT
BRANCH   2   3
HETATM    3  C   UNL     1      -8.155  16.438  67.543  1.00  0.00    -0.148 A  
HETATM    4  C   UNL     1      -9.005  15.431  67.012  1.00  0.00    -0.231 A  
HETATM    5  N   UNL     1      -8.823  14.021  67.215  1.00  0.00    -0.207 NA 
HETATM    6  C   UNL     1      -9.803  13.131  66.789  1.00  0.00    -0.251 C  
HETATM    7  C   UNL     1      -8.257  17.804  67.139  1.00  0.00    -0.219 A  
HETATM    8  C   UNL     1     -10.913  13.443  66.121  1.00  0.00    -0.285 C  
HETATM    9  F   UNL     1      -9.551  19.417  65.952  1.00  0.00    -0.363 F  
HETATM   10  C   UNL     1     -11.856  12.364  65.751  1.00  0.00    -0.406 C  
HETATM   11  C   UNL     1      -9.360  18.145  66.339  1.00  0.00    -0.265 A  
HETATM   12  C   UNL     1     -11.120  14.873  65.797  1.00  0.00    -0.342 C  
HETATM   13  O   UNL     1     -12.947  12.782  65.063  1.00  0.00    -0.811 OA 
HETATM   14  C   UNL     1     -10.109  15.856  66.249  1.00  0.00    -0.317 A  
HETATM   15  O   UNL     1     -12.124  15.214  65.176  1.00  0.00    -0.143 OA 
HETATM   16  O   UNL     1     -11.654  11.185  65.975  1.00  0.00    -0.082 OA 
HETATM   17  C   UNL     1     -10.293  17.200  65.923  1.00  0.00    -0.294 A  
BRANCH   5  18
HETATM   18  C   UNL     1      -7.513  13.466  67.607  1.00  0.00    -0.178 C  
HETATM   19  C   UNL     1      -7.330  12.405  68.677  1.00  0.00    -0.102 C  
HETATM   20  C   UNL     1      -7.147  12.044  67.238  1.00  0.00    -0.149 C  
ENDBRANCH   5  18
BRANCH   7  21
HETATM   21  N   UNL     1      -7.317  18.740  67.583  1.00  0.00    -0.223 NA 
HETATM   22  C   UNL     1      -6.182  19.129  66.739  1.00  0.00    -0.177 C  
HETATM   23  C   UNL     1      -5.760  20.565  67.139  1.00  0.00    -0.172 C  
HETATM   24  N   UNL     1      -5.403  20.702  68.568  1.00  0.00    -0.262 NA 
HETATM   25  C   UNL     1      -6.509  20.204  69.422  1.00  0.00    -0.295 C  
HETATM   26  H   UNL     1      -5.139  21.658  68.805  1.00  0.00     0.000 HD 
HETATM   27  C   UNL     1      -6.092  20.271  70.888  1.00  0.00    -0.278 C  
HETATM   28  C   UNL     1      -7.008  18.774  69.030  1.00  0.00    -0.295 C  
ENDBRANCH   7  21
ENDBRANCH   2   3
TORSDOF 3
ENDMDL
MODEL       72
REMARK 921   NORMALIZED FREE ENERGY PREDICTED BY IDOCK:   -4.90 KCAL/MOL
REMARK 922        TOTAL FREE ENERGY PREDICTED BY IDOCK:   -5.78 KCAL/MOL
REMARK 923 INTER-LIGAND FREE ENERGY PREDICTED BY IDOCK:   -5.68 KCAL/MOL
REMARK 924 INTRA-LIGAND FREE ENERGY PREDICTED BY IDOCK:   -0.10 KCAL/MOL
REMARK 927      BINDING AFFINITY PREDICTED BY RF-SCORE:    0.00 PKD
ROOT
HETATM    1  C   UNL     1      -8.298   8.093  67.067  1.00  0.00    -0.116 C  
HETATM    2  O   UNL     1      -9.722   8.086  67.223  1.00  0.00    -0.154 OA 
ENDROOT
BRANCH   2   3
HETATM    3  C   UNL     1     -10.133   7.915  68.536  1.00  0.00    -0.197 A  
HETATM    4  C   UNL     1     -10.638   9.055  69.216  1.00  0.00    -0.213 A  
HETATM    5  N   UNL     1     -10.491  10.408  68.758  1.00  0.00    -0.187 NA 
HETATM    6  C   UNL     1     -11.164  11.434  69.413  1.00  0.00    -0.268 C  
HETATM    7  C   UNL     1     -10.121   6.619  69.136  1.00  0.00    -0.169 A  
HETATM    8  C   UNL     1     -11.910  11.312  70.510  1.00  0.00    -0.421 C  
HETATM    9  F   UNL     1     -10.880   5.286  70.962  1.00  0.00    -0.303 F  
HETATM   10  C   UNL     1     -12.563  12.515  71.073  1.00  0.00    -0.256 C  
HETATM   11  C   UNL     1     -10.808   6.482  70.354  1.00  0.00    -0.273 A  
HETATM   12  C   UNL     1     -12.030   9.955  71.091  1.00  0.00    -0.384 C  
HETATM   13  O   UNL     1     -13.288  12.288  72.196  1.00  0.00    -0.526 OA 
HETATM   14  C   UNL     1     -11.344   8.831  70.413  1.00  0.00    -0.213 A  
HETATM   15  O   UNL     1     -12.700   9.788  72.107  1.00  0.00    -0.376 OA 
HETATM   16  O   UNL     1     -12.418  13.636  70.620  1.00  0.00    -0.344 OA 
HETATM   17  C   UNL     1     -11.438   7.557  70.973  1.00  0.00    -0.299 A  
BRANCH   5  18
HETATM   18  C   UNL     1      -9.438  10.781  67.794  1.00  0.00    -0.155 C  
HETATM   19  C   UNL     1      -9.294  12.166  67.192  1.00  0.00    -0.193 C  
HETATM   20  C   UNL     1      -8.310  11.700  68.216  1.00  0.00    -0.159 C  
ENDBRANCH   5  18
BRANCH   7  21
HETATM   21  N   UNL     1      -9.495   5.549  68.488  1.00  0.00    -0.117 NA 
HETATM   22  C   UNL     1     -10.273   4.571  67.721  1.00  0.00     0.088 C  
HETATM   23  C   UNL     1      -9.351   3.982  66.625  1.00  0.00    -0.184 C  
HETATM   24  N   UNL     1      -8.124   3.350  67.158  1.00  0.00    -0.082 NA 
HETATM   25  C   UNL     1      -7.392   4.306  68.026  1.00  0.00    -0.064 C  
HETATM   26  H   UNL     1      -7.531   2.980  66.415  1.00  0.00     0.000 HD 
HETATM   27  C   UNL     1      -6.178   3.613  68.637  1.00  0.00    -0.032 C  
HETATM   28  C   UNL     1      -8.290   4.968  69.123  1.00  0.00    -0.086 C  
ENDBRANCH   7  21
ENDBRANCH   2   3
TORSDOF 3
ENDMDL
MODEL       73
REMARK 921   NORMALIZED FREE ENERGY PREDICTED BY IDOCK:   -4.82 KCAL/MOL
REMARK 922        TOTAL FREE ENERGY PREDICTED BY IDOCK:   -5.69 KCAL/MOL
REMARK 923 INTER-LIGAND FREE ENERGY PREDICTED BY IDOCK:   -5.32 KCAL/MOL
REMARK 924 INTRA-LIGAND FREE ENERGY PREDICTED BY IDOCK:   -0.37 KCAL/MOL
REMARK 927      BINDING AFFINITY PREDICTED BY RF-SCORE:    0.00 PKD
ROOT
HETATM    1  C   UNL     1      -7.395   8.083  67.676  1.00  0.00    -0.093 C  
HETATM    2  O   UNL     1      -8.765   8.003  67.263  1.00  0.00    -0.129 OA 
ENDROOT
BRANCH   2   3
HETATM    3  C   UNL     1      -9.665   8.149  68.308  1.00  0.00    -0.161 A  
HETATM    4  C   UNL     1      -9.930   7.004  69.106  1.00  0.00    -0.165 A  
HETATM    5  N   UNL     1      -9.572   5.661  68.748  1.00  0.00    -0.125 NA 
HETATM    6  C   UNL     1      -9.731   4.635  69.673  1.00  0.00    -0.213 C  
HETATM    7  C   UNL     1     -10.227   9.427  68.608  1.00  0.00    -0.201 A  
HETATM    8  C   UNL     1     -10.268   4.746  70.888  1.00  0.00    -0.247 C  
HETATM    9  F   UNL     1     -11.417  10.730  70.212  1.00  0.00    -0.310 F  
HETATM   10  C   UNL     1     -10.353   3.546  71.748  1.00  0.00     0.142 C  
HETATM   11  C   UNL     1     -10.897   9.549  69.836  1.00  0.00    -0.246 A  
HETATM   12  C   UNL     1     -10.745   6.090  71.288  1.00  0.00    -0.263 C  
HETATM   13  O   UNL     1     -10.927   3.761  72.958  1.00  0.00    -0.155 OA 
HETATM   14  C   UNL     1     -10.576   7.214  70.339  1.00  0.00    -0.242 A  
HETATM   15  O   UNL     1     -11.255   6.247  72.395  1.00  0.00    -0.253 OA 
HETATM   16  O   UNL     1     -10.007   2.434  71.393  1.00  0.00    -0.144 OA 
HETATM   17  C   UNL     1     -11.047   8.474  70.707  1.00  0.00    -0.288 A  
BRANCH   5  18
HETATM   18  C   UNL     1      -9.301   5.287  67.346  1.00  0.00    -0.116 C  
HETATM   19  C   UNL     1      -9.567   3.908  66.772  1.00  0.00    -0.222 C  
HETATM   20  C   UNL     1     -10.448   5.051  66.386  1.00  0.00    -0.349 C  
ENDBRANCH   5  18
BRANCH   7  21
HETATM   21  N   UNL     1     -10.050  10.498  67.725  1.00  0.00    -0.170 NA 
HETATM   22  C   UNL     1     -10.493  10.407  66.329  1.00  0.00    -0.159 C  
HETATM   23  C   UNL     1     -10.803  11.841  65.834  1.00  0.00    -0.291 C  
HETATM   24  N   UNL     1      -9.656  12.769  65.944  1.00  0.00    -0.420 NA 
HETATM   25  C   UNL     1      -9.136  12.777  67.334  1.00  0.00    -0.192 C  
HETATM   26  H   UNL     1      -9.891  13.707  65.620  1.00  0.00     0.000 HD 
HETATM   27  C   UNL     1      -7.902  13.669  67.412  1.00  0.00    -0.162 C  
HETATM   28  C   UNL     1      -8.851  11.348  67.903  1.00  0.00    -0.149 C  
ENDBRANCH   7  21
ENDBRANCH   2   3
TORSDOF 3
ENDMDL
MODEL       74
REMARK 921   NORMALIZED FREE ENERGY PREDICTED BY IDOCK:   -4.82 KCAL/MOL
REMARK 922        TOTAL FREE ENERGY PREDICTED BY IDOCK:   -5.69 KCAL/MOL
REMARK 923 INTER-LIGAND FREE ENERGY PREDICTED BY IDOCK:   -5.87 KCAL/MOL
REMARK 924 INTRA-LIGAND FREE ENERGY PREDICTED BY IDOCK:    0.18 KCAL/MOL
REMARK 927      BINDING AFFINITY PREDICTED BY RF-SCORE:    0.00 PKD
ROOT
HETATM    1  C   UNL     1      -6.936  12.584  67.087  1.00  0.00    -0.055 C  
HETATM    2  O   UNL     1      -7.827  12.916  68.158  1.00  0.00    -0.127 OA 
ENDROOT
BRANCH   2   3
HETATM    3  C   UNL     1      -8.870  13.743  67.771  1.00  0.00    -0.188 A  
HETATM    4  C   UNL     1      -8.559  15.102  67.496  1.00  0.00    -0.180 A  
HETATM    5  N   UNL     1      -7.329  15.746  67.861  1.00  0.00    -0.128 NA 
HETATM    6  C   UNL     1      -7.060  17.030  67.401  1.00  0.00    -0.157 C  
HETATM    7  C   UNL     1     -10.182  13.214  67.577  1.00  0.00    -0.225 A  
HETATM    8  C   UNL     1      -7.880  17.798  66.684  1.00  0.00    -0.277 C  
HETATM    9  F   UNL     1     -12.350  13.602  66.662  1.00  0.00    -0.425 F  
HETATM   10  C   UNL     1      -7.427  19.144  66.272  1.00  0.00    -0.269 C  
HETATM   11  C   UNL     1     -11.107  14.042  66.921  1.00  0.00    -0.304 A  
HETATM   12  C   UNL     1      -9.207  17.230  66.350  1.00  0.00    -0.253 C  
HETATM   13  O   UNL     1      -8.338  19.851  65.558  1.00  0.00    -0.294 OA 
HETATM   14  C   UNL     1      -9.525  15.857  66.804  1.00  0.00    -0.254 A  
HETATM   15  O   UNL     1     -10.004  17.899  65.697  1.00  0.00    -0.539 OA 
HETATM   16  O   UNL     1      -6.356  19.625  66.594  1.00  0.00    -0.180 OA 
HETATM   17  C   UNL     1     -10.783  15.332  66.509  1.00  0.00    -0.311 A  
BRANCH   5  18
HETATM   18  C   UNL     1      -6.466  15.203  68.929  1.00  0.00    -0.098 C  
HETATM   19  C   UNL     1      -5.797  16.054  69.991  1.00  0.00    -0.173 C  
HETATM   20  C   UNL     1      -6.952  15.181  70.362  1.00  0.00     0.235 C  
ENDBRANCH   5  18
BRANCH   7  21
HETATM   21  N   UNL     1     -10.481  11.909  67.984  1.00  0.00    -0.202 NA 
HETATM   22  C   UNL     1     -10.789  11.606  69.386  1.00  0.00    -0.096 C  
HETATM   23  C   UNL     1     -11.699  10.354  69.415  1.00  0.00    -0.160 C  
HETATM   24  N   UNL     1     -11.101   9.170  68.758  1.00  0.00    -0.447 NA 
HETATM   25  C   UNL     1     -10.687   9.508  67.374  1.00  0.00    -0.227 C  
HETATM   26  H   UNL     1     -11.725   8.364  68.783  1.00  0.00     0.000 HD 
HETATM   27  C   UNL     1      -9.994   8.305  66.742  1.00  0.00    -0.355 C  
HETATM   28  C   UNL     1      -9.803  10.795  67.282  1.00  0.00    -0.179 C  
ENDBRANCH   7  21
ENDBRANCH   2   3
TORSDOF 3
ENDMDL
MODEL       75
REMARK 921   NORMALIZED FREE ENERGY PREDICTED BY IDOCK:   -4.78 KCAL/MOL
REMARK 922        TOTAL FREE ENERGY PREDICTED BY IDOCK:   -5.65 KCAL/MOL
REMARK 923 INTER-LIGAND FREE ENERGY PREDICTED BY IDOCK:   -5.70 KCAL/MOL
REMARK 924 INTRA-LIGAND FREE ENERGY PREDICTED BY IDOCK:    0.05 KCAL/MOL
REMARK 927      BINDING AFFINITY PREDICTED BY RF-SCORE:    0.00 PKD
ROOT
HETATM    1  C   UNL     1     -10.850  15.461  66.219  1.00  0.00    -0.301 C  
HETATM    2  O   UNL     1     -10.419  15.498  67.585  1.00  0.00    -0.267 OA 
ENDROOT
BRANCH   2   3
HETATM    3  C   UNL     1      -9.232  14.818  67.807  1.00  0.00    -0.194 A  
HETATM    4  C   UNL     1      -9.319  13.428  68.088  1.00  0.00    -0.217 A  
HETATM    5  N   UNL     1     -10.530  12.742  68.440  1.00  0.00    -0.239 NA 
HETATM    6  C   UNL     1     -10.534  11.354  68.534  1.00  0.00    -0.203 C  
HETATM    7  C   UNL     1      -7.977  15.485  67.671  1.00  0.00    -0.151 A  
HETATM    8  C   UNL     1      -9.479  10.552  68.396  1.00  0.00    -0.158 C  
HETATM    9  F   UNL     1      -5.616  15.220  67.464  1.00  0.00    -0.141 F  
HETATM   10  C   UNL     1      -9.666   9.090  68.521  1.00  0.00    -0.159 C  
HETATM   11  C   UNL     1      -6.831  14.673  67.633  1.00  0.00    -0.183 A  
HETATM   12  C   UNL     1      -8.176  11.202  68.122  1.00  0.00    -0.131 C  
HETATM   13  O   UNL     1      -8.531   8.363  68.378  1.00  0.00    -0.133 OA 
HETATM   14  C   UNL     1      -8.132  12.676  67.996  1.00  0.00    -0.161 A  
HETATM   15  O   UNL     1      -7.170  10.509  67.993  1.00  0.00    -0.085 OA 
HETATM   16  O   UNL     1     -10.730   8.567  68.798  1.00  0.00    -0.169 OA 
HETATM   17  C   UNL     1      -6.901  13.289  67.761  1.00  0.00    -0.154 A  
BRANCH   5  18
HETATM   18  C   UNL     1     -11.697  13.471  68.975  1.00  0.00    -0.327 C  
HETATM   19  C   UNL     1     -12.535  12.986  70.142  1.00  0.00    -0.166 C  
HETATM   20  C   UNL     1     -11.616  14.150  70.326  1.00  0.00    -0.267 C  
ENDBRANCH   5  18
BRANCH   7  21
HETATM   21  N   UNL     1      -7.932  16.876  67.528  1.00  0.00    -0.167 NA 
HETATM   22  C   UNL     1      -8.895  17.738  68.222  1.00  0.00    -0.277 C  
HETATM   23  C   UNL     1      -8.227  19.118  68.442  1.00  0.00    -0.349 C  
HETATM   24  N   UNL     1      -7.775  19.765  67.190  1.00  0.00    -0.255 NA 
HETATM   25  C   UNL     1      -6.887  18.847  66.432  1.00  0.00    -0.211 C  
HETATM   26  H   UNL     1      -7.331  20.666  67.365  1.00  0.00     0.000 HD 
HETATM   27  C   UNL     1      -6.500  19.493  65.106  1.00  0.00    -0.313 C  
HETATM   28  C   UNL     1      -7.494  17.421  66.223  1.00  0.00    -0.319 C  
ENDBRANCH   7  21
ENDBRANCH   2   3
TORSDOF 3
ENDMDL
MODEL       76
REMARK 921   NORMALIZED FREE ENERGY PREDICTED BY IDOCK:   -4.69 KCAL/MOL
REMARK 922        TOTAL FREE ENERGY PREDICTED BY IDOCK:   -5.54 KCAL/MOL
REMARK 923 INTER-LIGAND FREE ENERGY PREDICTED BY IDOCK:   -5.57 KCAL/MOL
REMARK 924 INTRA-LIGAND FREE ENERGY PREDICTED BY IDOCK:    0.02 KCAL/MOL
REMARK 927      BINDING AFFINITY PREDICTED BY RF-SCORE:    0.00 PKD
ROOT
HETATM    1  C   UNL     1     -12.447  11.563  69.384  1.00  0.00     0.061 C  
HETATM    2  O   UNL     1     -12.003  10.383  68.702  1.00  0.00    -0.249 OA 
ENDROOT
BRANCH   2   3
HETATM    3  C   UNL     1     -10.719   9.994  69.051  1.00  0.00    -0.220 A  
HETATM    4  C   UNL     1     -10.592   8.943  69.999  1.00  0.00    -0.220 A  
HETATM    5  N   UNL     1     -11.660   8.458  70.826  1.00  0.00    -0.265 NA 
HETATM    6  C   UNL     1     -11.469   7.319  71.601  1.00  0.00    -0.265 C  
HETATM    7  C   UNL     1      -9.585  10.577  68.411  1.00  0.00    -0.160 A  
HETATM    8  C   UNL     1     -10.333   6.632  71.725  1.00  0.00    -0.218 C  
HETATM    9  F   UNL     1      -7.240  10.400  68.009  1.00  0.00    -0.079 F  
HETATM   10  C   UNL     1     -10.310   5.433  72.591  1.00  0.00    -0.203 C  
HETATM   11  C   UNL     1      -8.349   9.939  68.611  1.00  0.00    -0.110 A  
HETATM   12  C   UNL     1      -9.162   7.133  70.969  1.00  0.00    -0.158 C  
HETATM   13  O   UNL     1      -9.106   4.812  72.661  1.00  0.00    -0.126 OA 
HETATM   14  C   UNL     1      -9.329   8.331  70.117  1.00  0.00    -0.159 A  
HETATM   15  O   UNL     1      -8.089   6.540  71.053  1.00  0.00    -0.116 OA 
HETATM   16  O   UNL     1     -11.262   5.058  73.251  1.00  0.00    -0.309 OA 
HETATM   17  C   UNL     1      -8.220   8.816  69.423  1.00  0.00    -0.108 A  
BRANCH   5  18
HETATM   18  C   UNL     1     -12.856   9.279  71.095  1.00  0.00    -0.222 C  
HETATM   19  C   UNL     1     -14.147   8.731  71.673  1.00  0.00    -0.437 C  
HETATM   20  C   UNL     1     -13.264   9.589  72.519  1.00  0.00    -0.356 C  
ENDBRANCH   5  18
BRANCH   7  21
HETATM   21  N   UNL     1      -9.741  11.697  67.586  1.00  0.00    -0.177 NA 
HETATM   22  C   UNL     1      -9.722  11.566  66.125  1.00  0.00    -0.223 C  
HETATM   23  C   UNL     1     -10.559  12.726  65.532  1.00  0.00    -0.281 C  
HETATM   24  N   UNL     1     -10.079  14.069  65.930  1.00  0.00    -0.311 NA 
HETATM   25  C   UNL     1      -9.992  14.163  67.408  1.00  0.00    -0.240 C  
HETATM   26  H   UNL     1     -10.653  14.812  65.533  1.00  0.00     0.000 HD 
HETATM   27  C   UNL     1      -9.413  15.519  67.799  1.00  0.00    -0.204 C  
HETATM   28  C   UNL     1      -9.196  12.987  68.064  1.00  0.00    -0.212 C  
ENDBRANCH   7  21
ENDBRANCH   2   3
TORSDOF 3
ENDMDL
MODEL       77
REMARK 921   NORMALIZED FREE ENERGY PREDICTED BY IDOCK:   -4.69 KCAL/MOL
REMARK 922        TOTAL FREE ENERGY PREDICTED BY IDOCK:   -5.53 KCAL/MOL
REMARK 923 INTER-LIGAND FREE ENERGY PREDICTED BY IDOCK:   -5.16 KCAL/MOL
REMARK 924 INTRA-LIGAND FREE ENERGY PREDICTED BY IDOCK:   -0.38 KCAL/MOL
REMARK 927      BINDING AFFINITY PREDICTED BY RF-SCORE:    0.00 PKD
ROOT
HETATM    1  C   UNL     1      -8.960   6.938  68.455  1.00  0.00    -0.121 C  
HETATM    2  O   UNL     1      -8.392   7.729  69.506  1.00  0.00    -0.126 OA 
ENDROOT
BRANCH   2   3
HETATM    3  C   UNL     1      -9.339   8.276  70.357  1.00  0.00    -0.159 A  
HETATM    4  C   UNL     1      -9.836   9.568  70.037  1.00  0.00    -0.233 A  
HETATM    5  N   UNL     1      -9.237  10.458  69.083  1.00  0.00    -0.189 NA 
HETATM    6  C   UNL     1      -9.895  11.630  68.725  1.00  0.00    -0.116 C  
HETATM    7  C   UNL     1      -9.846   7.523  71.459  1.00  0.00    -0.166 A  
HETATM    8  C   UNL     1     -11.039  12.079  69.240  1.00  0.00    -0.246 C  
HETATM    9  F   UNL     1     -11.555   7.356  73.114  1.00  0.00    -0.296 F  
HETATM   10  C   UNL     1     -11.605  13.349  68.734  1.00  0.00    -0.325 C  
HETATM   11  C   UNL     1     -10.991   8.028  72.096  1.00  0.00    -0.295 A  
HETATM   12  C   UNL     1     -11.667  11.254  70.298  1.00  0.00    -0.324 C  
HETATM   13  O   UNL     1     -12.763  13.727  69.331  1.00  0.00     0.001 OA 
HETATM   14  C   UNL     1     -11.008   9.989  70.694  1.00  0.00    -0.392 A  
HETATM   15  O   UNL     1     -12.719  11.626  70.812  1.00  0.00    -0.285 OA 
HETATM   16  O   UNL     1     -11.057  14.048  67.902  1.00  0.00    -0.244 OA 
HETATM   17  C   UNL     1     -11.587   9.224  71.707  1.00  0.00    -0.458 A  
BRANCH   5  18
HETATM   18  C   UNL     1      -7.825  10.311  68.678  1.00  0.00    -0.101 C  
HETATM   19  C   UNL     1      -7.021  11.405  68.002  1.00  0.00    -0.069 C  
HETATM   20  C   UNL     1      -6.738  11.053  69.426  1.00  0.00    -0.112 C  
ENDBRANCH   5  18
BRANCH   7  21
HETATM   21  N   UNL     1      -9.240   6.315  71.822  1.00  0.00    -0.144 NA 
HETATM   22  C   UNL     1      -7.800   6.242  72.088  1.00  0.00    -0.104 C  
HETATM   23  C   UNL     1      -7.555   5.073  73.075  1.00  0.00    -0.093 C  
HETATM   24  N   UNL     1      -8.048   3.768  72.582  1.00  0.00    -0.087 NA 
HETATM   25  C   UNL     1      -9.481   3.871  72.207  1.00  0.00    -0.128 C  
HETATM   26  H   UNL     1      -7.883   3.019  73.254  1.00  0.00     0.000 HD 
HETATM   27  C   UNL     1      -9.950   2.544  71.620  1.00  0.00    -0.162 C  
HETATM   28  C   UNL     1      -9.792   5.067  71.248  1.00  0.00    -0.182 C  
ENDBRANCH   7  21
ENDBRANCH   2   3
TORSDOF 3
ENDMDL
MODEL       78
REMARK 921   NORMALIZED FREE ENERGY PREDICTED BY IDOCK:   -4.61 KCAL/MOL
REMARK 922        TOTAL FREE ENERGY PREDICTED BY IDOCK:   -5.45 KCAL/MOL
REMARK 923 INTER-LIGAND FREE ENERGY PREDICTED BY IDOCK:   -4.65 KCAL/MOL
REMARK 924 INTRA-LIGAND FREE ENERGY PREDICTED BY IDOCK:   -0.80 KCAL/MOL
REMARK 927      BINDING AFFINITY PREDICTED BY RF-SCORE:    0.00 PKD
ROOT
HETATM    1  C   UNL     1     -11.005   6.682  67.102  1.00  0.00    -0.408 C  
HETATM    2  O   UNL     1     -10.824   7.690  68.103  1.00  0.00    -0.110 OA 
ENDROOT
BRANCH   2   3
HETATM    3  C   UNL     1      -9.586   7.635  68.724  1.00  0.00    -0.153 A  
HETATM    4  C   UNL     1      -9.479   6.838  69.896  1.00  0.00    -0.156 A  
HETATM    5  N   UNL     1     -10.595   6.329  70.640  1.00  0.00    -0.232 NA 
HETATM    6  C   UNL     1     -10.380   5.426  71.675  1.00  0.00    -0.218 C  
HETATM    7  C   UNL     1      -8.455   8.288  68.147  1.00  0.00    -0.132 A  
HETATM    8  C   UNL     1      -9.196   5.011  72.124  1.00  0.00    -0.156 C  
HETATM    9  F   UNL     1      -6.079   8.493  68.158  1.00  0.00    -0.045 F  
HETATM   10  C   UNL     1      -9.151   4.035  73.236  1.00  0.00    -0.106 C  
HETATM   11  C   UNL     1      -7.197   7.955  68.674  1.00  0.00    -0.081 A  
HETATM   12  C   UNL     1      -7.995   5.569  71.461  1.00  0.00    -0.116 C  
HETATM   13  O   UNL     1      -7.901   3.687  73.629  1.00  0.00    -0.069 OA 
HETATM   14  C   UNL     1      -8.182   6.519  70.341  1.00  0.00    -0.125 A  
HETATM   15  O   UNL     1      -6.878   5.225  71.841  1.00  0.00    -0.060 OA 
HETATM   16  O   UNL     1     -10.141   3.621  73.811  1.00  0.00    -0.116 OA 
HETATM   17  C   UNL     1      -7.050   7.062  69.732  1.00  0.00    -0.067 A  
BRANCH   5  18
HETATM   18  C   UNL     1     -11.935   6.939  70.527  1.00  0.00    -0.305 C  
HETATM   19  C   UNL     1     -12.994   6.862  71.610  1.00  0.00    -0.359 C  
HETATM   20  C   UNL     1     -12.290   8.155  71.356  1.00  0.00    -0.323 C  
ENDBRANCH   5  18
BRANCH   7  21
HETATM   21  N   UNL     1      -8.624   9.169  67.074  1.00  0.00    -0.123 NA 
HETATM   22  C   UNL     1      -8.202   8.798  65.719  1.00  0.00    -0.121 C  
HETATM   23  C   UNL     1      -9.082   9.582  64.714  1.00  0.00    -0.218 C  
HETATM   24  N   UNL     1      -9.013  11.051  64.884  1.00  0.00    -0.326 NA 
HETATM   25  C   UNL     1      -9.332  11.418  66.286  1.00  0.00    -0.212 C  
HETATM   26  H   UNL     1      -9.608  11.541  64.217  1.00  0.00     0.000 HD 
HETATM   27  C   UNL     1      -9.170  12.924  66.467  1.00  0.00    -0.186 C  
HETATM   28  C   UNL     1      -8.504  10.620  67.346  1.00  0.00    -0.122 C  
ENDBRANCH   7  21
ENDBRANCH   2   3
TORSDOF 3
ENDMDL
MODEL       79
REMARK 921   NORMALIZED FREE ENERGY PREDICTED BY IDOCK:   -4.61 KCAL/MOL
REMARK 922        TOTAL FREE ENERGY PREDICTED BY IDOCK:   -5.44 KCAL/MOL
REMARK 923 INTER-LIGAND FREE ENERGY PREDICTED BY IDOCK:   -6.62 KCAL/MOL
REMARK 924 INTRA-LIGAND FREE ENERGY PREDICTED BY IDOCK:    1.17 KCAL/MOL
REMARK 927      BINDING AFFINITY PREDICTED BY RF-SCORE:    0.00 PKD
ROOT
HETATM    1  C   UNL     1     -12.648  14.651  66.261  1.00  0.00     0.174 C  
HETATM    2  O   UNL     1     -11.401  14.471  66.943  1.00  0.00    -0.326 OA 
ENDROOT
BRANCH   2   3
HETATM    3  C   UNL     1     -11.474  13.579  68.001  1.00  0.00    -0.307 A  
HETATM    4  C   UNL     1     -11.663  14.121  69.300  1.00  0.00    -0.323 A  
HETATM    5  N   UNL     1     -11.496  15.507  69.637  1.00  0.00    -0.303 NA 
HETATM    6  C   UNL     1     -11.863  15.958  70.900  1.00  0.00    -0.417 C  
HETATM    7  C   UNL     1     -11.445  12.171  67.765  1.00  0.00    -0.332 A  
HETATM    8  C   UNL     1     -12.310  15.207  71.906  1.00  0.00    -0.423 C  
HETATM    9  F   UNL     1     -11.846  10.009  68.690  1.00  0.00    -0.117 F  
HETATM   10  C   UNL     1     -12.664  15.858  73.187  1.00  0.00    -0.524 C  
HETATM   11  C   UNL     1     -11.806  11.344  68.842  1.00  0.00    -0.347 A  
HETATM   12  C   UNL     1     -12.419  13.751  71.656  1.00  0.00    -0.217 C  
HETATM   13  O   UNL     1     -13.094  15.006  74.150  1.00  0.00    -0.194 OA 
HETATM   14  C   UNL     1     -12.056  13.232  70.319  1.00  0.00    -0.405 A  
HETATM   15  O   UNL     1     -12.819  13.012  72.553  1.00  0.00    -0.159 OA 
HETATM   16  O   UNL     1     -12.522  17.048  73.401  1.00  0.00     0.087 OA 
HETATM   17  C   UNL     1     -12.137  11.858  70.092  1.00  0.00    -0.382 A  
BRANCH   5  18
HETATM   18  C   UNL     1     -10.693  16.410  68.790  1.00  0.00    -0.321 C  
HETATM   19  C   UNL     1     -10.052  17.691  69.290  1.00  0.00    -0.147 C  
HETATM   20  C   UNL     1      -9.195  16.506  68.984  1.00  0.00    -0.237 C  
ENDBRANCH   5  18
BRANCH   7  21
HETATM   21  N   UNL     1     -11.125  11.676  66.496  1.00  0.00    -0.300 NA 
HETATM   22  C   UNL     1      -9.837  11.021  66.244  1.00  0.00    -0.215 C  
HETATM   23  C   UNL     1     -10.029  10.028  65.071  1.00  0.00    -0.250 C  
HETATM   24  N   UNL     1     -10.528  10.664  63.831  1.00  0.00    -0.462 NA 
HETATM   25  C   UNL     1     -11.774  11.420  64.110  1.00  0.00     0.051 C  
HETATM   26  H   UNL     1     -10.654   9.986  63.079  1.00  0.00     0.000 HD 
HETATM   27  C   UNL     1     -12.227  12.140  62.844  1.00  0.00     0.150 C  
HETATM   28  C   UNL     1     -11.650  12.405  65.319  1.00  0.00    -0.373 C  
ENDBRANCH   7  21
ENDBRANCH   2   3
TORSDOF 3
ENDMDL
MODEL       80
REMARK 921   NORMALIZED FREE ENERGY PREDICTED BY IDOCK:   -4.55 KCAL/MOL
REMARK 922        TOTAL FREE ENERGY PREDICTED BY IDOCK:   -5.37 KCAL/MOL
REMARK 923 INTER-LIGAND FREE ENERGY PREDICTED BY IDOCK:   -4.68 KCAL/MOL
REMARK 924 INTRA-LIGAND FREE ENERGY PREDICTED BY IDOCK:   -0.69 KCAL/MOL
REMARK 927      BINDING AFFINITY PREDICTED BY RF-SCORE:    0.00 PKD
ROOT
HETATM    1  C   UNL     1     -11.204  10.077  70.366  1.00  0.00    -0.323 C  
HETATM    2  O   UNL     1     -10.675   9.787  69.066  1.00  0.00    -0.212 OA 
ENDROOT
BRANCH   2   3
HETATM    3  C   UNL     1      -9.315  10.036  68.956  1.00  0.00    -0.181 A  
HETATM    4  C   UNL     1      -8.922  11.316  68.484  1.00  0.00    -0.166 A  
HETATM    5  N   UNL     1      -9.802  12.256  67.848  1.00  0.00    -0.195 NA 
HETATM    6  C   UNL     1      -9.354  13.543  67.572  1.00  0.00    -0.220 C  
HETATM    7  C   UNL     1      -8.363   9.063  69.385  1.00  0.00    -0.119 A  
HETATM    8  C   UNL     1      -8.122  14.008  67.775  1.00  0.00    -0.170 C  
HETATM    9  F   UNL     1      -6.081   8.650  69.945  1.00  0.00    -0.033 F  
HETATM   10  C   UNL     1      -7.819  15.414  67.429  1.00  0.00    -0.188 C  
HETATM   11  C   UNL     1      -7.031   9.493  69.505  1.00  0.00    -0.059 A  
HETATM   12  C   UNL     1      -7.135  13.062  68.345  1.00  0.00    -0.103 C  
HETATM   13  O   UNL     1      -6.536  15.787  67.661  1.00  0.00    -0.138 OA 
HETATM   14  C   UNL     1      -7.577  11.688  68.671  1.00  0.00    -0.133 A  
HETATM   15  O   UNL     1      -5.982  13.438  68.546  1.00  0.00    -0.078 OA 
HETATM   16  O   UNL     1      -8.621  16.171  66.912  1.00  0.00    -0.183 OA 
HETATM   17  C   UNL     1      -6.641  10.790  69.186  1.00  0.00    -0.065 A  
BRANCH   5  18
HETATM   18  C   UNL     1     -11.070  11.821  67.228  1.00  0.00    -0.287 C  
HETATM   19  C   UNL     1     -11.968  12.731  66.412  1.00  0.00    -0.443 C  
HETATM   20  C   UNL     1     -11.170  11.671  65.725  1.00  0.00    -0.290 C  
ENDBRANCH   5  18
BRANCH   7  21
HETATM   21  N   UNL     1      -8.780   7.769  69.717  1.00  0.00    -0.138 NA 
HETATM   22  C   UNL     1      -8.542   7.219  71.056  1.00  0.00    -0.128 C  
HETATM   23  C   UNL     1      -9.638   6.162  71.339  1.00  0.00    -0.159 C  
HETATM   24  N   UNL     1      -9.681   5.070  70.340  1.00  0.00    -0.191 NA 
HETATM   25  C   UNL     1      -9.810   5.632  68.973  1.00  0.00    -0.158 C  
HETATM   26  H   UNL     1     -10.417   4.394  70.545  1.00  0.00     0.000 HD 
HETATM   27  C   UNL     1      -9.764   4.501  67.950  1.00  0.00    -0.195 C  
HETATM   28  C   UNL     1      -8.755   6.742  68.651  1.00  0.00    -0.125 C  
ENDBRANCH   7  21
ENDBRANCH   2   3
TORSDOF 3
ENDMDL
MODEL       81
REMARK 921   NORMALIZED FREE ENERGY PREDICTED BY IDOCK:   -4.54 KCAL/MOL
REMARK 922        TOTAL FREE ENERGY PREDICTED BY IDOCK:   -5.36 KCAL/MOL
REMARK 923 INTER-LIGAND FREE ENERGY PREDICTED BY IDOCK:   -5.02 KCAL/MOL
REMARK 924 INTRA-LIGAND FREE ENERGY PREDICTED BY IDOCK:   -0.34 KCAL/MOL
REMARK 927      BINDING AFFINITY PREDICTED BY RF-SCORE:    0.00 PKD
ROOT
HETATM    1  C   UNL     1     -10.344   6.072  67.847  1.00  0.00    -0.206 C  
HETATM    2  O   UNL     1      -9.559   7.088  68.484  1.00  0.00    -0.137 OA 
ENDROOT
BRANCH   2   3
HETATM    3  C   UNL     1      -9.975   8.376  68.184  1.00  0.00    -0.191 A  
HETATM    4  C   UNL     1      -9.524   8.939  66.960  1.00  0.00    -0.166 A  
HETATM    5  N   UNL     1      -8.458   8.404  66.161  1.00  0.00    -0.124 NA 
HETATM    6  C   UNL     1      -8.205   8.937  64.902  1.00  0.00    -0.160 C  
HETATM    7  C   UNL     1     -10.890   9.061  69.040  1.00  0.00    -0.067 A  
HETATM    8  C   UNL     1      -8.822   9.982  64.351  1.00  0.00    -0.239 C  
HETATM    9  F   UNL     1     -12.379  10.911  69.256  1.00  0.00    -0.383 F  
HETATM   10  C   UNL     1      -8.430  10.413  62.991  1.00  0.00    -0.180 C  
HETATM   11  C   UNL     1     -11.476  10.231  68.530  1.00  0.00    -0.100 A  
HETATM   12  C   UNL     1      -9.873  10.642  65.160  1.00  0.00    -0.284 C  
HETATM   13  O   UNL     1      -9.106  11.492  62.526  1.00  0.00    -0.320 OA 
HETATM   14  C   UNL     1     -10.185  10.093  66.499  1.00  0.00    -0.288 A  
HETATM   15  O   UNL     1     -10.468  11.614  64.702  1.00  0.00    -0.269 OA 
HETATM   16  O   UNL     1      -7.529   9.899  62.353  1.00  0.00    -0.110 OA 
HETATM   17  C   UNL     1     -11.159  10.729  67.269  1.00  0.00    -0.339 A  
BRANCH   5  18
HETATM   18  C   UNL     1      -7.447   7.497  66.740  1.00  0.00    -0.093 C  
HETATM   19  C   UNL     1      -6.969   6.223  66.068  1.00  0.00    -0.065 C  
HETATM   20  C   UNL     1      -6.064   7.411  66.130  1.00  0.00    -0.037 C  
ENDBRANCH   5  18
BRANCH   7  21
HETATM   21  N   UNL     1     -11.206   8.534  70.297  1.00  0.00    -0.223 NA 
HETATM   22  C   UNL     1     -10.153   8.096  71.219  1.00  0.00    -0.195 C  
HETATM   23  C   UNL     1     -10.698   8.226  72.662  1.00  0.00    -0.314 C  
HETATM   24  N   UNL     1     -11.937   7.452  72.901  1.00  0.00    -0.549 NA 
HETATM   25  C   UNL     1     -12.968   7.815  71.896  1.00  0.00    -0.282 C  
HETATM   26  H   UNL     1     -12.280   7.564  73.855  1.00  0.00     0.000 HD 
HETATM   27  C   UNL     1     -14.206   6.948  72.100  1.00  0.00    -0.161 C  
HETATM   28  C   UNL     1     -12.454   7.748  70.420  1.00  0.00     0.461 C  
ENDBRANCH   7  21
ENDBRANCH   2   3
TORSDOF 3
ENDMDL
MODEL       82
REMARK 921   NORMALIZED FREE ENERGY PREDICTED BY IDOCK:   -4.50 KCAL/MOL
REMARK 922        TOTAL FREE ENERGY PREDICTED BY IDOCK:   -5.32 KCAL/MOL
REMARK 923 INTER-LIGAND FREE ENERGY PREDICTED BY IDOCK:   -4.53 KCAL/MOL
REMARK 924 INTRA-LIGAND FREE ENERGY PREDICTED BY IDOCK:   -0.78 KCAL/MOL
REMARK 927      BINDING AFFINITY PREDICTED BY RF-SCORE:    0.00 PKD
ROOT
HETATM    1  C   UNL     1     -10.911   6.555  66.972  1.00  0.00    -0.396 C  
HETATM    2  O   UNL     1      -9.558   6.410  67.421  1.00  0.00    -0.117 OA 
ENDROOT
BRANCH   2   3
HETATM    3  C   UNL     1      -9.343   5.257  68.160  1.00  0.00    -0.118 A  
HETATM    4  C   UNL     1      -9.498   5.347  69.569  1.00  0.00    -0.133 A  
HETATM    5  N   UNL     1      -9.574   6.577  70.304  1.00  0.00    -0.161 NA 
HETATM    6  C   UNL     1      -9.890   6.554  71.658  1.00  0.00    -0.167 C  
HETATM    7  C   UNL     1      -9.061   4.019  67.507  1.00  0.00    -0.146 A  
HETATM    8  C   UNL     1     -10.071   5.466  72.406  1.00  0.00    -0.225 C  
HETATM    9  F   UNL     1      -8.927   1.650  67.746  1.00  0.00    -0.106 F  
HETATM   10  C   UNL     1     -10.411   5.625  73.837  1.00  0.00    -0.264 C  
HETATM   11  C   UNL     1      -9.136   2.859  68.295  1.00  0.00    -0.171 A  
HETATM   12  C   UNL     1      -9.916   4.157  71.730  1.00  0.00    -0.176 C  
HETATM   13  O   UNL     1     -10.562   4.459  74.513  1.00  0.00    -0.256 OA 
HETATM   14  C   UNL     1      -9.599   4.138  70.285  1.00  0.00    -0.269 A  
HETATM   15  O   UNL     1     -10.066   3.121  72.375  1.00  0.00    -0.156 OA 
HETATM   16  O   UNL     1     -10.485   6.703  74.397  1.00  0.00    -0.309 OA 
HETATM   17  C   UNL     1      -9.430   2.905  69.654  1.00  0.00    -0.164 A  
BRANCH   5  18
HETATM   18  C   UNL     1      -9.059   7.841  69.740  1.00  0.00    -0.147 C  
HETATM   19  C   UNL     1      -9.841   9.141  69.723  1.00  0.00    -0.192 C  
HETATM   20  C   UNL     1      -8.684   8.986  70.656  1.00  0.00    -0.251 C  
ENDBRANCH   5  18
BRANCH   7  21
HETATM   21  N   UNL     1      -8.784   3.994  66.136  1.00  0.00    -0.114 NA 
HETATM   22  C   UNL     1      -9.783   3.521  65.172  1.00  0.00    -0.129 C  
HETATM   23  C   UNL     1      -9.505   4.217  63.816  1.00  0.00    -0.147 C  
HETATM   24  N   UNL     1      -8.141   3.977  63.295  1.00  0.00    -0.083 NA 
HETATM   25  C   UNL     1      -7.131   4.353  64.315  1.00  0.00    -0.050 C  
HETATM   26  H   UNL     1      -7.983   4.454  62.407  1.00  0.00     0.000 HD 
HETATM   27  C   UNL     1      -5.735   4.019  63.797  1.00  0.00    -0.014 C  
HETATM   28  C   UNL     1      -7.391   3.715  65.719  1.00  0.00    -0.076 C  
ENDBRANCH   7  21
ENDBRANCH   2   3
TORSDOF 3
ENDMDL
MODEL       83
REMARK 921   NORMALIZED FREE ENERGY PREDICTED BY IDOCK:   -4.43 KCAL/MOL
REMARK 922        TOTAL FREE ENERGY PREDICTED BY IDOCK:   -5.23 KCAL/MOL
REMARK 923 INTER-LIGAND FREE ENERGY PREDICTED BY IDOCK:   -5.93 KCAL/MOL
REMARK 924 INTRA-LIGAND FREE ENERGY PREDICTED BY IDOCK:    0.70 KCAL/MOL
REMARK 927      BINDING AFFINITY PREDICTED BY RF-SCORE:    0.00 PKD
ROOT
HETATM    1  C   UNL     1     -10.864  10.332  69.443  1.00  0.00    -0.245 C  
HETATM    2  O   UNL     1     -11.344   9.746  68.227  1.00  0.00    -0.091 OA 
ENDROOT
BRANCH   2   3
HETATM    3  C   UNL     1     -10.331   9.314  67.385  1.00  0.00    -0.263 A  
HETATM    4  C   UNL     1      -9.996   7.934  67.422  1.00  0.00    -0.198 A  
HETATM    5  N   UNL     1     -10.413   7.021  68.448  1.00  0.00    -0.193 NA 
HETATM    6  C   UNL     1     -10.168   5.661  68.303  1.00  0.00    -0.186 C  
HETATM    7  C   UNL     1      -9.719  10.217  66.464  1.00  0.00    -0.200 A  
HETATM    8  C   UNL     1      -9.496   5.084  67.306  1.00  0.00    -0.149 C  
HETATM    9  F   UNL     1      -8.336  10.426  64.532  1.00  0.00    -0.157 F  
HETATM   10  C   UNL     1      -9.334   3.613  67.305  1.00  0.00    -0.202 C  
HETATM   11  C   UNL     1      -8.913   9.648  65.464  1.00  0.00    -0.183 A  
HETATM   12  C   UNL     1      -8.956   5.979  66.257  1.00  0.00    -0.149 C  
HETATM   13  O   UNL     1      -8.625   3.126  66.257  1.00  0.00    -0.108 OA 
HETATM   14  C   UNL     1      -9.213   7.433  66.365  1.00  0.00    -0.203 A  
HETATM   15  O   UNL     1      -8.323   5.499  65.319  1.00  0.00    -0.132 OA 
HETATM   16  O   UNL     1      -9.735   2.889  68.198  1.00  0.00    -0.136 OA 
HETATM   17  C   UNL     1      -8.684   8.278  65.389  1.00  0.00    -0.147 A  
BRANCH   5  18
HETATM   18  C   UNL     1     -10.845   7.504  69.775  1.00  0.00    -0.225 C  
HETATM   19  C   UNL     1     -11.680   6.687  70.742  1.00  0.00    -0.445 C  
HETATM   20  C   UNL     1     -10.233   6.924  71.032  1.00  0.00    -0.213 C  
ENDBRANCH   5  18
BRANCH   7  21
HETATM   21  N   UNL     1      -9.977  11.590  66.547  1.00  0.00    -0.205 NA 
HETATM   22  C   UNL     1      -9.242  12.440  67.490  1.00  0.00    -0.183 C  
HETATM   23  C   UNL     1      -9.215  13.878  66.914  1.00  0.00    -0.259 C  
HETATM   24  N   UNL     1     -10.561  14.441  66.663  1.00  0.00    -0.279 NA 
HETATM   25  C   UNL     1     -11.346  13.525  65.799  1.00  0.00    -0.305 C  
HETATM   26  H   UNL     1     -10.514  15.383  66.276  1.00  0.00     0.000 HD 
HETATM   27  C   UNL     1     -12.757  14.076  65.621  1.00  0.00    -0.515 C  
HETATM   28  C   UNL     1     -11.365  12.046  66.309  1.00  0.00    -0.357 C  
ENDBRANCH   7  21
ENDBRANCH   2   3
TORSDOF 3
ENDMDL
MODEL       84
REMARK 921   NORMALIZED FREE ENERGY PREDICTED BY IDOCK:   -4.35 KCAL/MOL
REMARK 922        TOTAL FREE ENERGY PREDICTED BY IDOCK:   -5.14 KCAL/MOL
REMARK 923 INTER-LIGAND FREE ENERGY PREDICTED BY IDOCK:   -4.61 KCAL/MOL
REMARK 924 INTRA-LIGAND FREE ENERGY PREDICTED BY IDOCK:   -0.54 KCAL/MOL
REMARK 927      BINDING AFFINITY PREDICTED BY RF-SCORE:    0.00 PKD
ROOT
HETATM    1  C   UNL     1      -6.514   9.935  66.992  1.00  0.00    -0.069 C  
HETATM    2  O   UNL     1      -6.971  10.143  68.334  1.00  0.00    -0.065 OA 
ENDROOT
BRANCH   2   3
HETATM    3  C   UNL     1      -8.353  10.151  68.452  1.00  0.00    -0.113 A  
HETATM    4  C   UNL     1      -9.037  11.321  68.026  1.00  0.00    -0.156 A  
HETATM    5  N   UNL     1      -8.406  12.583  67.760  1.00  0.00    -0.158 NA 
HETATM    6  C   UNL     1      -9.143  13.616  67.191  1.00  0.00    -0.239 C  
HETATM    7  C   UNL     1      -9.049   8.990  68.904  1.00  0.00    -0.140 A  
HETATM    8  C   UNL     1     -10.446  13.595  66.915  1.00  0.00    -0.272 C  
HETATM    9  F   UNL     1     -11.166   7.907  69.087  1.00  0.00    -0.084 F  
HETATM   10  C   UNL     1     -11.071  14.787  66.301  1.00  0.00    -0.341 C  
HETATM   11  C   UNL     1     -10.442   8.981  68.727  1.00  0.00    -0.206 A  
HETATM   12  C   UNL     1     -11.181  12.353  67.251  1.00  0.00    -0.303 C  
HETATM   13  O   UNL     1     -12.402  14.670  66.072  1.00  0.00    -0.256 OA 
HETATM   14  C   UNL     1     -10.429  11.222  67.839  1.00  0.00    -0.218 A  
HETATM   15  O   UNL     1     -12.386  12.282  67.023  1.00  0.00    -0.393 OA 
HETATM   16  O   UNL     1     -10.472  15.823  66.077  1.00  0.00    -0.308 OA 
HETATM   17  C   UNL     1     -11.126  10.061  68.176  1.00  0.00    -0.252 A  
BRANCH   5  18
HETATM   18  C   UNL     1      -7.080  12.911  68.321  1.00  0.00    -0.102 C  
HETATM   19  C   UNL     1      -6.243  14.096  67.877  1.00  0.00    -0.164 C  
HETATM   20  C   UNL     1      -6.910  14.121  69.214  1.00  0.00    -0.118 C  
ENDBRANCH   5  18
BRANCH   7  21
HETATM   21  N   UNL     1      -8.340   7.909  69.439  1.00  0.00    -0.130 NA 
HETATM   22  C   UNL     1      -8.123   6.687  68.658  1.00  0.00    -0.119 C  
HETATM   23  C   UNL     1      -6.823   6.018  69.170  1.00  0.00    -0.062 C  
HETATM   24  N   UNL     1      -6.850   5.700  70.615  1.00  0.00    -0.051 NA 
HETATM   25  C   UNL     1      -7.180   6.915  71.400  1.00  0.00    -0.080 C  
HETATM   26  H   UNL     1      -5.979   5.270  70.927  1.00  0.00     0.000 HD 
HETATM   27  C   UNL     1      -7.289   6.553  72.878  1.00  0.00    -0.086 C  
HETATM   28  C   UNL     1      -8.460   7.659  70.894  1.00  0.00    -0.124 C  
ENDBRANCH   7  21
ENDBRANCH   2   3
TORSDOF 3
ENDMDL
MODEL       85
REMARK 921   NORMALIZED FREE ENERGY PREDICTED BY IDOCK:   -4.30 KCAL/MOL
REMARK 922        TOTAL FREE ENERGY PREDICTED BY IDOCK:   -5.08 KCAL/MOL
REMARK 923 INTER-LIGAND FREE ENERGY PREDICTED BY IDOCK:   -4.82 KCAL/MOL
REMARK 924 INTRA-LIGAND FREE ENERGY PREDICTED BY IDOCK:   -0.26 KCAL/MOL
REMARK 927      BINDING AFFINITY PREDICTED BY RF-SCORE:    0.00 PKD
ROOT
HETATM    1  C   UNL     1     -11.223  13.556  67.435  1.00  0.00    -0.295 C  
HETATM    2  O   UNL     1     -10.280  13.270  68.475  1.00  0.00    -0.239 OA 
ENDROOT
BRANCH   2   3
HETATM    3  C   UNL     1      -9.225  12.472  68.060  1.00  0.00    -0.204 A  
HETATM    4  C   UNL     1      -9.470  11.078  67.938  1.00  0.00    -0.165 A  
HETATM    5  N   UNL     1     -10.615  10.401  68.479  1.00  0.00    -0.196 NA 
HETATM    6  C   UNL     1     -10.840   9.066  68.163  1.00  0.00    -0.027 C  
HETATM    7  C   UNL     1      -7.976  13.056  67.691  1.00  0.00    -0.169 A  
HETATM    8  C   UNL     1     -10.041   8.283  67.438  1.00  0.00    -0.298 C  
HETATM    9  F   UNL     1      -5.883  12.709  66.601  1.00  0.00     0.061 F  
HETATM   10  C   UNL     1     -10.441   6.880  67.192  1.00  0.00    -0.303 C  
HETATM   11  C   UNL     1      -7.064  12.224  67.020  1.00  0.00    -0.037 A  
HETATM   12  C   UNL     1      -8.793   8.893  66.924  1.00  0.00    -0.127 C  
HETATM   13  O   UNL     1      -9.556   6.164  66.456  1.00  0.00    -0.155 OA 
HETATM   14  C   UNL     1      -8.526  10.318  67.222  1.00  0.00    -0.125 A  
HETATM   15  O   UNL     1      -8.018   8.213  66.256  1.00  0.00    -0.096 OA 
HETATM   16  O   UNL     1     -11.442   6.371  67.661  1.00  0.00    -0.142 OA 
HETATM   17  C   UNL     1      -7.339  10.885  66.758  1.00  0.00    -0.134 A  
BRANCH   5  18
HETATM   18  C   UNL     1     -11.407  10.991  69.575  1.00  0.00    -0.287 C  
HETATM   19  C   UNL     1     -12.717  10.413  70.080  1.00  0.00    -0.071 C  
HETATM   20  C   UNL     1     -11.485  10.296  70.918  1.00  0.00    -0.425 C  
ENDBRANCH   5  18
BRANCH   7  21
HETATM   21  N   UNL     1      -7.728  14.409  67.949  1.00  0.00    -0.131 NA 
HETATM   22  C   UNL     1      -7.622  14.907  69.325  1.00  0.00    -0.170 C  
HETATM   23  C   UNL     1      -6.715  16.162  69.308  1.00  0.00    -0.198 C  
HETATM   24  N   UNL     1      -7.203  17.236  68.414  1.00  0.00    -0.210 NA 
HETATM   25  C   UNL     1      -7.416  16.703  67.046  1.00  0.00    -0.204 C  
HETATM   26  H   UNL     1      -6.582  18.045  68.415  1.00  0.00     0.000 HD 
HETATM   27  C   UNL     1      -8.002  17.797  66.159  1.00  0.00    -0.237 C  
HETATM   28  C   UNL     1      -8.288  15.405  67.009  1.00  0.00    -0.236 C  
ENDBRANCH   7  21
ENDBRANCH   2   3
TORSDOF 3
ENDMDL
MODEL       86
REMARK 921   NORMALIZED FREE ENERGY PREDICTED BY IDOCK:   -4.25 KCAL/MOL
REMARK 922        TOTAL FREE ENERGY PREDICTED BY IDOCK:   -5.02 KCAL/MOL
REMARK 923 INTER-LIGAND FREE ENERGY PREDICTED BY IDOCK:   -4.64 KCAL/MOL
REMARK 924 INTRA-LIGAND FREE ENERGY PREDICTED BY IDOCK:   -0.39 KCAL/MOL
REMARK 927      BINDING AFFINITY PREDICTED BY RF-SCORE:    0.00 PKD
ROOT
HETATM    1  C   UNL     1      -6.734  10.534  65.550  1.00  0.00    -0.092 C  
HETATM    2  O   UNL     1      -6.928  10.332  66.955  1.00  0.00    -0.085 OA 
ENDROOT
BRANCH   2   3
HETATM    3  C   UNL     1      -8.260  10.354  67.337  1.00  0.00    -0.117 A  
HETATM    4  C   UNL     1      -8.809  11.606  67.721  1.00  0.00    -0.159 A  
HETATM    5  N   UNL     1      -8.035  12.778  68.020  1.00  0.00    -0.148 NA 
HETATM    6  C   UNL     1      -8.676  13.994  68.226  1.00  0.00    -0.182 C  
HETATM    7  C   UNL     1      -9.056   9.171  67.259  1.00  0.00    -0.126 A  
HETATM    8  C   UNL     1      -9.993  14.196  68.249  1.00  0.00    -0.241 C  
HETATM    9  F   UNL     1     -11.267   8.278  67.284  1.00  0.00    -0.174 F  
HETATM   10  C   UNL     1     -10.507  15.565  68.476  1.00  0.00    -0.238 C  
HETATM   11  C   UNL     1     -10.445   9.336  67.389  1.00  0.00    -0.273 A  
HETATM   12  C   UNL     1     -10.855  13.010  68.040  1.00  0.00    -0.242 C  
HETATM   13  O   UNL     1     -11.859  15.663  68.495  1.00  0.00    -0.355 OA 
HETATM   14  C   UNL     1     -10.211  11.700  67.797  1.00  0.00    -0.202 A  
HETATM   15  O   UNL     1     -12.078  13.140  68.058  1.00  0.00    -0.325 OA 
HETATM   16  O   UNL     1      -9.793  16.526  68.699  1.00  0.00    -0.230 OA 
HETATM   17  C   UNL     1     -11.024  10.579  67.623  1.00  0.00    -0.375 A  
BRANCH   5  18
HETATM   18  C   UNL     1      -6.608  12.682  68.387  1.00  0.00    -0.081 C  
HETATM   19  C   UNL     1      -5.898  13.673  69.290  1.00  0.00    -0.085 C  
HETATM   20  C   UNL     1      -6.210  12.303  69.798  1.00  0.00    -0.125 C  
ENDBRANCH   5  18
BRANCH   7  21
HETATM   21  N   UNL     1      -8.454   7.933  67.006  1.00  0.00    -0.122 NA 
HETATM   22  C   UNL     1      -7.325   7.464  67.817  1.00  0.00    -0.092 C  
HETATM   23  C   UNL     1      -7.333   5.915  67.792  1.00  0.00    -0.077 C  
HETATM   24  N   UNL     1      -7.254   5.343  66.430  1.00  0.00    -0.076 NA 
HETATM   25  C   UNL     1      -8.332   5.904  65.577  1.00  0.00    -0.145 C  
HETATM   26  H   UNL     1      -7.271   4.323  66.443  1.00  0.00     0.000 HD 
HETATM   27  C   UNL     1      -8.185   5.372  64.155  1.00  0.00    -0.127 C  
HETATM   28  C   UNL     1      -8.400   7.466  65.603  1.00  0.00    -0.140 C  
ENDBRANCH   7  21
ENDBRANCH   2   3
TORSDOF 3
ENDMDL
MODEL       87
REMARK 921   NORMALIZED FREE ENERGY PREDICTED BY IDOCK:   -4.24 KCAL/MOL
REMARK 922        TOTAL FREE ENERGY PREDICTED BY IDOCK:   -5.01 KCAL/MOL
REMARK 923 INTER-LIGAND FREE ENERGY PREDICTED BY IDOCK:   -4.85 KCAL/MOL
REMARK 924 INTRA-LIGAND FREE ENERGY PREDICTED BY IDOCK:   -0.16 KCAL/MOL
REMARK 927      BINDING AFFINITY PREDICTED BY RF-SCORE:    0.00 PKD
ROOT
HETATM    1  C   UNL     1      -7.071  15.975  68.406  1.00  0.00    -0.125 C  
HETATM    2  O   UNL     1      -8.025  15.197  69.140  1.00  0.00    -0.176 OA 
ENDROOT
BRANCH   2   3
HETATM    3  C   UNL     1      -9.045  14.689  68.351  1.00  0.00    -0.192 A  
HETATM    4  C   UNL     1      -9.100  13.279  68.183  1.00  0.00    -0.207 A  
HETATM    5  N   UNL     1      -8.035  12.376  68.519  1.00  0.00    -0.138 NA 
HETATM    6  C   UNL     1      -8.253  11.004  68.468  1.00  0.00    -0.146 C  
HETATM    7  C   UNL     1     -10.042  15.554  67.808  1.00  0.00    -0.232 A  
HETATM    8  C   UNL     1      -9.366  10.398  68.058  1.00  0.00    -0.145 C  
HETATM    9  F   UNL     1     -12.187  15.687  66.774  1.00  0.00     0.316 F  
HETATM   10  C   UNL     1      -9.429   8.920  68.077  1.00  0.00    -0.143 C  
HETATM   11  C   UNL     1     -11.184  14.941  67.266  1.00  0.00    -0.345 A  
HETATM   12  C   UNL     1     -10.476  11.270  67.609  1.00  0.00    -0.193 C  
HETATM   13  O   UNL     1     -10.598   8.400  67.628  1.00  0.00    -0.243 OA 
HETATM   14  C   UNL     1     -10.292  12.737  67.665  1.00  0.00    -0.221 A  
HETATM   15  O   UNL     1     -11.523  10.762  67.214  1.00  0.00    -0.436 OA 
HETATM   16  O   UNL     1      -8.494   8.209  68.398  1.00  0.00    -0.125 OA 
HETATM   17  C   UNL     1     -11.329  13.557  67.220  1.00  0.00    -0.339 A  
BRANCH   5  18
HETATM   18  C   UNL     1      -6.642  12.848  68.647  1.00  0.00    -0.091 C  
HETATM   19  C   UNL     1      -5.455  11.930  68.870  1.00  0.00    -0.050 C  
HETATM   20  C   UNL     1      -5.644  12.584  67.540  1.00  0.00    -0.131 C  
ENDBRANCH   5  18
BRANCH   7  21
HETATM   21  N   UNL     1      -9.883  16.943  67.880  1.00  0.00    -0.256 NA 
HETATM   22  C   UNL     1     -10.524  17.722  68.945  1.00  0.00    -0.211 C  
HETATM   23  C   UNL     1      -9.673  18.994  69.183  1.00  0.00    -0.255 C  
HETATM   24  N   UNL     1      -9.503  19.829  67.973  1.00  0.00    -0.355 NA 
HETATM   25  C   UNL     1      -8.958  19.012  66.860  1.00  0.00    -0.301 C  
HETATM   26  H   UNL     1      -8.931  20.654  68.155  1.00  0.00     0.000 HD 
HETATM   27  C   UNL     1      -8.870  19.864  65.598  1.00  0.00     0.194 C  
HETATM   28  C   UNL     1      -9.752  17.689  66.608  1.00  0.00    -0.301 C  
ENDBRANCH   7  21
ENDBRANCH   2   3
TORSDOF 3
ENDMDL
MODEL       88
REMARK 921   NORMALIZED FREE ENERGY PREDICTED BY IDOCK:   -4.06 KCAL/MOL
REMARK 922        TOTAL FREE ENERGY PREDICTED BY IDOCK:   -4.80 KCAL/MOL
REMARK 923 INTER-LIGAND FREE ENERGY PREDICTED BY IDOCK:   -4.71 KCAL/MOL
REMARK 924 INTRA-LIGAND FREE ENERGY PREDICTED BY IDOCK:   -0.09 KCAL/MOL
REMARK 927      BINDING AFFINITY PREDICTED BY RF-SCORE:    0.00 PKD
ROOT
HETATM    1  C   UNL     1     -10.838   9.992  67.362  1.00  0.00    -0.249 C  
HETATM    2  O   UNL     1     -10.779  10.682  68.616  1.00  0.00    -0.180 OA 
ENDROOT
BRANCH   2   3
HETATM    3  C   UNL     1      -9.485  10.926  69.050  1.00  0.00    -0.146 A  
HETATM    4  C   UNL     1      -8.850   9.909  69.811  1.00  0.00    -0.211 A  
HETATM    5  N   UNL     1      -9.527   8.791  70.403  1.00  0.00    -0.169 NA 
HETATM    6  C   UNL     1      -8.789   7.768  70.988  1.00  0.00    -0.141 C  
HETATM    7  C   UNL     1      -8.805  12.121  68.666  1.00  0.00    -0.002 A  
HETATM    8  C   UNL     1      -7.464   7.736  71.132  1.00  0.00    -0.078 C  
HETATM    9  F   UNL     1      -6.700  13.235  68.534  1.00  0.00    -0.070 F  
HETATM   10  C   UNL     1      -6.839   6.559  71.775  1.00  0.00    -0.064 C  
HETATM   11  C   UNL     1      -7.421  12.164  68.905  1.00  0.00    -0.027 A  
HETATM   12  C   UNL     1      -6.708   8.904  70.625  1.00  0.00    -0.054 C  
HETATM   13  O   UNL     1      -5.490   6.629  71.886  1.00  0.00    -0.031 OA 
HETATM   14  C   UNL     1      -7.455  10.006  69.978  1.00  0.00    -0.181 A  
HETATM   15  O   UNL     1      -5.484   8.928  70.739  1.00  0.00    -0.027 OA 
HETATM   16  O   UNL     1      -7.472   5.627  72.237  1.00  0.00    -0.095 OA 
HETATM   17  C   UNL     1      -6.744  11.116  69.522  1.00  0.00    -0.132 A  
BRANCH   5  18
HETATM   18  C   UNL     1     -10.981   8.822  70.658  1.00  0.00    -0.238 C  
HETATM   19  C   UNL     1     -11.767   7.650  71.215  1.00  0.00    -0.308 C  
HETATM   20  C   UNL     1     -11.505   8.842  72.078  1.00  0.00    -0.441 C  
ENDBRANCH   5  18
BRANCH   7  21
HETATM   21  N   UNL     1      -9.502  13.156  68.033  1.00  0.00    -0.214 NA 
HETATM   22  C   UNL     1     -10.405  14.031  68.789  1.00  0.00    -0.222 C  
HETATM   23  C   UNL     1     -10.469  15.395  68.059  1.00  0.00    -0.257 C  
HETATM   24  N   UNL     1     -10.917  15.295  66.652  1.00  0.00    -0.313 NA 
HETATM   25  C   UNL     1     -10.071  14.324  65.914  1.00  0.00    -0.326 C  
HETATM   26  H   UNL     1     -10.941  16.205  66.193  1.00  0.00     0.000 HD 
HETATM   27  C   UNL     1     -10.599  14.166  64.492  1.00  0.00    -0.285 C  
HETATM   28  C   UNL     1      -9.933  12.941  66.633  1.00  0.00    -0.251 C  
ENDBRANCH   7  21
ENDBRANCH   2   3
TORSDOF 3
ENDMDL
MODEL       89
REMARK 921   NORMALIZED FREE ENERGY PREDICTED BY IDOCK:   -3.97 KCAL/MOL
REMARK 922        TOTAL FREE ENERGY PREDICTED BY IDOCK:   -4.69 KCAL/MOL
REMARK 923 INTER-LIGAND FREE ENERGY PREDICTED BY IDOCK:   -5.11 KCAL/MOL
REMARK 924 INTRA-LIGAND FREE ENERGY PREDICTED BY IDOCK:    0.41 KCAL/MOL
REMARK 927      BINDING AFFINITY PREDICTED BY RF-SCORE:    0.00 PKD
ROOT
HETATM    1  C   UNL     1     -10.288  12.738  65.618  1.00  0.00    -0.279 C  
HETATM    2  O   UNL     1      -9.562  12.839  66.849  1.00  0.00    -0.221 OA 
ENDROOT
BRANCH   2   3
HETATM    3  C   UNL     1      -9.546  11.661  67.578  1.00  0.00    -0.171 A  
HETATM    4  C   UNL     1     -10.438  11.562  68.679  1.00  0.00    -0.202 A  
HETATM    5  N   UNL     1     -11.136  12.671  69.265  1.00  0.00    -0.181 NA 
HETATM    6  C   UNL     1     -12.109  12.442  70.231  1.00  0.00    -0.297 C  
HETATM    7  C   UNL     1      -8.720  10.568  67.173  1.00  0.00    -0.130 A  
HETATM    8  C   UNL     1     -12.437  11.260  70.753  1.00  0.00    -0.471 C  
HETATM    9  F   UNL     1      -8.264   8.242  67.429  1.00  0.00    -0.114 F  
HETATM   10  C   UNL     1     -13.508  11.197  71.772  1.00  0.00    -0.134 C  
HETATM   11  C   UNL     1      -8.968   9.329  67.786  1.00  0.00    -0.126 A  
HETATM   12  C   UNL     1     -11.690  10.080  70.260  1.00  0.00    -0.251 C  
HETATM   13  O   UNL     1     -13.757   9.953  72.250  1.00  0.00    -0.356 OA 
HETATM   14  C   UNL     1     -10.659  10.279  69.216  1.00  0.00    -0.254 A  
HETATM   15  O   UNL     1     -11.949   8.967  70.713  1.00  0.00    -0.264 OA 
HETATM   16  O   UNL     1     -14.081  12.178  72.211  1.00  0.00     0.025 OA 
HETATM   17  C   UNL     1      -9.940   9.171  68.769  1.00  0.00    -0.188 A  
BRANCH   5  18
HETATM   18  C   UNL     1     -10.665  14.058  69.079  1.00  0.00    -0.211 C  
HETATM   19  C   UNL     1     -11.405  15.101  68.263  1.00  0.00    -0.338 C  
HETATM   20  C   UNL     1     -11.387  15.204  69.754  1.00  0.00    -0.307 C  
ENDBRANCH   5  18
BRANCH   7  21
HETATM   21  N   UNL     1      -7.760  10.746  66.171  1.00  0.00    -0.151 NA 
HETATM   22  C   UNL     1      -6.506  11.456  66.444  1.00  0.00    -0.029 C  
HETATM   23  C   UNL     1      -5.433  10.922  65.464  1.00  0.00    -0.114 C  
HETATM   24  N   UNL     1      -5.803  11.074  64.039  1.00  0.00    -0.349 NA 
HETATM   25  C   UNL     1      -7.126  10.452  63.786  1.00  0.00     0.019 C  
HETATM   26  H   UNL     1      -5.084  10.706  63.416  1.00  0.00     0.000 HD 
HETATM   27  C   UNL     1      -7.533  10.692  62.335  1.00  0.00    -0.158 C  
HETATM   28  C   UNL     1      -8.238  10.920  64.781  1.00  0.00     0.146 C  
ENDBRANCH   7  21
ENDBRANCH   2   3
TORSDOF 3
ENDMDL
MODEL       90
REMARK 921   NORMALIZED FREE ENERGY PREDICTED BY IDOCK:   -3.89 KCAL/MOL
REMARK 922        TOTAL FREE ENERGY PREDICTED BY IDOCK:   -4.60 KCAL/MOL
REMARK 923 INTER-LIGAND FREE ENERGY PREDICTED BY IDOCK:   -5.99 KCAL/MOL
REMARK 924 INTRA-LIGAND FREE ENERGY PREDICTED BY IDOCK:    1.39 KCAL/MOL
REMARK 927      BINDING AFFINITY PREDICTED BY RF-SCORE:    0.00 PKD
ROOT
HETATM    1  C   UNL     1     -11.857  11.257  70.426  1.00  0.00    -0.350 C  
HETATM    2  O   UNL     1     -10.485  11.041  70.075  1.00  0.00     0.036 OA 
ENDROOT
BRANCH   2   3
HETATM    3  C   UNL     1     -10.297   9.971  69.214  1.00  0.00    -0.219 A  
HETATM    4  C   UNL     1     -10.313  10.245  67.820  1.00  0.00    -0.204 A  
HETATM    5  N   UNL     1     -10.787  11.467  67.234  1.00  0.00    -0.241 NA 
HETATM    6  C   UNL     1     -10.606  11.696  65.875  1.00  0.00    -0.271 C  
HETATM    7  C   UNL     1     -10.016   8.669  69.726  1.00  0.00    -0.190 A  
HETATM    8  C   UNL     1     -10.081  10.844  64.996  1.00  0.00    -0.362 C  
HETATM    9  F   UNL     1      -9.236   6.474  69.212  1.00  0.00    -0.137 F  
HETATM   10  C   UNL     1      -9.956  11.257  63.580  1.00  0.00    -0.359 C  
HETATM   11  C   UNL     1      -9.564   7.712  68.803  1.00  0.00    -0.153 A  
HETATM   12  C   UNL     1      -9.654   9.524  65.516  1.00  0.00    -0.279 C  
HETATM   13  O   UNL     1      -9.422  10.315  62.764  1.00  0.00    -0.298 OA 
HETATM   14  C   UNL     1      -9.811   9.248  66.962  1.00  0.00    -0.257 A  
HETATM   15  O   UNL     1      -9.169   8.698  64.746  1.00  0.00     0.093 OA 
HETATM   16  O   UNL     1     -10.357  12.323  63.150  1.00  0.00    -0.355 OA 
HETATM   17  C   UNL     1      -9.431   7.997  67.447  1.00  0.00    -0.187 A  
BRANCH   5  18
HETATM   18  C   UNL     1     -11.702  12.364  67.967  1.00  0.00    -0.356 C  
HETATM   19  C   UNL     1     -11.433  13.838  68.203  1.00  0.00    -0.348 C  
HETATM   20  C   UNL     1     -12.484  13.426  67.224  1.00  0.00     0.039 C  
ENDBRANCH   5  18
BRANCH   7  21
HETATM   21  N   UNL     1     -10.141   8.409  71.095  1.00  0.00    -0.188 NA 
HETATM   22  C   UNL     1     -11.392   8.693  71.806  1.00  0.00    -0.323 C  
HETATM   23  C   UNL     1     -11.482   7.732  73.017  1.00  0.00    -0.206 C  
HETATM   24  N   UNL     1     -10.334   7.837  73.945  1.00  0.00    -0.194 NA 
HETATM   25  C   UNL     1      -9.060   7.659  73.204  1.00  0.00    -0.200 C  
HETATM   26  H   UNL     1     -10.414   7.186  74.726  1.00  0.00     0.000 HD 
HETATM   27  C   UNL     1      -7.885   7.857  74.156  1.00  0.00    -0.251 C  
HETATM   28  C   UNL     1      -8.938   8.574  71.941  1.00  0.00    -0.231 C  
ENDBRANCH   7  21
ENDBRANCH   2   3
TORSDOF 3
ENDMDL
MODEL       91
REMARK 921   NORMALIZED FREE ENERGY PREDICTED BY IDOCK:   -3.88 KCAL/MOL
REMARK 922        TOTAL FREE ENERGY PREDICTED BY IDOCK:   -4.58 KCAL/MOL
REMARK 923 INTER-LIGAND FREE ENERGY PREDICTED BY IDOCK:   -5.36 KCAL/MOL
REMARK 924 INTRA-LIGAND FREE ENERGY PREDICTED BY IDOCK:    0.78 KCAL/MOL
REMARK 927      BINDING AFFINITY PREDICTED BY RF-SCORE:    0.00 PKD
ROOT
HETATM    1  C   UNL     1     -11.953   8.777  71.037  1.00  0.00    -0.251 C  
HETATM    2  O   UNL     1     -10.656   9.236  70.638  1.00  0.00    -0.220 OA 
ENDROOT
BRANCH   2   3
HETATM    3  C   UNL     1     -10.374   8.999  69.301  1.00  0.00    -0.219 A  
HETATM    4  C   UNL     1     -10.066   7.664  68.926  1.00  0.00    -0.197 A  
HETATM    5  N   UNL     1      -9.744   6.612  69.848  1.00  0.00    -0.158 NA 
HETATM    6  C   UNL     1      -9.619   5.306  69.388  1.00  0.00    -0.156 C  
HETATM    7  C   UNL     1     -10.478  10.050  68.341  1.00  0.00    -0.205 A  
HETATM    8  C   UNL     1      -9.700   4.907  68.119  1.00  0.00    -0.202 C  
HETATM    9  F   UNL     1     -10.591  10.598  66.022  1.00  0.00    -0.300 F  
HETATM   10  C   UNL     1      -9.549   3.468  67.807  1.00  0.00    -0.123 C  
HETATM   11  C   UNL     1     -10.455   9.673  66.988  1.00  0.00    -0.232 A  
HETATM   12  C   UNL     1      -9.939   5.956  67.102  1.00  0.00    -0.159 C  
HETATM   13  O   UNL     1      -9.633   3.167  66.488  1.00  0.00    -0.103 OA 
HETATM   14  C   UNL     1     -10.097   7.357  67.553  1.00  0.00    -0.250 A  
HETATM   15  O   UNL     1     -10.015   5.643  65.916  1.00  0.00    -0.048 OA 
HETATM   16  O   UNL     1      -9.300   2.619  68.643  1.00  0.00    -0.172 OA 
HETATM   17  C   UNL     1     -10.299   8.348  66.591  1.00  0.00    -0.298 A  
BRANCH   5  18
HETATM   18  C   UNL     1      -9.270   6.908  71.214  1.00  0.00    -0.157 C  
HETATM   19  C   UNL     1      -8.306   6.026  71.986  1.00  0.00    -0.118 C  
HETATM   20  C   UNL     1      -7.836   7.337  71.446  1.00  0.00    -0.096 C  
ENDBRANCH   5  18
BRANCH   7  21
HETATM   21  N   UNL     1     -10.651  11.373  68.762  1.00  0.00    -0.198 NA 
HETATM   22  C   UNL     1      -9.568  12.354  68.631  1.00  0.00    -0.028 C  
HETATM   23  C   UNL     1     -10.210  13.759  68.511  1.00  0.00    -0.235 C  
HETATM   24  N   UNL     1     -11.083  14.113  69.652  1.00  0.00    -0.417 NA 
HETATM   25  C   UNL     1     -12.111  13.062  69.854  1.00  0.00    -0.277 C  
HETATM   26  H   UNL     1     -11.499  15.037  69.542  1.00  0.00     0.000 HD 
HETATM   27  C   UNL     1     -12.946  13.397  71.086  1.00  0.00    -0.314 C  
HETATM   28  C   UNL     1     -11.521  11.616  69.935  1.00  0.00    -0.228 C  
ENDBRANCH   7  21
ENDBRANCH   2   3
TORSDOF 3
ENDMDL
MODEL       92
REMARK 921   NORMALIZED FREE ENERGY PREDICTED BY IDOCK:   -3.85 KCAL/MOL
REMARK 922        TOTAL FREE ENERGY PREDICTED BY IDOCK:   -4.55 KCAL/MOL
REMARK 923 INTER-LIGAND FREE ENERGY PREDICTED BY IDOCK:   -4.12 KCAL/MOL
REMARK 924 INTRA-LIGAND FREE ENERGY PREDICTED BY IDOCK:   -0.43 KCAL/MOL
REMARK 927      BINDING AFFINITY PREDICTED BY RF-SCORE:    0.00 PKD
ROOT
HETATM    1  C   UNL     1      -7.599   5.123  72.116  1.00  0.00    -0.098 C  
HETATM    2  O   UNL     1      -8.655   4.992  71.157  1.00  0.00    -0.119 OA 
ENDROOT
BRANCH   2   3
HETATM    3  C   UNL     1      -8.662   5.998  70.203  1.00  0.00    -0.139 A  
HETATM    4  C   UNL     1      -9.594   7.056  70.377  1.00  0.00    -0.169 A  
HETATM    5  N   UNL     1     -10.706   7.021  71.284  1.00  0.00    -0.220 NA 
HETATM    6  C   UNL     1     -11.460   8.171  71.496  1.00  0.00    -0.267 C  
HETATM    7  C   UNL     1      -7.706   5.999  69.143  1.00  0.00    -0.095 A  
HETATM    8  C   UNL     1     -11.306   9.339  70.873  1.00  0.00    -0.373 C  
HETATM    9  F   UNL     1      -6.689   7.279  67.406  1.00  0.00    -0.058 F  
HETATM   10  C   UNL     1     -12.196  10.466  71.229  1.00  0.00    -0.389 C  
HETATM   11  C   UNL     1      -7.595   7.182  68.394  1.00  0.00    -0.118 A  
HETATM   12  C   UNL     1     -10.233   9.419  69.855  1.00  0.00    -0.222 C  
HETATM   13  O   UNL     1     -11.968  11.606  70.531  1.00  0.00    -0.360 OA 
HETATM   14  C   UNL     1      -9.395   8.222  69.614  1.00  0.00    -0.158 A  
HETATM   15  O   UNL     1     -10.053  10.471  69.247  1.00  0.00    -0.213 OA 
HETATM   16  O   UNL     1     -13.110  10.378  72.029  1.00  0.00    -0.455 OA 
HETATM   17  C   UNL     1      -8.400   8.291  68.638  1.00  0.00    -0.125 A  
BRANCH   5  18
HETATM   18  C   UNL     1     -11.246   5.743  71.787  1.00  0.00    -0.211 C  
HETATM   19  C   UNL     1     -11.177   5.307  73.238  1.00  0.00    -0.359 C  
HETATM   20  C   UNL     1     -12.486   5.729  72.655  1.00  0.00     0.236 C  
ENDBRANCH   5  18
BRANCH   7  21
HETATM   21  N   UNL     1      -6.896   4.879  68.925  1.00  0.00    -0.050 NA 
HETATM   22  C   UNL     1      -5.543   4.805  69.489  1.00  0.00    -0.012 C  
HETATM   23  C   UNL     1      -5.190   3.310  69.684  1.00  0.00    -0.011 C  
HETATM   24  N   UNL     1      -5.267   2.514  68.438  1.00  0.00    -0.012 NA 
HETATM   25  C   UNL     1      -6.601   2.678  67.809  1.00  0.00    -0.036 C  
HETATM   26  H   UNL     1      -5.039   1.533  68.598  1.00  0.00     0.000 HD 
HETATM   27  C   UNL     1      -6.635   1.924  66.484  1.00  0.00    -0.031 C  
HETATM   28  C   UNL     1      -7.029   4.172  67.632  1.00  0.00    -0.056 C  
ENDBRANCH   7  21
ENDBRANCH   2   3
TORSDOF 3
ENDMDL
MODEL       93
REMARK 921   NORMALIZED FREE ENERGY PREDICTED BY IDOCK:   -3.84 KCAL/MOL
REMARK 922        TOTAL FREE ENERGY PREDICTED BY IDOCK:   -4.54 KCAL/MOL
REMARK 923 INTER-LIGAND FREE ENERGY PREDICTED BY IDOCK:   -5.26 KCAL/MOL
REMARK 924 INTRA-LIGAND FREE ENERGY PREDICTED BY IDOCK:    0.72 KCAL/MOL
REMARK 927      BINDING AFFINITY PREDICTED BY RF-SCORE:    0.00 PKD
ROOT
HETATM    1  C   UNL     1     -11.263  10.121  70.678  1.00  0.00    -0.340 C  
HETATM    2  O   UNL     1     -10.046  10.402  69.974  1.00  0.00    -0.193 OA 
ENDROOT
BRANCH   2   3
HETATM    3  C   UNL     1     -10.189  10.380  68.596  1.00  0.00    -0.181 A  
HETATM    4  C   UNL     1     -10.417  11.622  67.943  1.00  0.00    -0.192 A  
HETATM    5  N   UNL     1     -10.794  12.836  68.610  1.00  0.00    -0.249 NA 
HETATM    6  C   UNL     1     -10.832  14.030  67.899  1.00  0.00    -0.244 C  
HETATM    7  C   UNL     1     -10.024   9.163  67.869  1.00  0.00    -0.186 A  
HETATM    8  C   UNL     1     -10.616  14.175  66.592  1.00  0.00    -0.278 C  
HETATM    9  F   UNL     1      -9.703   8.177  65.721  1.00  0.00    -0.190 F  
HETATM   10  C   UNL     1     -10.690  15.528  65.998  1.00  0.00    -0.326 C  
HETATM   11  C   UNL     1      -9.903   9.272  66.474  1.00  0.00    -0.263 A  
HETATM   12  C   UNL     1     -10.311  12.947  65.823  1.00  0.00    -0.284 C  
HETATM   13  O   UNL     1     -10.468  15.569  64.661  1.00  0.00    -0.353 OA 
HETATM   14  C   UNL     1     -10.242  11.657  66.547  1.00  0.00    -0.249 A  
HETATM   15  O   UNL     1     -10.111  13.024  64.613  1.00  0.00    -0.305 OA 
HETATM   16  O   UNL     1     -10.992  16.526  66.626  1.00  0.00    -0.127 OA 
HETATM   17  C   UNL     1      -9.978  10.497  65.818  1.00  0.00    -0.318 A  
BRANCH   5  18
HETATM   18  C   UNL     1     -11.408  12.814  69.952  1.00  0.00     0.040 C  
HETATM   19  C   UNL     1     -11.583  14.044  70.823  1.00  0.00    -0.064 C  
HETATM   20  C   UNL     1     -12.777  13.424  70.173  1.00  0.00    -0.024 C  
ENDBRANCH   5  18
BRANCH   7  21
HETATM   21  N   UNL     1      -9.935   7.943  68.550  1.00  0.00    -0.181 NA 
HETATM   22  C   UNL     1     -11.139   7.263  69.040  1.00  0.00     0.043 C  
HETATM   23  C   UNL     1     -10.836   5.745  69.100  1.00  0.00    -0.285 C  
HETATM   24  N   UNL     1      -9.676   5.404  69.953  1.00  0.00    -0.170 NA 
HETATM   25  C   UNL     1      -8.483   6.178  69.526  1.00  0.00    -0.120 C  
HETATM   26  H   UNL     1      -9.494   4.401  69.967  1.00  0.00     0.000 HD 
HETATM   27  C   UNL     1      -7.320   5.882  70.468  1.00  0.00    -0.085 C  
HETATM   28  C   UNL     1      -8.747   7.715  69.402  1.00  0.00    -0.136 C  
ENDBRANCH   7  21
ENDBRANCH   2   3
TORSDOF 3
ENDMDL
MODEL       94
REMARK 921   NORMALIZED FREE ENERGY PREDICTED BY IDOCK:   -3.82 KCAL/MOL
REMARK 922        TOTAL FREE ENERGY PREDICTED BY IDOCK:   -4.51 KCAL/MOL
REMARK 923 INTER-LIGAND FREE ENERGY PREDICTED BY IDOCK:   -4.37 KCAL/MOL
REMARK 924 INTRA-LIGAND FREE ENERGY PREDICTED BY IDOCK:   -0.14 KCAL/MOL
REMARK 927      BINDING AFFINITY PREDICTED BY RF-SCORE:    0.00 PKD
ROOT
HETATM    1  C   UNL     1     -11.253   7.891  70.574  1.00  0.00    -0.253 C  
HETATM    2  O   UNL     1     -10.565   9.035  71.094  1.00  0.00    -0.240 OA 
ENDROOT
BRANCH   2   3
HETATM    3  C   UNL     1      -9.191   8.977  70.923  1.00  0.00    -0.259 A  
HETATM    4  C   UNL     1      -8.597   9.947  70.071  1.00  0.00    -0.167 A  
HETATM    5  N   UNL     1      -9.325  10.786  69.161  1.00  0.00    -0.167 NA 
HETATM    6  C   UNL     1      -8.666  11.813  68.494  1.00  0.00    -0.118 C  
HETATM    7  C   UNL     1      -8.409   8.028  71.648  1.00  0.00    -0.124 A  
HETATM    8  C   UNL     1      -7.361  12.079  68.550  1.00  0.00    -0.111 C  
HETATM    9  F   UNL     1      -6.214   7.392  72.330  1.00  0.00    -0.043 F  
HETATM   10  C   UNL     1      -6.827  13.222  67.777  1.00  0.00    -0.153 C  
HETATM   11  C   UNL     1      -7.017   8.216  71.637  1.00  0.00    -0.072 A  
HETATM   12  C   UNL     1      -6.534  11.193  69.400  1.00  0.00    -0.100 C  
HETATM   13  O   UNL     1      -5.487  13.401  67.890  1.00  0.00    -0.109 OA 
HETATM   14  C   UNL     1      -7.200  10.099  70.143  1.00  0.00    -0.162 A  
HETATM   15  O   UNL     1      -5.323  11.390  69.482  1.00  0.00    -0.047 OA 
HETATM   16  O   UNL     1      -7.504  13.914  67.039  1.00  0.00     0.014 OA 
HETATM   17  C   UNL     1      -6.416   9.250  70.925  1.00  0.00    -0.080 A  
BRANCH   5  18
HETATM   18  C   UNL     1     -10.679  10.425  68.700  1.00  0.00    -0.218 C  
HETATM   19  C   UNL     1     -11.513  11.283  67.768  1.00  0.00    -0.350 C  
HETATM   20  C   UNL     1     -10.910  10.013  67.262  1.00  0.00    -0.284 C  
ENDBRANCH   5  18
BRANCH   7  21
HETATM   21  N   UNL     1      -9.035   7.006  72.370  1.00  0.00    -0.129 NA 
HETATM   22  C   UNL     1      -9.245   7.124  73.818  1.00  0.00    -0.214 C  
HETATM   23  C   UNL     1     -10.480   6.268  74.192  1.00  0.00    -0.232 C  
HETATM   24  N   UNL     1     -10.353   4.843  73.809  1.00  0.00    -0.204 NA 
HETATM   25  C   UNL     1     -10.030   4.728  72.366  1.00  0.00    -0.174 C  
HETATM   26  H   UNL     1     -11.183   4.306  74.058  1.00  0.00     0.000 HD 
HETATM   27  C   UNL     1      -9.816   3.261  72.006  1.00  0.00    -0.240 C  
HETATM   28  C   UNL     1      -8.818   5.612  71.923  1.00  0.00    -0.135 C  
ENDBRANCH   7  21
ENDBRANCH   2   3
TORSDOF 3
ENDMDL
MODEL       95
REMARK 921   NORMALIZED FREE ENERGY PREDICTED BY IDOCK:   -3.74 KCAL/MOL
REMARK 922        TOTAL FREE ENERGY PREDICTED BY IDOCK:   -4.42 KCAL/MOL
REMARK 923 INTER-LIGAND FREE ENERGY PREDICTED BY IDOCK:   -4.04 KCAL/MOL
REMARK 924 INTRA-LIGAND FREE ENERGY PREDICTED BY IDOCK:   -0.39 KCAL/MOL
REMARK 927      BINDING AFFINITY PREDICTED BY RF-SCORE:    0.00 PKD
ROOT
HETATM    1  C   UNL     1      -9.407   7.382  66.491  1.00  0.00    -0.173 C  
HETATM    2  O   UNL     1      -8.265   6.711  67.037  1.00  0.00    -0.111 OA 
ENDROOT
BRANCH   2   3
HETATM    3  C   UNL     1      -8.589   5.748  67.980  1.00  0.00    -0.105 A  
HETATM    4  C   UNL     1      -8.661   6.162  69.337  1.00  0.00    -0.123 A  
HETATM    5  N   UNL     1      -8.151   7.407  69.838  1.00  0.00    -0.124 NA 
HETATM    6  C   UNL     1      -8.418   7.784  71.149  1.00  0.00    -0.112 C  
HETATM    7  C   UNL     1      -8.919   4.419  67.576  1.00  0.00    -0.114 A  
HETATM    8  C   UNL     1      -9.066   7.059  72.061  1.00  0.00    -0.140 C  
HETATM    9  F   UNL     1      -9.883   2.340  68.235  1.00  0.00    -0.255 F  
HETATM   10  C   UNL     1      -9.269   7.622  73.414  1.00  0.00    -0.255 C  
HETATM   11  C   UNL     1      -9.504   3.590  68.547  1.00  0.00    -0.141 A  
HETATM   12  C   UNL     1      -9.541   5.722  71.638  1.00  0.00    -0.153 C  
HETATM   13  O   UNL     1      -9.926   6.802  74.271  1.00  0.00    -0.309 OA 
HETATM   14  C   UNL     1      -9.293   5.290  70.244  1.00  0.00    -0.207 A  
HETATM   15  O   UNL     1     -10.138   5.009  72.442  1.00  0.00    -0.174 OA 
HETATM   16  O   UNL     1      -8.830   8.700  73.770  1.00  0.00    -0.180 OA 
HETATM   17  C   UNL     1      -9.720   4.020  69.853  1.00  0.00    -0.263 A  
BRANCH   5  18
HETATM   18  C   UNL     1      -7.124   8.167  69.099  1.00  0.00    -0.061 C  
HETATM   19  C   UNL     1      -7.247   9.639  68.752  1.00  0.00    -0.072 C  
HETATM   20  C   UNL     1      -6.286   9.207  69.812  1.00  0.00    -0.039 C  
ENDBRANCH   5  18
BRANCH   7  21
HETATM   21  N   UNL     1      -8.708   4.013  66.253  1.00  0.00    -0.114 NA 
HETATM   22  C   UNL     1      -7.400   4.182  65.611  1.00  0.00    -0.076 C  
HETATM   23  C   UNL     1      -7.263   3.096  64.515  1.00  0.00    -0.062 C  
HETATM   24  N   UNL     1      -8.339   3.139  63.499  1.00  0.00    -0.085 NA 
HETATM   25  C   UNL     1      -9.667   3.081  64.158  1.00  0.00    -0.154 C  
HETATM   26  H   UNL     1      -8.229   2.409  62.796  1.00  0.00     0.000 HD 
HETATM   27  C   UNL     1     -10.764   3.215  63.106  1.00  0.00    -0.225 C  
HETATM   28  C   UNL     1      -9.842   4.127  65.308  1.00  0.00    -0.208 C  
ENDBRANCH   7  21
ENDBRANCH   2   3
TORSDOF 3
ENDMDL
MODEL       96
REMARK 921   NORMALIZED FREE ENERGY PREDICTED BY IDOCK:   -3.72 KCAL/MOL
REMARK 922        TOTAL FREE ENERGY PREDICTED BY IDOCK:   -4.39 KCAL/MOL
REMARK 923 INTER-LIGAND FREE ENERGY PREDICTED BY IDOCK:   -4.61 KCAL/MOL
REMARK 924 INTRA-LIGAND FREE ENERGY PREDICTED BY IDOCK:    0.21 KCAL/MOL
REMARK 927      BINDING AFFINITY PREDICTED BY RF-SCORE:    0.00 PKD
ROOT
HETATM    1  C   UNL     1     -10.379  11.558  69.370  1.00  0.00     0.121 C  
HETATM    2  O   UNL     1      -9.138  11.704  68.670  1.00  0.00    -0.173 OA 
ENDROOT
BRANCH   2   3
HETATM    3  C   UNL     1      -9.033  10.885  67.556  1.00  0.00    -0.136 A  
HETATM    4  C   UNL     1      -8.628   9.540  67.770  1.00  0.00    -0.115 A  
HETATM    5  N   UNL     1      -8.048   9.048  68.988  1.00  0.00    -0.105 NA 
HETATM    6  C   UNL     1      -7.838   7.683  69.149  1.00  0.00    -0.118 C  
HETATM    7  C   UNL     1      -9.405  11.366  66.265  1.00  0.00    -0.212 A  
HETATM    8  C   UNL     1      -8.059   6.739  68.235  1.00  0.00    -0.115 C  
HETATM    9  F   UNL     1      -9.929  10.773  64.015  1.00  0.00    -0.286 F  
HETATM   10  C   UNL     1      -7.786   5.326  68.580  1.00  0.00    -0.086 C  
HETATM   11  C   UNL     1      -9.540  10.407  65.248  1.00  0.00    -0.259 A  
HETATM   12  C   UNL     1      -8.572   7.188  66.920  1.00  0.00    -0.124 C  
HETATM   13  O   UNL     1      -8.030   4.445  67.579  1.00  0.00    -0.094 OA 
HETATM   14  C   UNL     1      -8.827   8.631  66.714  1.00  0.00    -0.152 A  
HETATM   15  O   UNL     1      -8.787   6.358  66.039  1.00  0.00    -0.155 OA 
HETATM   16  O   UNL     1      -7.315   4.971  69.645  1.00  0.00    -0.055 OA 
HETATM   17  C   UNL     1      -9.288   9.056  65.467  1.00  0.00    -0.255 A  
BRANCH   5  18
HETATM   18  C   UNL     1      -7.413   9.961  69.958  1.00  0.00    -0.168 C  
HETATM   19  C   UNL     1      -6.227   9.583  70.825  1.00  0.00    -0.078 C  
HETATM   20  C   UNL     1      -6.035  10.527  69.683  1.00  0.00    -0.051 C  
ENDBRANCH   5  18
BRANCH   7  21
HETATM   21  N   UNL     1      -9.670  12.727  66.070  1.00  0.00    -0.251 NA 
HETATM   22  C   UNL     1      -9.046  13.746  66.921  1.00  0.00    -0.242 C  
HETATM   23  C   UNL     1      -8.953  15.058  66.103  1.00  0.00    -0.123 C  
HETATM   24  N   UNL     1     -10.261  15.541  65.604  1.00  0.00    -0.346 NA 
HETATM   25  C   UNL     1     -10.942  14.469  64.836  1.00  0.00    -0.410 C  
HETATM   26  H   UNL     1     -10.169  16.399  65.062  1.00  0.00     0.000 HD 
HETATM   27  C   UNL     1     -12.324  14.952  64.405  1.00  0.00    -0.342 C  
HETATM   28  C   UNL     1     -11.021  13.106  65.599  1.00  0.00    -0.277 C  
ENDBRANCH   7  21
ENDBRANCH   2   3
TORSDOF 3
ENDMDL
MODEL       97
REMARK 921   NORMALIZED FREE ENERGY PREDICTED BY IDOCK:   -3.60 KCAL/MOL
REMARK 922        TOTAL FREE ENERGY PREDICTED BY IDOCK:   -4.25 KCAL/MOL
REMARK 923 INTER-LIGAND FREE ENERGY PREDICTED BY IDOCK:   -3.48 KCAL/MOL
REMARK 924 INTRA-LIGAND FREE ENERGY PREDICTED BY IDOCK:   -0.78 KCAL/MOL
REMARK 927      BINDING AFFINITY PREDICTED BY RF-SCORE:    0.00 PKD
ROOT
HETATM    1  C   UNL     1      -9.078   5.898  68.268  1.00  0.00    -0.118 C  
HETATM    2  O   UNL     1      -9.518   6.436  67.015  1.00  0.00    -0.130 OA 
ENDROOT
BRANCH   2   3
HETATM    3  C   UNL     1      -8.479   6.865  66.204  1.00  0.00    -0.136 A  
HETATM    4  C   UNL     1      -8.049   8.211  66.352  1.00  0.00    -0.106 A  
HETATM    5  N   UNL     1      -8.781   9.228  67.053  1.00  0.00    -0.123 NA 
HETATM    6  C   UNL     1      -8.194  10.468  67.278  1.00  0.00    -0.119 C  
HETATM    7  C   UNL     1      -7.822   5.953  65.323  1.00  0.00    -0.105 A  
HETATM    8  C   UNL     1      -7.001  10.867  66.837  1.00  0.00    -0.119 C  
HETATM    9  F   UNL     1      -5.912   5.571  63.947  1.00  0.00    -0.019 F  
HETATM   10  C   UNL     1      -6.527  12.226  67.178  1.00  0.00    -0.117 C  
HETATM   11  C   UNL     1      -6.614   6.386  64.753  1.00  0.00    -0.038 A  
HETATM   12  C   UNL     1      -6.229   9.897  66.026  1.00  0.00    -0.074 C  
HETATM   13  O   UNL     1      -5.309  12.540  66.672  1.00  0.00    -0.263 OA 
HETATM   14  C   UNL     1      -6.810   8.558  65.780  1.00  0.00    -0.067 A  
HETATM   15  O   UNL     1      -5.126  10.216  65.589  1.00  0.00    -0.040 OA 
HETATM   16  O   UNL     1      -7.189  13.036  67.800  1.00  0.00    -0.108 OA 
HETATM   17  C   UNL     1      -6.093   7.654  64.996  1.00  0.00    -0.038 A  
BRANCH   5  18
HETATM   18  C   UNL     1     -10.230   9.097  67.300  1.00  0.00    -0.254 C  
HETATM   19  C   UNL     1     -10.907   9.495  68.598  1.00  0.00    -0.177 C  
HETATM   20  C   UNL     1     -11.104  10.332  67.376  1.00  0.00    -0.261 C  
ENDBRANCH   5  18
BRANCH   7  21
HETATM   21  N   UNL     1      -8.355   4.678  65.106  1.00  0.00    -0.121 NA 
HETATM   22  C   UNL     1      -7.737   3.489  65.703  1.00  0.00    -0.082 C  
HETATM   23  C   UNL     1      -8.839   2.416  65.879  1.00  0.00    -0.128 C  
HETATM   24  N   UNL     1      -9.523   2.055  64.616  1.00  0.00    -0.229 NA 
HETATM   25  C   UNL     1     -10.053   3.273  63.955  1.00  0.00    -0.188 C  
HETATM   26  H   UNL     1     -10.249   1.354  64.763  1.00  0.00     0.000 HD 
HETATM   27  C   UNL     1     -10.676   2.895  62.615  1.00  0.00    -0.175 C  
HETATM   28  C   UNL     1      -8.991   4.410  63.796  1.00  0.00    -0.143 C  
ENDBRANCH   7  21
ENDBRANCH   2   3
TORSDOF 3
ENDMDL
MODEL       98
REMARK 921   NORMALIZED FREE ENERGY PREDICTED BY IDOCK:   -3.53 KCAL/MOL
REMARK 922        TOTAL FREE ENERGY PREDICTED BY IDOCK:   -4.18 KCAL/MOL
REMARK 923 INTER-LIGAND FREE ENERGY PREDICTED BY IDOCK:   -4.06 KCAL/MOL
REMARK 924 INTRA-LIGAND FREE ENERGY PREDICTED BY IDOCK:   -0.12 KCAL/MOL
REMARK 927      BINDING AFFINITY PREDICTED BY RF-SCORE:    0.00 PKD
ROOT
HETATM    1  C   UNL     1      -8.593   8.600  65.910  1.00  0.00    -0.157 C  
HETATM    2  O   UNL     1      -7.818   8.049  66.982  1.00  0.00    -0.101 OA 
ENDROOT
BRANCH   2   3
HETATM    3  C   UNL     1      -8.538   7.880  68.154  1.00  0.00    -0.123 A  
HETATM    4  C   UNL     1      -8.640   6.562  68.673  1.00  0.00    -0.124 A  
HETATM    5  N   UNL     1      -8.311   5.371  67.942  1.00  0.00    -0.099 NA 
HETATM    6  C   UNL     1      -8.291   4.144  68.596  1.00  0.00    -0.083 C  
HETATM    7  C   UNL     1      -9.076   9.008  68.844  1.00  0.00    -0.140 A  
HETATM    8  C   UNL     1      -8.625   3.923  69.867  1.00  0.00    -0.104 C  
HETATM    9  F   UNL     1     -10.021   9.805  70.884  1.00  0.00    -0.324 F  
HETATM   10  C   UNL     1      -8.538   2.548  70.405  1.00  0.00    -0.054 C  
HETATM   11  C   UNL     1      -9.540   8.787  70.151  1.00  0.00    -0.173 A  
HETATM   12  C   UNL     1      -9.065   5.097  70.657  1.00  0.00    -0.141 C  
HETATM   13  O   UNL     1      -8.912   2.426  71.703  1.00  0.00    -0.075 OA 
HETATM   14  C   UNL     1      -9.082   6.425  70.003  1.00  0.00    -0.150 A  
HETATM   15  O   UNL     1      -9.391   4.948  71.832  1.00  0.00    -0.137 OA 
HETATM   16  O   UNL     1      -8.226   1.580  69.736  1.00  0.00    -0.044 OA 
HETATM   17  C   UNL     1      -9.518   7.526  70.740  1.00  0.00    -0.163 A  
BRANCH   5  18
HETATM   18  C   UNL     1      -8.264   5.364  66.467  1.00  0.00    -0.109 C  
HETATM   19  C   UNL     1      -8.258   4.102  65.625  1.00  0.00    -0.109 C  
HETATM   20  C   UNL     1      -9.483   4.956  65.668  1.00  0.00    -0.168 C  
ENDBRANCH   5  18
BRANCH   7  21
HETATM   21  N   UNL     1      -9.073  10.270  68.239  1.00  0.00    -0.136 NA 
HETATM   22  C   UNL     1      -8.004  11.236  68.513  1.00  0.00    -0.145 C  
HETATM   23  C   UNL     1      -7.874  12.166  67.281  1.00  0.00    -0.176 C  
HETATM   24  N   UNL     1      -9.126  12.876  66.938  1.00  0.00    -0.224 NA 
HETATM   25  C   UNL     1     -10.235  11.904  66.770  1.00  0.00    -0.206 C  
HETATM   26  H   UNL     1      -9.015  13.472  66.119  1.00  0.00     0.000 HD 
HETATM   27  C   UNL     1     -11.535  12.656  66.504  1.00  0.00    -0.409 C  
HETATM   28  C   UNL     1     -10.381  10.908  67.967  1.00  0.00    -0.185 C  
ENDBRANCH   7  21
ENDBRANCH   2   3
TORSDOF 3
ENDMDL
MODEL       99
REMARK 921   NORMALIZED FREE ENERGY PREDICTED BY IDOCK:   -3.42 KCAL/MOL
REMARK 922        TOTAL FREE ENERGY PREDICTED BY IDOCK:   -4.04 KCAL/MOL
REMARK 923 INTER-LIGAND FREE ENERGY PREDICTED BY IDOCK:   -4.90 KCAL/MOL
REMARK 924 INTRA-LIGAND FREE ENERGY PREDICTED BY IDOCK:    0.86 KCAL/MOL
REMARK 927      BINDING AFFINITY PREDICTED BY RF-SCORE:    0.00 PKD
ROOT
HETATM    1  C   UNL     1     -11.696  12.595  67.592  1.00  0.00    -0.361 C  
HETATM    2  O   UNL     1     -10.876  12.652  68.766  1.00  0.00    -0.237 OA 
ENDROOT
BRANCH   2   3
HETATM    3  C   UNL     1     -10.796  13.920  69.321  1.00  0.00    -0.135 A  
HETATM    4  C   UNL     1      -9.904  14.844  68.713  1.00  0.00    -0.225 A  
HETATM    5  N   UNL     1      -8.884  14.489  67.767  1.00  0.00    -0.176 NA 
HETATM    6  C   UNL     1      -8.176  15.489  67.110  1.00  0.00    -0.215 C  
HETATM    7  C   UNL     1     -11.645  14.291  70.407  1.00  0.00    -0.200 A  
HETATM    8  C   UNL     1      -8.290  16.801  67.316  1.00  0.00    -0.197 C  
HETATM    9  F   UNL     1     -12.513  16.095  71.703  1.00  0.00    -0.469 F  
HETATM   10  C   UNL     1      -7.459  17.729  66.519  1.00  0.00    -0.249 C  
HETATM   11  C   UNL     1     -11.705  15.658  70.723  1.00  0.00    -0.375 A  
HETATM   12  C   UNL     1      -9.261  17.234  68.348  1.00  0.00    -0.268 C  
HETATM   13  O   UNL     1      -7.639  19.040  66.813  1.00  0.00    -0.222 OA 
HETATM   14  C   UNL     1     -10.050  16.201  69.056  1.00  0.00    -0.247 A  
HETATM   15  O   UNL     1      -9.401  18.432  68.582  1.00  0.00    -0.324 OA 
HETATM   16  O   UNL     1      -6.625  17.364  65.710  1.00  0.00    -0.141 OA 
HETATM   17  C   UNL     1     -10.947  16.608  70.044  1.00  0.00    -0.148 A  
BRANCH   5  18
HETATM   18  C   UNL     1      -8.372  13.108  67.673  1.00  0.00    -0.174 C  
HETATM   19  C   UNL     1      -7.951  12.449  66.373  1.00  0.00     0.420 C  
HETATM   20  C   UNL     1      -6.911  12.857  67.366  1.00  0.00    -0.129 C  
ENDBRANCH   5  18
BRANCH   7  21
HETATM   21  N   UNL     1     -12.411  13.322  71.065  1.00  0.00    -0.347 NA 
HETATM   22  C   UNL     1     -13.137  13.642  72.299  1.00  0.00    -0.395 C  
HETATM   23  C   UNL     1     -14.354  12.691  72.396  1.00  0.00     0.456 C  
HETATM   24  N   UNL     1     -13.990  11.256  72.378  1.00  0.00    -0.059 NA 
HETATM   25  C   UNL     1     -13.160  10.955  71.185  1.00  0.00    -0.257 C  
HETATM   26  H   UNL     1     -14.811  10.653  72.433  1.00  0.00     0.000 HD 
HETATM   27  C   UNL     1     -12.720   9.495  71.226  1.00  0.00    -0.416 C  
HETATM   28  C   UNL     1     -11.941  11.919  71.011  1.00  0.00     0.188 C  
ENDBRANCH   7  21
ENDBRANCH   2   3
TORSDOF 3
ENDMDL
MODEL      100
REMARK 921   NORMALIZED FREE ENERGY PREDICTED BY IDOCK:   -3.25 KCAL/MOL
REMARK 922        TOTAL FREE ENERGY PREDICTED BY IDOCK:   -3.84 KCAL/MOL
REMARK 923 INTER-LIGAND FREE ENERGY PREDICTED BY IDOCK:   -4.54 KCAL/MOL
REMARK 924 INTRA-LIGAND FREE ENERGY PREDICTED BY IDOCK:    0.69 KCAL/MOL
REMARK 927      BINDING AFFINITY PREDICTED BY RF-SCORE:    0.00 PKD
ROOT
HETATM    1  C   UNL     1     -10.221  10.351  68.017  1.00  0.00    -0.169 C  
HETATM    2  O   UNL     1     -10.358   8.963  67.689  1.00  0.00    -0.222 OA 
ENDROOT
BRANCH   2   3
HETATM    3  C   UNL     1      -9.333   8.175  68.187  1.00  0.00    -0.133 A  
HETATM    4  C   UNL     1      -9.596   7.431  69.368  1.00  0.00    -0.155 A  
HETATM    5  N   UNL     1     -10.720   7.648  70.235  1.00  0.00    -0.235 NA 
HETATM    6  C   UNL     1     -10.972   6.759  71.273  1.00  0.00    -0.249 C  
HETATM    7  C   UNL     1      -8.097   8.061  67.480  1.00  0.00    -0.123 A  
HETATM    8  C   UNL     1     -10.217   5.716  71.618  1.00  0.00    -0.261 C  
HETATM    9  F   UNL     1      -6.063   6.836  67.251  1.00  0.00    -0.024 F  
HETATM   10  C   UNL     1     -10.641   4.865  72.751  1.00  0.00    -0.217 C  
HETATM   11  C   UNL     1      -7.227   7.038  67.892  1.00  0.00    -0.091 A  
HETATM   12  C   UNL     1      -8.990   5.486  70.821  1.00  0.00    -0.142 C  
HETATM   13  O   UNL     1      -9.800   3.839  73.031  1.00  0.00    -0.123 OA 
HETATM   14  C   UNL     1      -8.695   6.400  69.694  1.00  0.00    -0.138 A  
HETATM   15  O   UNL     1      -8.254   4.542  71.101  1.00  0.00    -0.083 OA 
HETATM   16  O   UNL     1     -11.623   5.091  73.434  1.00  0.00    -0.291 OA 
HETATM   17  C   UNL     1      -7.526   6.196  68.959  1.00  0.00    -0.087 A  
BRANCH   5  18
HETATM   18  C   UNL     1     -11.452   8.930  70.233  1.00  0.00    -0.105 C  
HETATM   19  C   UNL     1     -12.750   9.164  70.984  1.00  0.00    -0.185 C  
HETATM   20  C   UNL     1     -11.486   9.789  71.480  1.00  0.00    -0.393 C  
ENDBRANCH   5  18
BRANCH   7  21
HETATM   21  N   UNL     1      -7.824   8.906  66.400  1.00  0.00    -0.102 NA 
HETATM   22  C   UNL     1      -7.306  10.262  66.614  1.00  0.00    -0.109 C  
HETATM   23  C   UNL     1      -6.491  10.665  65.360  1.00  0.00    -0.034 C  
HETATM   24  N   UNL     1      -7.271  10.610  64.103  1.00  0.00    -0.342 NA 
HETATM   25  C   UNL     1      -7.888   9.270  63.942  1.00  0.00    -0.130 C  
HETATM   26  H   UNL     1      -6.708  10.870  63.293  1.00  0.00     0.000 HD 
HETATM   27  C   UNL     1      -8.758   9.257  62.689  1.00  0.00    -0.225 C  
HETATM   28  C   UNL     1      -8.684   8.793  65.200  1.00  0.00    -0.167 C  
ENDBRANCH   7  21
ENDBRANCH   2   3
TORSDOF 3
ENDMDL
MODEL      101
REMARK 921   NORMALIZED FREE ENERGY PREDICTED BY IDOCK:   -3.22 KCAL/MOL
REMARK 922        TOTAL FREE ENERGY PREDICTED BY IDOCK:   -3.81 KCAL/MOL
REMARK 923 INTER-LIGAND FREE ENERGY PREDICTED BY IDOCK:   -3.44 KCAL/MOL
REMARK 924 INTRA-LIGAND FREE ENERGY PREDICTED BY IDOCK:   -0.37 KCAL/MOL
REMARK 927      BINDING AFFINITY PREDICTED BY RF-SCORE:    0.00 PKD
ROOT
HETATM    1  C   UNL     1      -6.581   6.063  68.680  1.00  0.00    -0.058 C  
HETATM    2  O   UNL     1      -7.878   6.625  68.911  1.00  0.00    -0.107 OA 
ENDROOT
BRANCH   2   3
HETATM    3  C   UNL     1      -8.119   7.778  68.180  1.00  0.00    -0.123 A  
HETATM    4  C   UNL     1      -7.703   9.011  68.749  1.00  0.00    -0.095 A  
HETATM    5  N   UNL     1      -7.324   9.188  70.123  1.00  0.00    -0.066 NA 
HETATM    6  C   UNL     1      -6.778  10.397  70.537  1.00  0.00    -0.031 C  
HETATM    7  C   UNL     1      -8.685   7.701  66.871  1.00  0.00    -0.129 A  
HETATM    8  C   UNL     1      -6.621  11.489  69.788  1.00  0.00    -0.091 C  
HETATM    9  F   UNL     1      -9.107   8.868  64.835  1.00  0.00    -0.235 F  
HETATM   10  C   UNL     1      -6.012  12.694  70.392  1.00  0.00    -0.103 C  
HETATM   11  C   UNL     1      -8.635   8.869  66.093  1.00  0.00    -0.140 A  
HETATM   12  C   UNL     1      -7.078  11.406  68.382  1.00  0.00    -0.079 C  
HETATM   13  O   UNL     1      -5.909  13.754  69.553  1.00  0.00    -0.090 OA 
HETATM   14  C   UNL     1      -7.648  10.129  67.896  1.00  0.00    -0.089 A  
HETATM   15  O   UNL     1      -6.963  12.386  67.649  1.00  0.00    -0.104 OA 
HETATM   16  O   UNL     1      -5.687  12.771  71.563  1.00  0.00    -0.388 OA 
HETATM   17  C   UNL     1      -8.099  10.059  66.577  1.00  0.00    -0.119 A  
BRANCH   5  18
HETATM   18  C   UNL     1      -7.748   8.231  71.164  1.00  0.00    -0.094 C  
HETATM   19  C   UNL     1      -7.726   8.535  72.651  1.00  0.00    -0.073 C  
HETATM   20  C   UNL     1      -9.033   8.461  71.931  1.00  0.00    -0.280 C  
ENDBRANCH   5  18
BRANCH   7  21
HETATM   21  N   UNL     1      -9.203   6.491  66.399  1.00  0.00    -0.158 NA 
HETATM   22  C   UNL     1     -10.312   5.823  67.090  1.00  0.00    -0.240 C  
HETATM   23  C   UNL     1     -11.082   4.975  66.048  1.00  0.00     0.221 C  
HETATM   24  N   UNL     1     -10.238   3.976  65.355  1.00  0.00    -0.408 NA 
HETATM   25  C   UNL     1      -9.056   4.637  64.749  1.00  0.00    -0.149 C  
HETATM   26  H   UNL     1     -10.768   3.439  64.668  1.00  0.00     0.000 HD 
HETATM   27  C   UNL     1      -8.152   3.584  64.116  1.00  0.00    -0.086 C  
HETATM   28  C   UNL     1      -8.267   5.546  65.748  1.00  0.00    -0.124 C  
ENDBRANCH   7  21
ENDBRANCH   2   3
TORSDOF 3
ENDMDL
MODEL      102
REMARK 921   NORMALIZED FREE ENERGY PREDICTED BY IDOCK:   -3.12 KCAL/MOL
REMARK 922        TOTAL FREE ENERGY PREDICTED BY IDOCK:   -3.69 KCAL/MOL
REMARK 923 INTER-LIGAND FREE ENERGY PREDICTED BY IDOCK:   -3.57 KCAL/MOL
REMARK 924 INTRA-LIGAND FREE ENERGY PREDICTED BY IDOCK:   -0.12 KCAL/MOL
REMARK 927      BINDING AFFINITY PREDICTED BY RF-SCORE:    0.00 PKD
ROOT
HETATM    1  C   UNL     1      -9.286   3.059  67.218  1.00  0.00    -0.182 C  
HETATM    2  O   UNL     1      -8.102   3.857  67.337  1.00  0.00    -0.090 OA 
ENDROOT
BRANCH   2   3
HETATM    3  C   UNL     1      -8.184   5.069  66.669  1.00  0.00    -0.108 A  
HETATM    4  C   UNL     1      -8.109   6.252  67.452  1.00  0.00    -0.109 A  
HETATM    5  N   UNL     1      -8.244   6.293  68.881  1.00  0.00    -0.113 NA 
HETATM    6  C   UNL     1      -7.992   7.478  69.563  1.00  0.00    -0.126 C  
HETATM    7  C   UNL     1      -8.255   5.108  65.244  1.00  0.00    -0.126 A  
HETATM    8  C   UNL     1      -7.692   8.655  69.014  1.00  0.00    -0.095 C  
HETATM    9  F   UNL     1      -8.060   6.473  63.297  1.00  0.00    -0.111 F  
HETATM   10  C   UNL     1      -7.445   9.818  69.895  1.00  0.00    -0.141 C  
HETATM   11  C   UNL     1      -8.052   6.358  64.636  1.00  0.00    -0.100 A  
HETATM   12  C   UNL     1      -7.627   8.706  67.535  1.00  0.00    -0.094 C  
HETATM   13  O   UNL     1      -7.161  10.970  69.240  1.00  0.00    -0.111 OA 
HETATM   14  C   UNL     1      -7.870   7.461  66.772  1.00  0.00    -0.110 A  
HETATM   15  O   UNL     1      -7.360   9.768  66.977  1.00  0.00    -0.090 OA 
HETATM   16  O   UNL     1      -7.552   9.780  71.107  1.00  0.00    -0.278 OA 
HETATM   17  C   UNL     1      -7.831   7.515  65.378  1.00  0.00    -0.117 A  
BRANCH   5  18
HETATM   18  C   UNL     1      -8.908   5.202  69.620  1.00  0.00    -0.102 C  
HETATM   19  C   UNL     1      -9.496   5.356  71.010  1.00  0.00    -0.205 C  
HETATM   20  C   UNL     1     -10.406   5.227  69.833  1.00  0.00    -0.374 C  
ENDBRANCH   5  18
BRANCH   7  21
HETATM   21  N   UNL     1      -8.462   3.931  64.517  1.00  0.00    -0.101 NA 
HETATM   22  C   UNL     1      -7.335   3.197  63.931  1.00  0.00    -0.061 C  
HETATM   23  C   UNL     1      -7.741   1.707  63.822  1.00  0.00    -0.060 C  
HETATM   24  N   UNL     1      -8.965   1.482  63.022  1.00  0.00    -0.085 NA 
HETATM   25  C   UNL     1     -10.079   2.310  63.548  1.00  0.00    -0.137 C  
HETATM   26  H   UNL     1      -9.215   0.494  62.975  1.00  0.00     0.000 HD 
HETATM   27  C   UNL     1     -11.307   2.135  62.661  1.00  0.00    -0.186 C  
HETATM   28  C   UNL     1      -9.707   3.820  63.723  1.00  0.00    -0.160 C  
ENDBRANCH   7  21
ENDBRANCH   2   3
TORSDOF 3
ENDMDL
MODEL      103
REMARK 921   NORMALIZED FREE ENERGY PREDICTED BY IDOCK:   -3.03 KCAL/MOL
REMARK 922        TOTAL FREE ENERGY PREDICTED BY IDOCK:   -3.59 KCAL/MOL
REMARK 923 INTER-LIGAND FREE ENERGY PREDICTED BY IDOCK:   -4.64 KCAL/MOL
REMARK 924 INTRA-LIGAND FREE ENERGY PREDICTED BY IDOCK:    1.05 KCAL/MOL
REMARK 927      BINDING AFFINITY PREDICTED BY RF-SCORE:    0.00 PKD
ROOT
HETATM    1  C   UNL     1      -7.505  10.626  65.596  1.00  0.00    -0.093 C  
HETATM    2  O   UNL     1      -8.672   9.975  65.080  1.00  0.00    -0.151 OA 
ENDROOT
BRANCH   2   3
HETATM    3  C   UNL     1      -9.511   9.483  66.067  1.00  0.00    -0.233 A  
HETATM    4  C   UNL     1      -9.441   8.093  66.351  1.00  0.00    -0.218 A  
HETATM    5  N   UNL     1      -8.793   7.122  65.515  1.00  0.00    -0.027 NA 
HETATM    6  C   UNL     1      -8.641   5.816  65.965  1.00  0.00    -0.139 C  
HETATM    7  C   UNL     1     -10.344  10.367  66.817  1.00  0.00    -0.235 A  
HETATM    8  C   UNL     1      -9.110   5.317  67.109  1.00  0.00    -0.112 C  
HETATM    9  F   UNL     1     -11.708  10.619  68.757  1.00  0.00    -0.320 F  
HETATM   10  C   UNL     1      -8.848   3.898  67.436  1.00  0.00    -0.122 C  
HETATM   11  C   UNL     1     -10.944   9.840  67.973  1.00  0.00    -0.180 A  
HETATM   12  C   UNL     1      -9.870   6.243  67.980  1.00  0.00    -0.125 C  
HETATM   13  O   UNL     1      -9.377   3.485  68.614  1.00  0.00    -0.153 OA 
HETATM   14  C   UNL     1     -10.038   7.648  67.546  1.00  0.00    -0.264 A  
HETATM   15  O   UNL     1     -10.331   5.833  69.043  1.00  0.00    -0.197 OA 
HETATM   16  O   UNL     1      -8.267   3.130  66.691  1.00  0.00    -0.087 OA 
HETATM   17  C   UNL     1     -10.775   8.513  68.356  1.00  0.00    -0.084 A  
BRANCH   5  18
HETATM   18  C   UNL     1      -8.531   7.392  64.087  1.00  0.00     0.270 C  
HETATM   19  C   UNL     1      -7.142   7.506  63.489  1.00  0.00    -0.070 C  
HETATM   20  C   UNL     1      -7.977   6.302  63.195  1.00  0.00    -0.098 C  
ENDBRANCH   5  18
BRANCH   7  21
HETATM   21  N   UNL     1     -10.487  11.702  66.424  1.00  0.00    -0.236 NA 
HETATM   22  C   UNL     1     -10.057  12.147  65.094  1.00  0.00    -0.261 C  
HETATM   23  C   UNL     1     -10.914  13.377  64.702  1.00  0.00    -0.377 C  
HETATM   24  N   UNL     1     -10.823  14.495  65.668  1.00  0.00    -0.311 NA 
HETATM   25  C   UNL     1     -11.151  14.018  67.034  1.00  0.00    -0.304 C  
HETATM   26  H   UNL     1     -11.403  15.287  65.391  1.00  0.00     0.000 HD 
HETATM   27  C   UNL     1     -10.967  15.160  68.030  1.00  0.00    -0.295 C  
HETATM   28  C   UNL     1     -10.347  12.747  67.463  1.00  0.00    -0.219 C  
ENDBRANCH   7  21
ENDBRANCH   2   3
TORSDOF 3
ENDMDL
MODEL      104
REMARK 921   NORMALIZED FREE ENERGY PREDICTED BY IDOCK:   -2.78 KCAL/MOL
REMARK 922        TOTAL FREE ENERGY PREDICTED BY IDOCK:   -3.30 KCAL/MOL
REMARK 923 INTER-LIGAND FREE ENERGY PREDICTED BY IDOCK:   -3.16 KCAL/MOL
REMARK 924 INTRA-LIGAND FREE ENERGY PREDICTED BY IDOCK:   -0.14 KCAL/MOL
REMARK 927      BINDING AFFINITY PREDICTED BY RF-SCORE:    0.00 PKD
ROOT
HETATM    1  C   UNL     1      -9.768   4.728  67.202  1.00  0.00    -0.184 C  
HETATM    2  O   UNL     1      -8.894   5.250  68.209  1.00  0.00    -0.105 OA 
ENDROOT
BRANCH   2   3
HETATM    3  C   UNL     1      -8.747   6.628  68.153  1.00  0.00    -0.117 A  
HETATM    4  C   UNL     1      -8.136   7.171  66.991  1.00  0.00    -0.117 A  
HETATM    5  N   UNL     1      -7.408   6.406  66.018  1.00  0.00    -0.078 NA 
HETATM    6  C   UNL     1      -6.991   7.009  64.837  1.00  0.00    -0.051 C  
HETATM    7  C   UNL     1      -9.272   7.456  69.190  1.00  0.00    -0.147 A  
HETATM    8  C   UNL     1      -7.134   8.295  64.517  1.00  0.00    -0.077 C  
HETATM    9  F   UNL     1      -9.855   9.678  69.833  1.00  0.00    -0.192 F  
HETATM   10  C   UNL     1      -6.635   8.769  63.207  1.00  0.00    -0.090 C  
HETATM   11  C   UNL     1      -9.334   8.835  68.925  1.00  0.00    -0.145 A  
HETATM   12  C   UNL     1      -7.795   9.164  65.517  1.00  0.00    -0.095 C  
HETATM   13  O   UNL     1      -6.816  10.093  62.982  1.00  0.00    -0.129 OA 
HETATM   14  C   UNL     1      -8.272   8.557  66.780  1.00  0.00    -0.105 A  
HETATM   15  O   UNL     1      -7.946  10.360  65.274  1.00  0.00    -0.150 OA 
HETATM   16  O   UNL     1      -6.046   8.059  62.412  1.00  0.00    -0.079 OA 
HETATM   17  C   UNL     1      -8.873   9.381  67.731  1.00  0.00    -0.124 A  
BRANCH   5  18
HETATM   18  C   UNL     1      -6.849   5.080  66.349  1.00  0.00    -0.062 C  
HETATM   19  C   UNL     1      -5.629   4.484  65.671  1.00  0.00    -0.017 C  
HETATM   20  C   UNL     1      -5.528   4.972  67.080  1.00  0.00    -0.013 C  
ENDBRANCH   5  18
BRANCH   7  21
HETATM   21  N   UNL     1      -9.745   6.884  70.376  1.00  0.00    -0.173 NA 
HETATM   22  C   UNL     1     -11.183   6.729  70.618  1.00  0.00    -0.312 C  
HETATM   23  C   UNL     1     -11.378   5.531  71.580  1.00  0.00     0.008 C  
HETATM   24  N   UNL     1     -10.658   5.678  72.865  1.00  0.00    -0.216 NA 
HETATM   25  C   UNL     1      -9.220   5.946  72.617  1.00  0.00    -0.137 C  
HETATM   26  H   UNL     1     -10.796   4.872  73.474  1.00  0.00     0.000 HD 
HETATM   27  C   UNL     1      -8.509   6.182  73.946  1.00  0.00    -0.119 C  
HETATM   28  C   UNL     1      -8.966   7.118  71.613  1.00  0.00    -0.133 C  
ENDBRANCH   7  21
ENDBRANCH   2   3
TORSDOF 3
ENDMDL
MODEL      105
REMARK 921   NORMALIZED FREE ENERGY PREDICTED BY IDOCK:   -2.72 KCAL/MOL
REMARK 922        TOTAL FREE ENERGY PREDICTED BY IDOCK:   -3.23 KCAL/MOL
REMARK 923 INTER-LIGAND FREE ENERGY PREDICTED BY IDOCK:   -3.07 KCAL/MOL
REMARK 924 INTRA-LIGAND FREE ENERGY PREDICTED BY IDOCK:   -0.16 KCAL/MOL
REMARK 927      BINDING AFFINITY PREDICTED BY RF-SCORE:    0.00 PKD
ROOT
HETATM    1  C   UNL     1      -9.794   4.040  67.567  1.00  0.00    -0.057 C  
HETATM    2  O   UNL     1      -8.610   4.044  68.374  1.00  0.00    -0.090 OA 
ENDROOT
BRANCH   2   3
HETATM    3  C   UNL     1      -7.810   5.159  68.174  1.00  0.00    -0.087 A  
HETATM    4  C   UNL     1      -7.674   6.067  69.258  1.00  0.00    -0.095 A  
HETATM    5  N   UNL     1      -8.513   6.077  70.423  1.00  0.00    -0.130 NA 
HETATM    6  C   UNL     1      -8.192   6.900  71.497  1.00  0.00    -0.110 C  
HETATM    7  C   UNL     1      -7.092   5.326  66.952  1.00  0.00    -0.066 A  
HETATM    8  C   UNL     1      -7.187   7.774  71.546  1.00  0.00    -0.064 C  
HETATM    9  F   UNL     1      -5.347   6.509  65.837  1.00  0.00    -0.015 F  
HETATM   10  C   UNL     1      -6.985   8.568  72.778  1.00  0.00    -0.024 C  
HETATM   11  C   UNL     1      -6.097   6.317  66.935  1.00  0.00    -0.025 A  
HETATM   12  C   UNL     1      -6.335   7.883  70.340  1.00  0.00    -0.037 C  
HETATM   13  O   UNL     1      -5.946   9.438  72.723  1.00  0.00    -0.298 OA 
HETATM   14  C   UNL     1      -6.632   7.010  69.181  1.00  0.00    -0.048 A  
HETATM   15  O   UNL     1      -5.399   8.679  70.329  1.00  0.00    -0.022 OA 
HETATM   16  O   UNL     1      -7.721   8.511  73.746  1.00  0.00    -0.350 OA 
HETATM   17  C   UNL     1      -5.843   7.129  68.037  1.00  0.00    -0.026 A  
BRANCH   5  18
HETATM   18  C   UNL     1      -9.851   5.453  70.410  1.00  0.00    -0.205 C  
HETATM   19  C   UNL     1     -10.881   5.637  71.509  1.00  0.00    -0.297 C  
HETATM   20  C   UNL     1     -11.084   6.302  70.187  1.00  0.00    -0.443 C  
ENDBRANCH   5  18
BRANCH   7  21
HETATM   21  N   UNL     1      -7.353   4.488  65.862  1.00  0.00    -0.076 NA 
HETATM   22  C   UNL     1      -6.500   3.328  65.581  1.00  0.00    -0.032 C  
HETATM   23  C   UNL     1      -7.357   2.276  64.835  1.00  0.00    -0.062 C  
HETATM   24  N   UNL     1      -7.959   2.782  63.580  1.00  0.00    -0.079 NA 
HETATM   25  C   UNL     1      -8.731   4.020  63.848  1.00  0.00    -0.113 C  
HETATM   26  H   UNL     1      -8.525   2.072  63.116  1.00  0.00     0.000 HD 
HETATM   27  C   UNL     1      -9.271   4.577  62.534  1.00  0.00    -0.121 C  
HETATM   28  C   UNL     1      -7.927   5.100  64.643  1.00  0.00    -0.102 C  
ENDBRANCH   7  21
ENDBRANCH   2   3
TORSDOF 3
ENDMDL
MODEL      106
REMARK 921   NORMALIZED FREE ENERGY PREDICTED BY IDOCK:   -2.72 KCAL/MOL
REMARK 922        TOTAL FREE ENERGY PREDICTED BY IDOCK:   -3.22 KCAL/MOL
REMARK 923 INTER-LIGAND FREE ENERGY PREDICTED BY IDOCK:   -3.94 KCAL/MOL
REMARK 924 INTRA-LIGAND FREE ENERGY PREDICTED BY IDOCK:    0.73 KCAL/MOL
REMARK 927      BINDING AFFINITY PREDICTED BY RF-SCORE:    0.00 PKD
ROOT
HETATM    1  C   UNL     1      -9.926   6.889  66.797  1.00  0.00    -0.182 C  
HETATM    2  O   UNL     1     -10.656   5.726  67.207  1.00  0.00    -0.236 OA 
ENDROOT
BRANCH   2   3
HETATM    3  C   UNL     1      -9.850   4.715  67.705  1.00  0.00    -0.128 A  
HETATM    4  C   UNL     1      -9.814   4.545  69.115  1.00  0.00    -0.152 A  
HETATM    5  N   UNL     1     -10.308   5.501  70.065  1.00  0.00    -0.264 NA 
HETATM    6  C   UNL     1     -10.374   5.165  71.412  1.00  0.00    -0.203 C  
HETATM    7  C   UNL     1      -9.158   3.836  66.819  1.00  0.00    -0.159 A  
HETATM    8  C   UNL     1      -9.946   4.029  71.962  1.00  0.00    -0.246 C  
HETATM    9  F   UNL     1      -7.968   1.779  66.614  1.00  0.00    -0.066 F  
HETATM   10  C   UNL     1     -10.101   3.833  73.420  1.00  0.00    -0.135 C  
HETATM   11  C   UNL     1      -8.598   2.679  67.387  1.00  0.00    -0.105 A  
HETATM   12  C   UNL     1      -9.338   3.032  71.051  1.00  0.00    -0.144 C  
HETATM   13  O   UNL     1      -9.623   2.651  73.883  1.00  0.00    -0.086 OA 
HETATM   14  C   UNL     1      -9.267   3.343  69.605  1.00  0.00    -0.225 A  
HETATM   15  O   UNL     1      -8.921   1.969  71.507  1.00  0.00    -0.070 OA 
HETATM   16  O   UNL     1     -10.554   4.678  74.171  1.00  0.00    -0.256 OA 
HETATM   17  C   UNL     1      -8.674   2.414  68.751  1.00  0.00    -0.129 A  
BRANCH   5  18
HETATM   18  C   UNL     1     -10.489   6.920  69.701  1.00  0.00    -0.218 C  
HETATM   19  C   UNL     1     -11.513   7.836  70.345  1.00  0.00    -0.171 C  
HETATM   20  C   UNL     1     -10.062   8.012  70.658  1.00  0.00    -0.203 C  
ENDBRANCH   5  18
BRANCH   7  21
HETATM   21  N   UNL     1      -9.108   4.114  65.449  1.00  0.00    -0.131 NA 
HETATM   22  C   UNL     1      -8.093   5.019  64.898  1.00  0.00    -0.112 C  
HETATM   23  C   UNL     1      -7.841   4.613  63.425  1.00  0.00    -0.079 C  
HETATM   24  N   UNL     1      -9.059   4.643  62.585  1.00  0.00    -0.159 NA 
HETATM   25  C   UNL     1     -10.125   3.815  63.201  1.00  0.00    -0.176 C  
HETATM   26  H   UNL     1      -8.866   4.362  61.623  1.00  0.00     0.000 HD 
HETATM   27  C   UNL     1     -11.400   3.926  62.370  1.00  0.00     0.276 C  
HETATM   28  C   UNL     1     -10.388   4.151  64.705  1.00  0.00    -0.188 C  
ENDBRANCH   7  21
ENDBRANCH   2   3
TORSDOF 3
ENDMDL
MODEL      107
REMARK 921   NORMALIZED FREE ENERGY PREDICTED BY IDOCK:   -2.39 KCAL/MOL
REMARK 922        TOTAL FREE ENERGY PREDICTED BY IDOCK:   -2.84 KCAL/MOL
REMARK 923 INTER-LIGAND FREE ENERGY PREDICTED BY IDOCK:   -4.79 KCAL/MOL
REMARK 924 INTRA-LIGAND FREE ENERGY PREDICTED BY IDOCK:    1.95 KCAL/MOL
REMARK 927      BINDING AFFINITY PREDICTED BY RF-SCORE:    0.00 PKD
ROOT
HETATM    1  C   UNL     1      -7.932   7.438  64.435  1.00  0.00    -0.109 C  
HETATM    2  O   UNL     1      -9.278   7.647  64.881  1.00  0.00     0.544 OA 
ENDROOT
BRANCH   2   3
HETATM    3  C   UNL     1      -9.362   8.378  66.056  1.00  0.00    -0.177 A  
HETATM    4  C   UNL     1      -9.962   9.663  65.984  1.00  0.00    -0.274 A  
HETATM    5  N   UNL     1     -10.221  10.375  64.764  1.00  0.00    -0.318 NA 
HETATM    6  C   UNL     1     -10.959  11.552  64.796  1.00  0.00    -0.273 C  
HETATM    7  C   UNL     1      -8.936   7.810  67.295  1.00  0.00    -0.127 A  
HETATM    8  C   UNL     1     -11.418  12.165  65.887  1.00  0.00    -0.418 C  
HETATM    9  F   UNL     1      -8.986   8.000  69.672  1.00  0.00    -0.140 F  
HETATM   10  C   UNL     1     -12.197  13.414  65.737  1.00  0.00    -0.458 C  
HETATM   11  C   UNL     1      -9.311   8.492  68.464  1.00  0.00    -0.138 A  
HETATM   12  C   UNL     1     -11.108  11.533  67.190  1.00  0.00    -0.297 C  
HETATM   13  O   UNL     1     -12.607  13.966  66.905  1.00  0.00    -0.267 OA 
HETATM   14  C   UNL     1     -10.340  10.267  67.199  1.00  0.00    -0.292 A  
HETATM   15  O   UNL     1     -11.502  12.060  68.228  1.00  0.00    -0.256 OA 
HETATM   16  O   UNL     1     -12.404  13.955  64.666  1.00  0.00    -0.487 OA 
HETATM   17  C   UNL     1     -10.028   9.684  68.427  1.00  0.00    -0.178 A  
BRANCH   5  18
HETATM   18  C   UNL     1      -9.498  10.049  63.519  1.00  0.00    -0.187 C  
HETATM   19  C   UNL     1      -9.252  11.043  62.399  1.00  0.00    -0.284 C  
HETATM   20  C   UNL     1      -8.116  10.615  63.271  1.00  0.00    -0.024 C  
ENDBRANCH   5  18
BRANCH   7  21
HETATM   21  N   UNL     1      -8.230   6.601  67.309  1.00  0.00    -0.120 NA 
HETATM   22  C   UNL     1      -6.821   6.555  67.714  1.00  0.00    -0.080 C  
HETATM   23  C   UNL     1      -6.534   5.141  68.278  1.00  0.00    -0.040 C  
HETATM   24  N   UNL     1      -6.825   4.050  67.322  1.00  0.00    -0.050 NA 
HETATM   25  C   UNL     1      -8.219   4.163  66.826  1.00  0.00    -0.101 C  
HETATM   26  H   UNL     1      -6.636   3.131  67.722  1.00  0.00     0.000 HD 
HETATM   27  C   UNL     1      -8.476   3.086  65.778  1.00  0.00    -0.110 C  
HETATM   28  C   UNL     1      -8.578   5.587  66.288  1.00  0.00    -0.125 C  
ENDBRANCH   7  21
ENDBRANCH   2   3
TORSDOF 3
ENDMDL
MODEL      108
REMARK 921   NORMALIZED FREE ENERGY PREDICTED BY IDOCK:   -2.28 KCAL/MOL
REMARK 922        TOTAL FREE ENERGY PREDICTED BY IDOCK:   -2.71 KCAL/MOL
REMARK 923 INTER-LIGAND FREE ENERGY PREDICTED BY IDOCK:   -2.69 KCAL/MOL
REMARK 924 INTRA-LIGAND FREE ENERGY PREDICTED BY IDOCK:   -0.02 KCAL/MOL
REMARK 927      BINDING AFFINITY PREDICTED BY RF-SCORE:    0.00 PKD
ROOT
HETATM    1  C   UNL     1      -5.158   7.318  67.688  1.00  0.00    -0.020 C  
HETATM    2  O   UNL     1      -6.318   7.239  68.526  1.00  0.00    -0.034 OA 
ENDROOT
BRANCH   2   3
HETATM    3  C   UNL     1      -7.364   8.041  68.096  1.00  0.00    -0.096 A  
HETATM    4  C   UNL     1      -7.308   9.421  68.430  1.00  0.00    -0.077 A  
HETATM    5  N   UNL     1      -6.421   9.988  69.406  1.00  0.00    -0.045 NA 
HETATM    6  C   UNL     1      -6.334  11.369  69.539  1.00  0.00    -0.113 C  
HETATM    7  C   UNL     1      -8.403   7.502  67.279  1.00  0.00    -0.118 A  
HETATM    8  C   UNL     1      -7.063  12.271  68.882  1.00  0.00    -0.088 C  
HETATM    9  F   UNL     1     -10.237   8.000  65.838  1.00  0.00    -0.078 F  
HETATM   10  C   UNL     1      -6.833  13.709  69.143  1.00  0.00    -0.095 C  
HETATM   11  C   UNL     1      -9.260   8.424  66.658  1.00  0.00    -0.180 A  
HETATM   12  C   UNL     1      -8.066  11.751  67.924  1.00  0.00    -0.144 C  
HETATM   13  O   UNL     1      -7.634  14.544  68.436  1.00  0.00    -0.108 OA 
HETATM   14  C   UNL     1      -8.177  10.286  67.739  1.00  0.00    -0.110 A  
HETATM   15  O   UNL     1      -8.770  12.540  67.297  1.00  0.00    -0.177 OA 
HETATM   16  O   UNL     1      -6.044  14.127  69.970  1.00  0.00    -0.128 OA 
HETATM   17  C   UNL     1      -9.138   9.797  66.854  1.00  0.00    -0.162 A  
BRANCH   5  18
HETATM   18  C   UNL     1      -5.807   9.156  70.460  1.00  0.00    -0.038 C  
HETATM   19  C   UNL     1      -5.177   9.716  71.721  1.00  0.00    -0.076 C  
HETATM   20  C   UNL     1      -6.488   9.003  71.803  1.00  0.00    -0.033 C  
ENDBRANCH   5  18
BRANCH   7  21
HETATM   21  N   UNL     1      -8.497   6.120  67.083  1.00  0.00    -0.105 NA 
HETATM   22  C   UNL     1      -9.074   5.570  65.851  1.00  0.00    -0.155 C  
HETATM   23  C   UNL     1      -8.449   4.172  65.614  1.00  0.00    -0.110 C  
HETATM   24  N   UNL     1      -8.656   3.232  66.738  1.00  0.00    -0.110 NA 
HETATM   25  C   UNL     1      -8.174   3.834  68.005  1.00  0.00    -0.087 C  
HETATM   26  H   UNL     1      -8.227   2.324  66.560  1.00  0.00     0.000 HD 
HETATM   27  C   UNL     1      -8.474   2.890  69.165  1.00  0.00    -0.098 C  
HETATM   28  C   UNL     1      -8.737   5.269  68.270  1.00  0.00    -0.101 C  
ENDBRANCH   7  21
ENDBRANCH   2   3
TORSDOF 3
ENDMDL
MODEL      109
REMARK 921   NORMALIZED FREE ENERGY PREDICTED BY IDOCK:   -2.27 KCAL/MOL
REMARK 922        TOTAL FREE ENERGY PREDICTED BY IDOCK:   -2.69 KCAL/MOL
REMARK 923 INTER-LIGAND FREE ENERGY PREDICTED BY IDOCK:   -2.85 KCAL/MOL
REMARK 924 INTRA-LIGAND FREE ENERGY PREDICTED BY IDOCK:    0.15 KCAL/MOL
REMARK 927      BINDING AFFINITY PREDICTED BY RF-SCORE:    0.00 PKD
ROOT
HETATM    1  C   UNL     1     -10.673   4.469  66.017  1.00  0.00     0.050 C  
HETATM    2  O   UNL     1      -9.485   5.197  66.354  1.00  0.00    -0.137 OA 
ENDROOT
BRANCH   2   3
HETATM    3  C   UNL     1      -8.811   4.675  67.447  1.00  0.00    -0.105 A  
HETATM    4  C   UNL     1      -9.370   4.909  68.731  1.00  0.00    -0.135 A  
HETATM    5  N   UNL     1     -10.401   5.870  69.009  1.00  0.00    -0.208 NA 
HETATM    6  C   UNL     1     -10.991   5.904  70.267  1.00  0.00    -0.320 C  
HETATM    7  C   UNL     1      -7.649   3.866  67.263  1.00  0.00    -0.076 A  
HETATM    8  C   UNL     1     -10.648   5.160  71.318  1.00  0.00    -0.203 C  
HETATM    9  F   UNL     1      -6.134   2.333  68.284  1.00  0.00    -0.022 F  
HETATM   10  C   UNL     1     -11.392   5.321  72.587  1.00  0.00    -0.231 C  
HETATM   11  C   UNL     1      -7.195   3.151  68.384  1.00  0.00    -0.050 A  
HETATM   12  C   UNL     1      -9.528   4.209  71.128  1.00  0.00    -0.163 C  
HETATM   13  O   UNL     1     -10.959   4.529  73.598  1.00  0.00    -0.263 OA 
HETATM   14  C   UNL     1      -8.885   4.128  69.797  1.00  0.00    -0.138 A  
HETATM   15  O   UNL     1      -9.167   3.503  72.068  1.00  0.00    -0.104 OA 
HETATM   16  O   UNL     1     -12.277   6.141  72.751  1.00  0.00     0.024 OA 
HETATM   17  C   UNL     1      -7.815   3.250  69.626  1.00  0.00    -0.054 A  
BRANCH   5  18
HETATM   18  C   UNL     1     -10.660   7.001  68.096  1.00  0.00    -0.204 C  
HETATM   19  C   UNL     1     -10.692   8.453  68.536  1.00  0.00    -0.069 C  
HETATM   20  C   UNL     1      -9.542   7.951  67.724  1.00  0.00    -0.174 C  
ENDBRANCH   5  18
BRANCH   7  21
HETATM   21  N   UNL     1      -7.052   3.768  66.002  1.00  0.00    -0.062 NA 
HETATM   22  C   UNL     1      -6.405   4.929  65.381  1.00  0.00    -0.035 C  
HETATM   23  C   UNL     1      -5.309   4.406  64.420  1.00  0.00    -0.013 C  
HETATM   24  N   UNL     1      -5.822   3.490  63.376  1.00  0.00    -0.013 NA 
HETATM   25  C   UNL     1      -6.572   2.373  64.001  1.00  0.00    -0.030 C  
HETATM   26  H   UNL     1      -5.078   3.154  62.765  1.00  0.00     0.000 HD 
HETATM   27  C   UNL     1      -7.168   1.487  62.912  1.00  0.00    -0.031 C  
HETATM   28  C   UNL     1      -7.662   2.844  65.019  1.00  0.00    -0.081 C  
ENDBRANCH   7  21
ENDBRANCH   2   3
TORSDOF 3
ENDMDL
MODEL      110
REMARK 921   NORMALIZED FREE ENERGY PREDICTED BY IDOCK:   -2.15 KCAL/MOL
REMARK 922        TOTAL FREE ENERGY PREDICTED BY IDOCK:   -2.55 KCAL/MOL
REMARK 923 INTER-LIGAND FREE ENERGY PREDICTED BY IDOCK:   -3.69 KCAL/MOL
REMARK 924 INTRA-LIGAND FREE ENERGY PREDICTED BY IDOCK:    1.13 KCAL/MOL
REMARK 927      BINDING AFFINITY PREDICTED BY RF-SCORE:    0.00 PKD
ROOT
HETATM    1  C   UNL     1      -8.964  14.224  65.743  1.00  0.00     0.655 C  
HETATM    2  O   UNL     1      -8.486  13.070  66.446  1.00  0.00     0.127 OA 
ENDROOT
BRANCH   2   3
HETATM    3  C   UNL     1      -9.439  12.494  67.272  1.00  0.00    -0.193 A  
HETATM    4  C   UNL     1      -9.937  13.283  68.344  1.00  0.00    -0.226 A  
HETATM    5  N   UNL     1      -9.334  14.500  68.808  1.00  0.00    -0.200 NA 
HETATM    6  C   UNL     1      -9.992  15.279  69.754  1.00  0.00    -0.198 C  
HETATM    7  C   UNL     1      -9.951  11.191  66.991  1.00  0.00    -0.192 A  
HETATM    8  C   UNL     1     -11.140  14.978  70.361  1.00  0.00    -0.263 C  
HETATM    9  F   UNL     1     -11.669   9.604  67.458  1.00  0.00     0.158 F  
HETATM   10  C   UNL     1     -11.705  15.930  71.342  1.00  0.00    -0.467 C  
HETATM   11  C   UNL     1     -11.100  10.798  67.696  1.00  0.00    -0.319 A  
HETATM   12  C   UNL     1     -11.771  13.689  69.996  1.00  0.00    -0.249 C  
HETATM   13  O   UNL     1     -12.866  15.526  71.913  1.00  0.00    -0.368 OA 
HETATM   14  C   UNL     1     -11.113  12.839  68.979  1.00  0.00    -0.285 A  
HETATM   15  O   UNL     1     -12.828  13.360  70.532  1.00  0.00    -0.164 OA 
HETATM   16  O   UNL     1     -11.153  16.963  71.675  1.00  0.00     0.352 OA 
HETATM   17  C   UNL     1     -11.696  11.615  68.653  1.00  0.00    -0.386 A  
BRANCH   5  18
HETATM   18  C   UNL     1      -7.919  14.812  68.524  1.00  0.00    -0.136 C  
HETATM   19  C   UNL     1      -7.156  15.949  69.176  1.00  0.00    -0.185 C  
HETATM   20  C   UNL     1      -6.855  14.538  69.565  1.00  0.00    -0.152 C  
ENDBRANCH   5  18
BRANCH   7  21
HETATM   21  N   UNL     1      -9.345  10.394  66.013  1.00  0.00    -0.171 NA 
HETATM   22  C   UNL     1      -9.067  10.923  64.674  1.00  0.00    -0.170 C  
HETATM   23  C   UNL     1      -7.861  10.143  64.094  1.00  0.00    -0.145 C  
HETATM   24  N   UNL     1      -8.076   8.680  64.029  1.00  0.00    -0.159 NA 
HETATM   25  C   UNL     1      -8.467   8.161  65.364  1.00  0.00    -0.147 C  
HETATM   26  H   UNL     1      -7.264   8.191  63.654  1.00  0.00     0.000 HD 
HETATM   27  C   UNL     1      -8.771   6.669  65.262  1.00  0.00     0.047 C  
HETATM   28  C   UNL     1      -9.652   8.946  66.017  1.00  0.00    -0.250 C  
ENDBRANCH   7  21
ENDBRANCH   2   3
TORSDOF 3
ENDMDL
MODEL      111
REMARK 921   NORMALIZED FREE ENERGY PREDICTED BY IDOCK:   -2.04 KCAL/MOL
REMARK 922        TOTAL FREE ENERGY PREDICTED BY IDOCK:   -2.42 KCAL/MOL
REMARK 923 INTER-LIGAND FREE ENERGY PREDICTED BY IDOCK:   -2.43 KCAL/MOL
REMARK 924 INTRA-LIGAND FREE ENERGY PREDICTED BY IDOCK:    0.01 KCAL/MOL
REMARK 927      BINDING AFFINITY PREDICTED BY RF-SCORE:    0.00 PKD
ROOT
HETATM    1  C   UNL     1      -9.895   7.916  68.421  1.00  0.00    -0.173 C  
HETATM    2  O   UNL     1      -9.746   6.497  68.300  1.00  0.00    -0.130 OA 
ENDROOT
BRANCH   2   3
HETATM    3  C   UNL     1      -8.477   6.045  68.630  1.00  0.00    -0.113 A  
HETATM    4  C   UNL     1      -8.314   5.428  69.899  1.00  0.00    -0.100 A  
HETATM    5  N   UNL     1      -9.273   5.493  70.966  1.00  0.00    -0.146 NA 
HETATM    6  C   UNL     1      -9.089   4.719  72.107  1.00  0.00    -0.127 C  
HETATM    7  C   UNL     1      -7.409   6.128  67.686  1.00  0.00    -0.080 A  
HETATM    8  C   UNL     1      -8.041   3.939  72.368  1.00  0.00    -0.085 C  
HETATM    9  F   UNL     1      -5.210   5.393  67.129  1.00  0.00    -0.004 F  
HETATM   10  C   UNL     1      -8.012   3.175  73.635  1.00  0.00    -0.069 C  
HETATM   11  C   UNL     1      -6.245   5.402  67.986  1.00  0.00    -0.034 A  
HETATM   12  C   UNL     1      -6.968   3.896  71.348  1.00  0.00    -0.032 C  
HETATM   13  O   UNL     1      -6.898   2.422  73.813  1.00  0.00    -0.022 OA 
HETATM   14  C   UNL     1      -7.134   4.690  70.110  1.00  0.00    -0.049 A  
HETATM   15  O   UNL     1      -5.976   3.197  71.542  1.00  0.00    -0.013 OA 
HETATM   16  O   UNL     1      -8.873   3.256  74.492  1.00  0.00    -0.085 OA 
HETATM   17  C   UNL     1      -6.112   4.668  69.161  1.00  0.00    -0.029 A  
BRANCH   5  18
HETATM   18  C   UNL     1     -10.296   6.556  71.014  1.00  0.00    -0.206 C  
HETATM   19  C   UNL     1     -11.575   6.464  71.826  1.00  0.00    -0.367 C  
HETATM   20  C   UNL     1     -10.481   7.380  72.270  1.00  0.00    -0.260 C  
ENDBRANCH   5  18
BRANCH   7  21
HETATM   21  N   UNL     1      -7.570   6.858  66.504  1.00  0.00    -0.087 NA 
HETATM   22  C   UNL     1      -7.635   6.185  65.202  1.00  0.00    -0.090 C  
HETATM   23  C   UNL     1      -8.462   7.077  64.244  1.00  0.00     0.277 C  
HETATM   24  N   UNL     1      -7.914   8.442  64.084  1.00  0.00    -0.145 NA 
HETATM   25  C   UNL     1      -7.744   9.084  65.411  1.00  0.00    -0.095 C  
HETATM   26  H   UNL     1      -8.483   9.010  63.456  1.00  0.00     0.000 HD 
HETATM   27  C   UNL     1      -7.098  10.455  65.235  1.00  0.00    -0.098 C  
HETATM   28  C   UNL     1      -6.956   8.203  66.435  1.00  0.00    -0.067 C  
ENDBRANCH   7  21
ENDBRANCH   2   3
TORSDOF 3
ENDMDL
MODEL      112
REMARK 921   NORMALIZED FREE ENERGY PREDICTED BY IDOCK:   -2.04 KCAL/MOL
REMARK 922        TOTAL FREE ENERGY PREDICTED BY IDOCK:   -2.42 KCAL/MOL
REMARK 923 INTER-LIGAND FREE ENERGY PREDICTED BY IDOCK:   -3.45 KCAL/MOL
REMARK 924 INTRA-LIGAND FREE ENERGY PREDICTED BY IDOCK:    1.03 KCAL/MOL
REMARK 927      BINDING AFFINITY PREDICTED BY RF-SCORE:    0.00 PKD
ROOT
HETATM    1  C   UNL     1     -11.179  14.636  67.244  1.00  0.00    -0.337 C  
HETATM    2  O   UNL     1     -10.211  14.708  68.298  1.00  0.00    -0.218 OA 
ENDROOT
BRANCH   2   3
HETATM    3  C   UNL     1      -9.827  16.004  68.606  1.00  0.00    -0.218 A  
HETATM    4  C   UNL     1      -8.784  16.577  67.829  1.00  0.00    -0.196 A  
HETATM    5  N   UNL     1      -7.915  15.837  66.959  1.00  0.00    -0.215 NA 
HETATM    6  C   UNL     1      -7.037  16.515  66.121  1.00  0.00     0.407 C  
HETATM    7  C   UNL     1     -10.519  16.747  69.609  1.00  0.00    -0.209 A  
HETATM    8  C   UNL     1      -6.849  17.834  66.079  1.00  0.00    -0.327 C  
HETATM    9  F   UNL     1     -10.903  18.904  70.551  1.00  0.00     0.892 F  
HETATM   10  C   UNL     1      -5.874  18.391  65.115  1.00  0.00    -0.195 C  
HETATM   11  C   UNL     1     -10.260  18.127  69.664  1.00  0.00     0.457 A  
HETATM   12  C   UNL     1      -7.649  18.654  67.018  1.00  0.00    -0.226 C  
HETATM   13  O   UNL     1      -5.747  19.740  65.160  1.00  0.00    -0.165 OA 
HETATM   14  C   UNL     1      -8.610  17.972  67.913  1.00  0.00    -0.258 A  
HETATM   15  O   UNL     1      -7.510  19.875  67.025  1.00  0.00    -0.233 OA 
HETATM   16  O   UNL     1      -5.183  17.707  64.383  1.00  0.00     0.375 OA 
HETATM   17  C   UNL     1      -9.346  18.742  68.813  1.00  0.00    -0.357 A  
BRANCH   5  18
HETATM   18  C   UNL     1      -7.725  14.382  67.121  1.00  0.00    -0.034 C  
HETATM   19  C   UNL     1      -6.399  13.736  67.476  1.00  0.00    -0.062 C  
HETATM   20  C   UNL     1      -7.489  13.794  68.496  1.00  0.00    -0.119 C  
ENDBRANCH   5  18
BRANCH   7  21
HETATM   21  N   UNL     1     -11.445  16.111  70.442  1.00  0.00    -0.362 NA 
HETATM   22  C   UNL     1     -12.673  15.523  69.896  1.00  0.00    -0.034 C  
HETATM   23  C   UNL     1     -13.108  14.370  70.834  1.00  0.00    -0.328 C  
HETATM   24  N   UNL     1     -13.326  14.794  72.235  1.00  0.00    -0.358 NA 
HETATM   25  C   UNL     1     -12.121  15.489  72.752  1.00  0.00    -0.444 C  
HETATM   26  H   UNL     1     -13.602  14.015  72.832  1.00  0.00     0.000 HD 
HETATM   27  C   UNL     1     -12.393  15.997  74.165  1.00  0.00    -0.716 C  
HETATM   28  C   UNL     1     -11.610  16.634  71.817  1.00  0.00     0.028 C  
ENDBRANCH   7  21
ENDBRANCH   2   3
TORSDOF 3
ENDMDL
MODEL      113
REMARK 921   NORMALIZED FREE ENERGY PREDICTED BY IDOCK:   -2.02 KCAL/MOL
REMARK 922        TOTAL FREE ENERGY PREDICTED BY IDOCK:   -2.40 KCAL/MOL
REMARK 923 INTER-LIGAND FREE ENERGY PREDICTED BY IDOCK:   -2.47 KCAL/MOL
REMARK 924 INTRA-LIGAND FREE ENERGY PREDICTED BY IDOCK:    0.07 KCAL/MOL
REMARK 927      BINDING AFFINITY PREDICTED BY RF-SCORE:    0.00 PKD
ROOT
HETATM    1  C   UNL     1     -10.080   7.875  68.378  1.00  0.00    -0.194 C  
HETATM    2  O   UNL     1     -10.579   6.532  68.369  1.00  0.00    -0.197 OA 
ENDROOT
BRANCH   2   3
HETATM    3  C   UNL     1      -9.849   5.666  69.169  1.00  0.00    -0.162 A  
HETATM    4  C   UNL     1      -9.035   4.703  68.516  1.00  0.00    -0.110 A  
HETATM    5  N   UNL     1      -9.128   4.368  67.123  1.00  0.00    -0.124 NA 
HETATM    6  C   UNL     1      -8.176   3.532  66.550  1.00  0.00    -0.100 C  
HETATM    7  C   UNL     1      -9.862   5.809  70.590  1.00  0.00    -0.187 A  
HETATM    8  C   UNL     1      -7.179   2.920  67.189  1.00  0.00    -0.054 C  
HETATM    9  F   UNL     1      -8.807   5.201  72.641  1.00  0.00    -0.120 F  
HETATM   10  C   UNL     1      -6.248   2.066  66.418  1.00  0.00    -0.023 C  
HETATM   11  C   UNL     1      -8.890   5.088  71.304  1.00  0.00    -0.134 A  
HETATM   12  C   UNL     1      -7.079   3.149  68.649  1.00  0.00    -0.049 C  
HETATM   13  O   UNL     1      -5.278   1.479  67.160  1.00  0.00    -0.004 OA 
HETATM   14  C   UNL     1      -8.062   4.048  69.294  1.00  0.00    -0.064 A  
HETATM   15  O   UNL     1      -6.182   2.602  69.287  1.00  0.00    -0.027 OA 
HETATM   16  O   UNL     1      -6.367   1.842  65.227  1.00  0.00    -0.021 OA 
HETATM   17  C   UNL     1      -7.981   4.244  70.673  1.00  0.00    -0.063 A  
BRANCH   5  18
HETATM   18  C   UNL     1     -10.349   4.655  66.345  1.00  0.00    -0.226 C  
HETATM   19  C   UNL     1     -10.586   5.949  65.590  1.00  0.00     0.895 C  
HETATM   20  C   UNL     1     -10.296   4.694  64.832  1.00  0.00     0.062 C  
ENDBRANCH   5  18
BRANCH   7  21
HETATM   21  N   UNL     1     -10.773   6.675  71.202  1.00  0.00    -0.228 NA 
HETATM   22  C   UNL     1     -10.314   7.868  71.923  1.00  0.00    -0.215 C  
HETATM   23  C   UNL     1     -11.450   8.920  71.876  1.00  0.00    -0.372 C  
HETATM   24  N   UNL     1     -12.728   8.439  72.448  1.00  0.00    -0.533 NA 
HETATM   25  C   UNL     1     -13.136   7.171  71.794  1.00  0.00    -0.314 C  
HETATM   26  H   UNL     1     -13.460   9.148  72.395  1.00  0.00     0.000 HD 
HETATM   27  C   UNL     1     -14.407   6.644  72.453  1.00  0.00     0.148 C  
HETATM   28  C   UNL     1     -12.008   6.088  71.771  1.00  0.00    -0.055 C  
ENDBRANCH   7  21
ENDBRANCH   2   3
TORSDOF 3
ENDMDL
MODEL      114
REMARK 921   NORMALIZED FREE ENERGY PREDICTED BY IDOCK:   -1.48 KCAL/MOL
REMARK 922        TOTAL FREE ENERGY PREDICTED BY IDOCK:   -1.76 KCAL/MOL
REMARK 923 INTER-LIGAND FREE ENERGY PREDICTED BY IDOCK:   -5.59 KCAL/MOL
REMARK 924 INTRA-LIGAND FREE ENERGY PREDICTED BY IDOCK:    3.83 KCAL/MOL
REMARK 927      BINDING AFFINITY PREDICTED BY RF-SCORE:    0.00 PKD
ROOT
HETATM    1  C   UNL     1      -7.298  13.938  67.180  1.00  0.00     0.180 C  
HETATM    2  O   UNL     1      -8.652  14.244  67.536  1.00  0.00    -0.172 OA 
ENDROOT
BRANCH   2   3
HETATM    3  C   UNL     1      -9.127  15.407  66.950  1.00  0.00    -0.242 A  
HETATM    4  C   UNL     1      -8.501  16.627  67.321  1.00  0.00    -0.194 A  
HETATM    5  N   UNL     1      -7.627  16.785  68.449  1.00  0.00    -0.195 NA 
HETATM    6  C   UNL     1      -6.939  17.980  68.627  1.00  0.00    -0.260 C  
HETATM    7  C   UNL     1     -10.147  15.353  65.953  1.00  0.00    -0.345 A  
HETATM    8  C   UNL     1      -7.055  19.075  67.875  1.00  0.00    -0.254 C  
HETATM    9  F   UNL     1     -11.283  16.545  64.228  1.00  0.00    -0.493 F  
HETATM   10  C   UNL     1      -6.237  20.263  68.205  1.00  0.00    -0.278 C  
HETATM   11  C   UNL     1     -10.370  16.526  65.214  1.00  0.00    -0.135 A  
HETATM   12  C   UNL     1      -8.011  19.013  66.746  1.00  0.00    -0.259 C  
HETATM   13  O   UNL     1      -6.437  21.327  67.389  1.00  0.00    -0.399 OA 
HETATM   14  C   UNL     1      -8.749  17.751  66.510  1.00  0.00    -0.281 A  
HETATM   15  O   UNL     1      -8.161  19.997  66.025  1.00  0.00    -0.332 OA 
HETATM   16  O   UNL     1      -5.492  20.324  69.166  1.00  0.00    -0.219 OA 
HETATM   17  C   UNL     1      -9.666  17.701  65.460  1.00  0.00     0.498 A  
BRANCH   5  18
HETATM   18  C   UNL     1      -7.646  15.828  69.573  1.00  0.00    -0.177 C  
HETATM   19  C   UNL     1      -7.012  14.451  69.523  1.00  0.00    -0.119 C  
HETATM   20  C   UNL     1      -6.375  15.528  70.339  1.00  0.00     0.070 C  
ENDBRANCH   5  18
BRANCH   7  21
HETATM   21  N   UNL     1     -10.831  14.156  65.711  1.00  0.00    -0.290 NA 
HETATM   22  C   UNL     1     -11.951  14.105  64.765  1.00  0.00    -0.431 C  
HETATM   23  C   UNL     1     -12.036  12.664  64.205  1.00  0.00    -0.439 C  
HETATM   24  N   UNL     1     -12.205  11.630  65.250  1.00  0.00     0.001 NA 
HETATM   25  C   UNL     1     -11.133  11.753  66.269  1.00  0.00    -0.311 C  
HETATM   26  H   UNL     1     -12.249  10.691  64.855  1.00  0.00     0.000 HD 
HETATM   27  C   UNL     1     -11.370  10.739  67.384  1.00  0.00    -0.239 C  
HETATM   28  C   UNL     1     -10.971  13.202  66.834  1.00  0.00    -0.276 C  
ENDBRANCH   7  21
ENDBRANCH   2   3
TORSDOF 3
ENDMDL
MODEL      115
REMARK 921   NORMALIZED FREE ENERGY PREDICTED BY IDOCK:   -1.41 KCAL/MOL
REMARK 922        TOTAL FREE ENERGY PREDICTED BY IDOCK:   -1.68 KCAL/MOL
REMARK 923 INTER-LIGAND FREE ENERGY PREDICTED BY IDOCK:   -2.66 KCAL/MOL
REMARK 924 INTRA-LIGAND FREE ENERGY PREDICTED BY IDOCK:    0.98 KCAL/MOL
REMARK 927      BINDING AFFINITY PREDICTED BY RF-SCORE:    0.00 PKD
ROOT
HETATM    1  C   UNL     1      -7.308   7.232  63.317  1.00  0.00    -0.086 C  
HETATM    2  O   UNL     1      -8.700   7.313  63.644  1.00  0.00     0.408 OA 
ENDROOT
BRANCH   2   3
HETATM    3  C   UNL     1      -8.944   7.365  65.008  1.00  0.00     0.482 A  
HETATM    4  C   UNL     1      -9.377   8.607  65.546  1.00  0.00    -0.035 A  
HETATM    5  N   UNL     1      -9.305   9.864  64.856  1.00  0.00    -0.251 NA 
HETATM    6  C   UNL     1      -9.906  10.989  65.408  1.00  0.00    -0.251 C  
HETATM    7  C   UNL     1      -8.842   6.188  65.809  1.00  0.00    -0.124 A  
HETATM    8  C   UNL     1     -10.510  11.057  66.594  1.00  0.00    -0.307 C  
HETATM    9  F   UNL     1      -9.355   5.183  67.910  1.00  0.00    -0.111 F  
HETATM   10  C   UNL     1     -11.105  12.342  67.025  1.00  0.00    -0.287 C  
HETATM   11  C   UNL     1      -9.373   6.260  67.107  1.00  0.00    -0.123 A  
HETATM   12  C   UNL     1     -10.540   9.817  67.402  1.00  0.00    -0.267 C  
HETATM   13  O   UNL     1     -11.684  12.311  68.251  1.00  0.00    -0.305 OA 
HETATM   14  C   UNL     1      -9.929   8.591  66.841  1.00  0.00    -0.335 A  
HETATM   15  O   UNL     1     -11.080   9.826  68.506  1.00  0.00    -0.184 OA 
HETATM   16  O   UNL     1     -11.031  13.371  66.378  1.00  0.00    -0.287 OA 
HETATM   17  C   UNL     1      -9.937   7.428  67.612  1.00  0.00    -0.213 A  
BRANCH   5  18
HETATM   18  C   UNL     1      -8.383  10.063  63.721  1.00  0.00    -0.170 C  
HETATM   19  C   UNL     1      -8.827  10.486  62.333  1.00  0.00    -0.299 C  
HETATM   20  C   UNL     1      -8.101  11.459  63.205  1.00  0.00     0.691 C  
ENDBRANCH   5  18
BRANCH   7  21
HETATM   21  N   UNL     1      -8.286   5.020  65.275  1.00  0.00    -0.128 NA 
HETATM   22  C   UNL     1      -6.860   4.719  65.441  1.00  0.00    -0.061 C  
HETATM   23  C   UNL     1      -6.689   3.180  65.391  1.00  0.00    -0.041 C  
HETATM   24  N   UNL     1      -7.198   2.567  64.144  1.00  0.00    -0.055 NA 
HETATM   25  C   UNL     1      -8.610   2.963  63.919  1.00  0.00    -0.086 C  
HETATM   26  H   UNL     1      -7.082   1.553  64.143  1.00  0.00     0.000 HD 
HETATM   27  C   UNL     1      -9.092   2.395  62.588  1.00  0.00    -0.087 C  
HETATM   28  C   UNL     1      -8.849   4.506  64.006  1.00  0.00    -0.144 C  
ENDBRANCH   7  21
ENDBRANCH   2   3
TORSDOF 3
ENDMDL
MODEL      116
REMARK 921   NORMALIZED FREE ENERGY PREDICTED BY IDOCK:   -1.08 KCAL/MOL
REMARK 922        TOTAL FREE ENERGY PREDICTED BY IDOCK:   -1.29 KCAL/MOL
REMARK 923 INTER-LIGAND FREE ENERGY PREDICTED BY IDOCK:   -2.52 KCAL/MOL
REMARK 924 INTRA-LIGAND FREE ENERGY PREDICTED BY IDOCK:    1.22 KCAL/MOL
REMARK 927      BINDING AFFINITY PREDICTED BY RF-SCORE:    0.00 PKD
ROOT
HETATM    1  C   UNL     1      -8.366  13.475  69.057  1.00  0.00     0.314 C  
HETATM    2  O   UNL     1      -8.871  12.136  69.128  1.00  0.00     0.303 OA 
ENDROOT
BRANCH   2   3
HETATM    3  C   UNL     1      -9.331  11.655  67.911  1.00  0.00    -0.174 A  
HETATM    4  C   UNL     1      -8.695  10.499  67.384  1.00  0.00    -0.125 A  
HETATM    5  N   UNL     1      -7.448   9.968  67.856  1.00  0.00    -0.088 NA 
HETATM    6  C   UNL     1      -6.997   8.741  67.381  1.00  0.00    -0.075 C  
HETATM    7  C   UNL     1     -10.455  12.259  67.271  1.00  0.00    -0.218 A  
HETATM    8  C   UNL     1      -7.581   7.997  66.442  1.00  0.00    -0.091 C  
HETATM    9  F   UNL     1     -12.116  12.030  65.575  1.00  0.00    -0.431 F  
HETATM   10  C   UNL     1      -6.965   6.708  66.060  1.00  0.00    -0.061 C  
HETATM   11  C   UNL     1     -11.029  11.551  66.203  1.00  0.00    -0.266 A  
HETATM   12  C   UNL     1      -8.827   8.531  65.844  1.00  0.00    -0.182 C  
HETATM   13  O   UNL     1      -7.627   6.033  65.088  1.00  0.00    -0.080 OA 
HETATM   14  C   UNL     1      -9.351   9.825  66.336  1.00  0.00    -0.218 A  
HETATM   15  O   UNL     1      -9.402   7.888  64.969  1.00  0.00     0.522 OA 
HETATM   16  O   UNL     1      -5.913   6.300  66.518  1.00  0.00    -0.026 OA 
HETATM   17  C   UNL     1     -10.511  10.338  65.756  1.00  0.00    -0.159 A  
BRANCH   5  18
HETATM   18  C   UNL     1      -6.497  10.804  68.615  1.00  0.00    -0.055 C  
HETATM   19  C   UNL     1      -5.133  10.326  69.076  1.00  0.00    -0.035 C  
HETATM   20  C   UNL     1      -5.231  11.308  67.954  1.00  0.00    -0.043 C  
ENDBRANCH   5  18
BRANCH   7  21
HETATM   21  N   UNL     1     -10.968  13.471  67.747  1.00  0.00    -0.261 NA 
HETATM   22  C   UNL     1     -10.329  14.747  67.409  1.00  0.00    -0.242 C  
HETATM   23  C   UNL     1     -11.413  15.851  67.458  1.00  0.00    -0.005 C  
HETATM   24  N   UNL     1     -12.096  15.955  68.767  1.00  0.00    -0.486 NA 
HETATM   25  C   UNL     1     -12.647  14.635  69.162  1.00  0.00     0.181 C  
HETATM   26  H   UNL     1     -12.810  16.683  68.769  1.00  0.00     0.000 HD 
HETATM   27  C   UNL     1     -13.270  14.738  70.551  1.00  0.00    -0.204 C  
HETATM   28  C   UNL     1     -11.605  13.472  69.084  1.00  0.00    -0.310 C  
ENDBRANCH   7  21
ENDBRANCH   2   3
TORSDOF 3
ENDMDL
MODEL      117
REMARK 921   NORMALIZED FREE ENERGY PREDICTED BY IDOCK:   -0.20 KCAL/MOL
REMARK 922        TOTAL FREE ENERGY PREDICTED BY IDOCK:   -0.26 KCAL/MOL
REMARK 923 INTER-LIGAND FREE ENERGY PREDICTED BY IDOCK:   -2.76 KCAL/MOL
REMARK 924 INTRA-LIGAND FREE ENERGY PREDICTED BY IDOCK:    2.50 KCAL/MOL
REMARK 927      BINDING AFFINITY PREDICTED BY RF-SCORE:    0.00 PKD
ROOT
HETATM    1  C   UNL     1      -8.135  10.416  66.627  1.00  0.00    -0.122 C  
HETATM    2  O   UNL     1      -8.221   9.074  67.121  1.00  0.00    -0.109 OA 
ENDROOT
BRANCH   2   3
HETATM    3  C   UNL     1      -7.989   8.973  68.484  1.00  0.00    -0.103 A  
HETATM    4  C   UNL     1      -8.392   7.771  69.127  1.00  0.00    -0.134 A  
HETATM    5  N   UNL     1      -9.264   6.789  68.547  1.00  0.00    -0.129 NA 
HETATM    6  C   UNL     1      -9.462   5.575  69.194  1.00  0.00    -0.129 C  
HETATM    7  C   UNL     1      -7.297  10.008  69.181  1.00  0.00    -0.087 A  
HETATM    8  C   UNL     1      -8.968   5.225  70.381  1.00  0.00    -0.154 C  
HETATM    9  F   UNL     1      -6.160  10.614  71.188  1.00  0.00    -0.063 F  
HETATM   10  C   UNL     1      -9.276   3.882  70.920  1.00  0.00    -0.129 C  
HETATM   11  C   UNL     1      -6.857   9.709  70.481  1.00  0.00    -0.126 A  
HETATM   12  C   UNL     1      -8.132   6.228  71.080  1.00  0.00    -0.121 C  
HETATM   13  O   UNL     1      -8.738   3.628  72.139  1.00  0.00    -0.089 OA 
HETATM   14  C   UNL     1      -7.881   7.527  70.416  1.00  0.00    -0.097 A  
HETATM   15  O   UNL     1      -7.657   5.960  72.181  1.00  0.00    -0.097 OA 
HETATM   16  O   UNL     1     -10.007   3.083  70.364  1.00  0.00     0.034 OA 
HETATM   17  C   UNL     1      -7.112   8.481  71.085  1.00  0.00    -0.073 A  
BRANCH   5  18
HETATM   18  C   UNL     1     -10.171   7.132  67.433  1.00  0.00    -0.226 C  
HETATM   19  C   UNL     1      -9.988   6.637  66.011  1.00  0.00     0.281 C  
HETATM   20  C   UNL     1     -11.092   6.081  66.851  1.00  0.00    -0.253 C  
ENDBRANCH   5  18
BRANCH   7  21
HETATM   21  N   UNL     1      -7.036  11.229  68.550  1.00  0.00    -0.076 NA 
HETATM   22  C   UNL     1      -5.661  11.702  68.358  1.00  0.00    -0.045 C  
HETATM   23  C   UNL     1      -5.643  12.627  67.116  1.00  0.00     0.071 C  
HETATM   24  N   UNL     1      -6.568  13.778  67.220  1.00  0.00    -0.439 NA 
HETATM   25  C   UNL     1      -7.941  13.305  67.525  1.00  0.00    -0.184 C  
HETATM   26  H   UNL     1      -6.543  14.364  66.385  1.00  0.00     0.000 HD 
HETATM   27  C   UNL     1      -8.862  14.506  67.715  1.00  0.00    -0.183 C  
HETATM   28  C   UNL     1      -8.010  12.327  68.744  1.00  0.00     0.025 C  
ENDBRANCH   7  21
ENDBRANCH   2   3
TORSDOF 3
ENDMDL
MODEL      118
REMARK 921   NORMALIZED FREE ENERGY PREDICTED BY IDOCK:    0.01 KCAL/MOL
REMARK 922        TOTAL FREE ENERGY PREDICTED BY IDOCK:   -0.02 KCAL/MOL
REMARK 923 INTER-LIGAND FREE ENERGY PREDICTED BY IDOCK:   -3.71 KCAL/MOL
REMARK 924 INTRA-LIGAND FREE ENERGY PREDICTED BY IDOCK:    3.69 KCAL/MOL
REMARK 927      BINDING AFFINITY PREDICTED BY RF-SCORE:    0.00 PKD
ROOT
HETATM    1  C   UNL     1      -6.851  16.482  69.621  1.00  0.00    -0.081 C  
HETATM    2  O   UNL     1      -8.260  16.355  69.848  1.00  0.00     0.445 OA 
ENDROOT
BRANCH   2   3
HETATM    3  C   UNL     1      -9.032  17.021  68.908  1.00  0.00    -0.210 A  
HETATM    4  C   UNL     1      -8.396  18.031  68.139  1.00  0.00    -0.268 A  
HETATM    5  N   UNL     1      -7.120  18.610  68.448  1.00  0.00    -0.263 NA 
HETATM    6  C   UNL     1      -6.515  19.473  67.541  1.00  0.00    -0.203 C  
HETATM    7  C   UNL     1     -10.387  16.633  68.677  1.00  0.00    -0.304 A  
HETATM    8  C   UNL     1      -7.038  19.901  66.393  1.00  0.00    -0.260 C  
HETATM    9  F   UNL     1     -12.265  16.807  67.218  1.00  0.00     1.031 F  
HETATM   10  C   UNL     1      -6.249  20.817  65.540  1.00  0.00    -0.244 C  
HETATM   11  C   UNL     1     -11.006  17.156  67.530  1.00  0.00    -0.108 A  
HETATM   12  C   UNL     1      -8.395  19.415  66.054  1.00  0.00    -0.220 C  
HETATM   13  O   UNL     1      -6.873  21.205  64.402  1.00  0.00    -0.076 OA 
HETATM   14  C   UNL     1      -9.066  18.479  66.984  1.00  0.00    -0.281 A  
HETATM   15  O   UNL     1      -8.927  19.784  65.009  1.00  0.00     0.538 OA 
HETATM   16  O   UNL     1      -5.155  21.254  65.851  1.00  0.00    -0.193 OA 
HETATM   17  C   UNL     1     -10.354  18.040  66.675  1.00  0.00    -0.375 A  
BRANCH   5  18
HETATM   18  C   UNL     1      -6.556  18.539  69.811  1.00  0.00    -0.024 C  
HETATM   19  C   UNL     1      -5.254  19.200  70.224  1.00  0.00    -0.217 C  
HETATM   20  C   UNL     1      -6.553  19.766  70.698  1.00  0.00     0.015 C  
ENDBRANCH   5  18
BRANCH   7  21
HETATM   21  N   UNL     1     -11.017  15.731  69.541  1.00  0.00    -0.269 NA 
HETATM   22  C   UNL     1     -11.858  14.648  69.019  1.00  0.00    -0.310 C  
HETATM   23  C   UNL     1     -11.835  13.489  70.046  1.00  0.00    -0.301 C  
HETATM   24  N   UNL     1     -12.294  13.884  71.397  1.00  0.00    -0.335 NA 
HETATM   25  C   UNL     1     -11.516  15.052  71.880  1.00  0.00    -0.289 C  
HETATM   26  H   UNL     1     -12.259  13.105  72.054  1.00  0.00     0.000 HD 
HETATM   27  C   UNL     1     -12.058  15.501  73.233  1.00  0.00    -0.600 C  
HETATM   28  C   UNL     1     -11.466  16.236  70.858  1.00  0.00    -0.301 C  
ENDBRANCH   7  21
ENDBRANCH   2   3
TORSDOF 3
ENDMDL
MODEL      119
REMARK 921   NORMALIZED FREE ENERGY PREDICTED BY IDOCK:    0.01 KCAL/MOL
REMARK 922        TOTAL FREE ENERGY PREDICTED BY IDOCK:   -0.02 KCAL/MOL
REMARK 923 INTER-LIGAND FREE ENERGY PREDICTED BY IDOCK:   -1.36 KCAL/MOL
REMARK 924 INTRA-LIGAND FREE ENERGY PREDICTED BY IDOCK:    1.34 KCAL/MOL
REMARK 927      BINDING AFFINITY PREDICTED BY RF-SCORE:    0.00 PKD
ROOT
HETATM    1  C   UNL     1     -10.824  14.462  68.938  1.00  0.00    -0.256 C  
HETATM    2  O   UNL     1     -10.226  13.524  69.841  1.00  0.00     0.811 OA 
ENDROOT
BRANCH   2   3
HETATM    3  C   UNL     1     -10.984  12.379  70.028  1.00  0.00     0.667 A  
HETATM    4  C   UNL     1     -10.573  11.205  69.341  1.00  0.00    -0.134 A  
HETATM    5  N   UNL     1      -9.626  11.181  68.262  1.00  0.00    -0.178 NA 
HETATM    6  C   UNL     1      -9.172   9.963  67.769  1.00  0.00    -0.130 C  
HETATM    7  C   UNL     1     -12.079  12.375  70.944  1.00  0.00    -0.051 A  
HETATM    8  C   UNL     1      -9.585   8.755  68.153  1.00  0.00    -0.162 C  
HETATM    9  F   UNL     1     -13.615  11.028  72.175  1.00  0.00    -0.496 F  
HETATM   10  C   UNL     1      -8.986   7.557  67.524  1.00  0.00    -0.126 C  
HETATM   11  C   UNL     1     -12.611  11.121  71.286  1.00  0.00    -0.398 A  
HETATM   12  C   UNL     1     -10.631   8.707  69.201  1.00  0.00    -0.178 C  
HETATM   13  O   UNL     1      -9.482   6.378  67.973  1.00  0.00    -0.119 OA 
HETATM   14  C   UNL     1     -11.127   9.982  69.765  1.00  0.00    -0.319 A  
HETATM   15  O   UNL     1     -11.052   7.619  69.586  1.00  0.00    -0.186 OA 
HETATM   16  O   UNL     1      -8.164   7.605  66.627  1.00  0.00    -0.118 OA 
HETATM   17  C   UNL     1     -12.129   9.937  70.735  1.00  0.00    -0.396 A  
BRANCH   5  18
HETATM   18  C   UNL     1      -9.329  12.395  67.476  1.00  0.00    -0.181 C  
HETATM   19  C   UNL     1      -8.039  13.185  67.593  1.00  0.00    -0.176 C  
HETATM   20  C   UNL     1      -8.289  12.354  66.376  1.00  0.00     0.208 C  
ENDBRANCH   5  18
BRANCH   7  21
HETATM   21  N   UNL     1     -12.536  13.576  71.498  1.00  0.00    -0.308 NA 
HETATM   22  C   UNL     1     -13.707  14.264  70.945  1.00  0.00     0.029 C  
HETATM   23  C   UNL     1     -14.357  15.089  72.083  1.00  0.00    -0.530 C  
HETATM   24  N   UNL     1     -13.438  16.068  72.706  1.00  0.00    -0.481 NA 
HETATM   25  C   UNL     1     -12.202  15.387  73.167  1.00  0.00    -0.456 C  
HETATM   26  H   UNL     1     -13.888  16.589  73.458  1.00  0.00     0.000 HD 
HETATM   27  C   UNL     1     -11.229  16.420  73.726  1.00  0.00     1.821 C  
HETATM   28  C   UNL     1     -11.530  14.500  72.068  1.00  0.00     0.481 C  
ENDBRANCH   7  21
ENDBRANCH   2   3
TORSDOF 3
ENDMDL
MODEL      120
REMARK 921   NORMALIZED FREE ENERGY PREDICTED BY IDOCK:    2.05 KCAL/MOL
REMARK 922        TOTAL FREE ENERGY PREDICTED BY IDOCK:    2.38 KCAL/MOL
REMARK 923 INTER-LIGAND FREE ENERGY PREDICTED BY IDOCK:    3.03 KCAL/MOL
REMARK 924 INTRA-LIGAND FREE ENERGY PREDICTED BY IDOCK:   -0.65 KCAL/MOL
REMARK 927      BINDING AFFINITY PREDICTED BY RF-SCORE:    0.00 PKD
ROOT
HETATM    1  C   UNL     1      -8.131  14.478  70.785  1.00  0.00     2.418 C  
HETATM    2  O   UNL     1      -8.838  14.417  69.540  1.00  0.00     0.208 OA 
ENDROOT
BRANCH   2   3
HETATM    3  C   UNL     1      -8.007  14.460  68.432  1.00  0.00    -0.141 A  
HETATM    4  C   UNL     1      -7.681  15.741  67.909  1.00  0.00    -0.133 A  
HETATM    5  N   UNL     1      -8.363  16.957  68.251  1.00  0.00    -0.216 NA 
HETATM    6  C   UNL     1      -7.860  18.177  67.810  1.00  0.00    -0.235 C  
HETATM    7  C   UNL     1      -7.441  13.261  67.902  1.00  0.00    -0.143 A  
HETATM    8  C   UNL     1      -6.809  18.352  67.010  1.00  0.00    -0.207 C  
HETATM    9  F   UNL     1      -5.786  12.333  66.457  1.00  0.00    -0.055 F  
HETATM   10  C   UNL     1      -6.405  19.728  66.644  1.00  0.00    -0.182 C  
HETATM   11  C   UNL     1      -6.400  13.412  66.971  1.00  0.00     0.805 A  
HETATM   12  C   UNL     1      -6.112  17.131  66.544  1.00  0.00    -0.202 C  
HETATM   13  O   UNL     1      -5.333  19.799  65.817  1.00  0.00    -0.156 OA 
HETATM   14  C   UNL     1      -6.604  15.814  67.006  1.00  0.00     0.042 A  
HETATM   15  O   UNL     1      -5.140  17.236  65.799  1.00  0.00    -0.323 OA 
HETATM   16  O   UNL     1      -7.014  20.724  66.989  1.00  0.00    -0.290 OA 
HETATM   17  C   UNL     1      -5.961  14.663  66.548  1.00  0.00     3.248 A  
BRANCH   5  18
HETATM   18  C   UNL     1      -9.725  16.940  68.818  1.00  0.00    -0.265 C  
HETATM   19  C   UNL     1     -10.447  18.174  69.325  1.00  0.00     0.241 C  
HETATM   20  C   UNL     1     -10.880  17.539  68.044  1.00  0.00    -0.260 C  
ENDBRANCH   5  18
BRANCH   7  21
HETATM   21  N   UNL     1      -7.886  12.014  68.354  1.00  0.00    -0.143 NA 
HETATM   22  C   UNL     1      -6.958  11.056  68.964  1.00  0.00    -0.097 C  
HETATM   23  C   UNL     1      -7.768  10.158  69.931  1.00  0.00    -0.160 C  
HETATM   24  N   UNL     1      -8.884   9.439  69.278  1.00  0.00    -0.143 NA 
HETATM   25  C   UNL     1      -9.763  10.399  68.566  1.00  0.00    -0.168 C  
HETATM   26  H   UNL     1      -9.406   8.863  69.939  1.00  0.00     0.000 HD 
HETATM   27  C   UNL     1     -10.858   9.636  67.826  1.00  0.00    -0.278 C  
HETATM   28  C   UNL     1      -8.990  11.365  67.610  1.00  0.00    -0.140 C  
ENDBRANCH   7  21
ENDBRANCH   2   3
TORSDOF 3
ENDMDL
MODEL      121
REMARK 921   NORMALIZED FREE ENERGY PREDICTED BY IDOCK:    2.07 KCAL/MOL
REMARK 922        TOTAL FREE ENERGY PREDICTED BY IDOCK:    2.40 KCAL/MOL
REMARK 923 INTER-LIGAND FREE ENERGY PREDICTED BY IDOCK:   -1.17 KCAL/MOL
REMARK 924 INTRA-LIGAND FREE ENERGY PREDICTED BY IDOCK:    3.57 KCAL/MOL
REMARK 927      BINDING AFFINITY PREDICTED BY RF-SCORE:    0.00 PKD
ROOT
HETATM    1  C   UNL     1     -10.053  11.727  64.728  1.00  0.00    -0.263 C  
HETATM    2  O   UNL     1      -9.085  12.188  65.679  1.00  0.00    -0.043 OA 
ENDROOT
BRANCH   2   3
HETATM    3  C   UNL     1      -8.920  11.332  66.757  1.00  0.00    -0.171 A  
HETATM    4  C   UNL     1      -8.396  10.039  66.488  1.00  0.00    -0.126 A  
HETATM    5  N   UNL     1      -8.298   9.455  65.181  1.00  0.00    -0.137 NA 
HETATM    6  C   UNL     1      -7.621   8.252  65.012  1.00  0.00    -0.095 C  
HETATM    7  C   UNL     1      -9.189  11.779  68.086  1.00  0.00    -0.186 A  
HETATM    8  C   UNL     1      -7.085   7.508  65.978  1.00  0.00    -0.069 C  
HETATM    9  F   UNL     1      -8.908  11.329  70.411  1.00  0.00     1.465 F  
HETATM   10  C   UNL     1      -6.390   6.252  65.617  1.00  0.00    -0.038 C  
HETATM   11  C   UNL     1      -8.733  10.959  69.132  1.00  0.00    -0.043 A  
HETATM   12  C   UNL     1      -7.230   8.006  67.365  1.00  0.00    -0.088 C  
HETATM   13  O   UNL     1      -5.892   5.561  66.672  1.00  0.00    -0.017 OA 
HETATM   14  C   UNL     1      -7.928   9.293  67.587  1.00  0.00    -0.103 A  
HETATM   15  O   UNL     1      -6.760   7.354  68.295  1.00  0.00    -0.051 OA 
HETATM   16  O   UNL     1      -6.320   5.823  64.480  1.00  0.00    -0.031 OA 
HETATM   17  C   UNL     1      -8.084   9.750  68.895  1.00  0.00    -0.101 A  
BRANCH   5  18
HETATM   18  C   UNL     1      -9.126   9.942  64.060  1.00  0.00    -0.259 C  
HETATM   19  C   UNL     1      -8.608  10.133  62.647  1.00  0.00    -0.200 C  
HETATM   20  C   UNL     1      -9.532   8.998  62.947  1.00  0.00     1.093 C  
ENDBRANCH   5  18
BRANCH   7  21
HETATM   21  N   UNL     1      -9.827  13.005  68.300  1.00  0.00    -0.227 NA 
HETATM   22  C   UNL     1     -11.241  13.063  68.687  1.00  0.00    -0.277 C  
HETATM   23  C   UNL     1     -11.464  14.371  69.485  1.00  0.00    -0.288 C  
HETATM   24  N   UNL     1     -11.091  15.593  68.737  1.00  0.00    -0.287 NA 
HETATM   25  C   UNL     1      -9.693  15.486  68.250  1.00  0.00    -0.201 C  
HETATM   26  H   UNL     1     -11.238  16.438  69.289  1.00  0.00     0.000 HD 
HETATM   27  C   UNL     1      -9.353  16.712  67.408  1.00  0.00    -0.223 C  
HETATM   28  C   UNL     1      -9.400  14.159  67.477  1.00  0.00    -0.204 C  
ENDBRANCH   7  21
ENDBRANCH   2   3
TORSDOF 3
ENDMDL
MODEL      122
REMARK 921   NORMALIZED FREE ENERGY PREDICTED BY IDOCK:    2.29 KCAL/MOL
REMARK 922        TOTAL FREE ENERGY PREDICTED BY IDOCK:    2.67 KCAL/MOL
REMARK 923 INTER-LIGAND FREE ENERGY PREDICTED BY IDOCK:   -4.16 KCAL/MOL
REMARK 924 INTRA-LIGAND FREE ENERGY PREDICTED BY IDOCK:    6.83 KCAL/MOL
REMARK 927      BINDING AFFINITY PREDICTED BY RF-SCORE:    0.00 PKD
ROOT
HETATM    1  C   UNL     1      -9.020  14.218  66.586  1.00  0.00    -0.186 C  
HETATM    2  O   UNL     1      -8.953  12.868  67.062  1.00  0.00    -0.213 OA 
ENDROOT
BRANCH   2   3
HETATM    3  C   UNL     1      -8.118  12.710  68.157  1.00  0.00    -0.164 A  
HETATM    4  C   UNL     1      -8.016  11.409  68.717  1.00  0.00    -0.122 A  
HETATM    5  N   UNL     1      -8.913  10.325  68.430  1.00  0.00    -0.129 NA 
HETATM    6  C   UNL     1      -8.628   9.049  68.904  1.00  0.00    -0.131 C  
HETATM    7  C   UNL     1      -7.334  13.803  68.635  1.00  0.00    -0.117 A  
HETATM    8  C   UNL     1      -7.606   8.712  69.691  1.00  0.00    -0.080 C  
HETATM    9  F   UNL     1      -5.506  14.462  70.018  1.00  0.00    -0.092 F  
HETATM   10  C   UNL     1      -7.449   7.298  70.097  1.00  0.00    -0.088 C  
HETATM   11  C   UNL     1      -6.316  13.496  69.553  1.00  0.00    -0.108 A  
HETATM   12  C   UNL     1      -6.691   9.801  70.103  1.00  0.00    -0.100 C  
HETATM   13  O   UNL     1      -6.388   7.060  70.908  1.00  0.00    -0.039 OA 
HETATM   14  C   UNL     1      -6.949  11.170  69.604  1.00  0.00    -0.088 A  
HETATM   15  O   UNL     1      -5.737   9.546  70.834  1.00  0.00    -0.047 OA 
HETATM   16  O   UNL     1      -8.234   6.418  69.797  1.00  0.00    -0.121 OA 
HETATM   17  C   UNL     1      -6.100  12.200  70.011  1.00  0.00    -0.138 A  
BRANCH   5  18
HETATM   18  C   UNL     1     -10.263  10.571  67.885  1.00  0.00    -0.183 C  
HETATM   19  C   UNL     1     -10.780  11.942  67.492  1.00  0.00    -0.263 C  
HETATM   20  C   UNL     1     -10.440  10.947  66.430  1.00  0.00    -0.307 C  
ENDBRANCH   5  18
BRANCH   7  21
HETATM   21  N   UNL     1      -7.558  15.096  68.148  1.00  0.00    -0.107 NA 
HETATM   22  C   UNL     1      -6.559  15.773  67.315  1.00  0.00    -0.134 C  
HETATM   23  C   UNL     1      -7.301  16.788  66.411  1.00  0.00    -0.226 C  
HETATM   24  N   UNL     1      -8.095  17.784  67.164  1.00  0.00    -0.210 NA 
HETATM   25  C   UNL     1      -9.030  17.098  68.090  1.00  0.00    -0.240 C  
HETATM   26  H   UNL     1      -8.580  18.433  66.544  1.00  0.00     0.000 HD 
HETATM   27  C   UNL     1      -9.778  18.136  68.920  1.00  0.00    -0.283 C  
HETATM   28  C   UNL     1      -8.340  16.025  68.995  1.00  0.00    -0.243 C  
ENDBRANCH   7  21
ENDBRANCH   2   3
TORSDOF 3
ENDMDL
MODEL      123
REMARK 921   NORMALIZED FREE ENERGY PREDICTED BY IDOCK:    4.48 KCAL/MOL
REMARK 922        TOTAL FREE ENERGY PREDICTED BY IDOCK:    5.24 KCAL/MOL
REMARK 923 INTER-LIGAND FREE ENERGY PREDICTED BY IDOCK:    4.23 KCAL/MOL
REMARK 924 INTRA-LIGAND FREE ENERGY PREDICTED BY IDOCK:    1.01 KCAL/MOL
REMARK 927      BINDING AFFINITY PREDICTED BY RF-SCORE:    0.00 PKD
ROOT
HETATM    1  C   UNL     1      -7.418  15.403  71.152  1.00  0.00     2.431 C  
HETATM    2  O   UNL     1      -8.244  15.130  70.014  1.00  0.00     0.005 OA 
ENDROOT
BRANCH   2   3
HETATM    3  C   UNL     1      -7.530  14.994  68.834  1.00  0.00    -0.143 A  
HETATM    4  C   UNL     1      -7.480  16.119  67.968  1.00  0.00    -0.132 A  
HETATM    5  N   UNL     1      -8.334  17.268  68.075  1.00  0.00    -0.221 NA 
HETATM    6  C   UNL     1      -8.093  18.383  67.279  1.00  0.00    -0.240 C  
HETATM    7  C   UNL     1      -6.808  13.794  68.557  1.00  0.00    -0.097 A  
HETATM    8  C   UNL     1      -7.159  18.489  66.334  1.00  0.00    -0.265 C  
HETATM    9  F   UNL     1      -5.142  12.765  67.195  1.00  0.00    -0.075 F  
HETATM   10  C   UNL     1      -7.037  19.758  65.584  1.00  0.00    -0.309 C  
HETATM   11  C   UNL     1      -5.892  13.839  67.493  1.00  0.00     0.072 A  
HETATM   12  C   UNL     1      -6.300  17.304  66.106  1.00  0.00    -0.105 C  
HETATM   13  O   UNL     1      -6.067  19.761  64.636  1.00  0.00    -0.245 OA 
HETATM   14  C   UNL     1      -6.511  16.104  66.946  1.00  0.00    -0.006 A  
HETATM   15  O   UNL     1      -5.427  17.346  65.242  1.00  0.00     0.041 OA 
HETATM   16  O   UNL     1      -7.780  20.709  65.740  1.00  0.00     0.031 OA 
HETATM   17  C   UNL     1      -5.717  14.980  66.715  1.00  0.00     1.769 A  
BRANCH   5  18
HETATM   18  C   UNL     1      -9.620  17.204  68.797  1.00  0.00    -0.269 C  
HETATM   19  C   UNL     1     -10.975  17.272  68.119  1.00  0.00    -0.193 C  
HETATM   20  C   UNL     1     -10.495  15.974  68.683  1.00  0.00    -0.251 C  
ENDBRANCH   5  18
BRANCH   7  21
HETATM   21  N   UNL     1      -6.987  12.664  69.362  1.00  0.00     0.034 NA 
HETATM   22  C   UNL     1      -8.252  11.920  69.349  1.00  0.00     0.736 C  
HETATM   23  C   UNL     1      -7.946  10.453  69.740  1.00  0.00    -0.067 C  
HETATM   24  N   UNL     1      -7.289  10.315  71.059  1.00  0.00    -0.104 NA 
HETATM   25  C   UNL     1      -6.067  11.157  71.112  1.00  0.00     0.487 C  
HETATM   26  H   UNL     1      -7.090   9.341  71.287  1.00  0.00     0.000 HD 
HETATM   27  C   UNL     1      -5.450  11.073  72.504  1.00  0.00     0.751 C  
HETATM   28  C   UNL     1      -6.310  12.640  70.678  1.00  0.00     0.596 C  
ENDBRANCH   7  21
ENDBRANCH   2   3
TORSDOF 3
ENDMDL
MODEL      124
REMARK 921   NORMALIZED FREE ENERGY PREDICTED BY IDOCK:    5.97 KCAL/MOL
REMARK 922        TOTAL FREE ENERGY PREDICTED BY IDOCK:    6.99 KCAL/MOL
REMARK 923 INTER-LIGAND FREE ENERGY PREDICTED BY IDOCK:    4.39 KCAL/MOL
REMARK 924 INTRA-LIGAND FREE ENERGY PREDICTED BY IDOCK:    2.61 KCAL/MOL
REMARK 927      BINDING AFFINITY PREDICTED BY RF-SCORE:    0.00 PKD
ROOT
HETATM    1  C   UNL     1     -10.254   4.574  67.378  1.00  0.00     0.010 C  
HETATM    2  O   UNL     1      -9.521   5.796  67.530  1.00  0.00    -0.111 OA 
ENDROOT
BRANCH   2   3
HETATM    3  C   UNL     1      -8.800   5.862  68.712  1.00  0.00    -0.111 A  
HETATM    4  C   UNL     1      -9.481   5.526  69.913  1.00  0.00    -0.157 A  
HETATM    5  N   UNL     1     -10.907   5.407  70.034  1.00  0.00    -0.238 NA 
HETATM    6  C   UNL     1     -11.460   4.915  71.211  1.00  0.00     1.297 C  
HETATM    7  C   UNL     1      -7.406   6.173  68.696  1.00  0.00    -0.086 A  
HETATM    8  C   UNL     1     -10.794   4.590  72.318  1.00  0.00    -0.037 C  
HETATM    9  F   UNL     1      -5.371   6.173  69.938  1.00  0.00    -0.011 F  
HETATM   10  C   UNL     1     -11.545   4.071  73.483  1.00  0.00    -0.029 C  
HETATM   11  C   UNL     1      -6.694   5.945  69.885  1.00  0.00    -0.052 A  
HETATM   12  C   UNL     1      -9.325   4.776  72.295  1.00  0.00    -0.127 C  
HETATM   13  O   UNL     1     -10.779   3.782  74.564  1.00  0.00    -0.187 OA 
HETATM   14  C   UNL     1      -8.694   5.280  71.054  1.00  0.00    -0.138 A  
HETATM   15  O   UNL     1      -8.663   4.498  73.292  1.00  0.00    -0.101 OA 
HETATM   16  O   UNL     1     -12.758   3.970  73.513  1.00  0.00     0.435 OA 
HETATM   17  C   UNL     1      -7.313   5.477  71.040  1.00  0.00    -0.084 A  
BRANCH   5  18
HETATM   18  C   UNL     1     -11.815   6.046  69.062  1.00  0.00     1.295 C  
HETATM   19  C   UNL     1     -12.583   7.325  69.335  1.00  0.00     2.424 C  
HETATM   20  C   UNL     1     -11.423   7.347  68.394  1.00  0.00     0.695 C  
ENDBRANCH   5  18
BRANCH   7  21
HETATM   21  N   UNL     1      -6.801   6.628  67.519  1.00  0.00    -0.073 NA 
HETATM   22  C   UNL     1      -7.036   7.990  67.026  1.00  0.00    -0.074 C  
HETATM   23  C   UNL     1      -5.799   8.416  66.197  1.00  0.00    -0.044 C  
HETATM   24  N   UNL     1      -5.503   7.510  65.065  1.00  0.00    -0.033 NA 
HETATM   25  C   UNL     1      -5.376   6.112  65.548  1.00  0.00    -0.013 C  
HETATM   26  H   UNL     1      -4.680   7.808  64.542  1.00  0.00     0.000 HD 
HETATM   27  C   UNL     1      -5.159   5.180  64.361  1.00  0.00    -0.009 C  
HETATM   28  C   UNL     1      -6.578   5.645  66.434  1.00  0.00    -0.055 C  
ENDBRANCH   7  21
ENDBRANCH   2   3
TORSDOF 3
ENDMDL
MODEL      125
REMARK 921   NORMALIZED FREE ENERGY PREDICTED BY IDOCK:    6.39 KCAL/MOL
REMARK 922        TOTAL FREE ENERGY PREDICTED BY IDOCK:    7.48 KCAL/MOL
REMARK 923 INTER-LIGAND FREE ENERGY PREDICTED BY IDOCK:    3.07 KCAL/MOL
REMARK 924 INTRA-LIGAND FREE ENERGY PREDICTED BY IDOCK:    4.42 KCAL/MOL
REMARK 927      BINDING AFFINITY PREDICTED BY RF-SCORE:    0.00 PKD
ROOT
HETATM    1  C   UNL     1     -10.511   9.974  70.509  1.00  0.00    -0.198 C  
HETATM    2  O   UNL     1     -10.445  10.742  69.301  1.00  0.00    -0.210 OA 
ENDROOT
BRANCH   2   3
HETATM    3  C   UNL     1     -10.517  12.110  69.512  1.00  0.00     0.457 A  
HETATM    4  C   UNL     1      -9.507  12.916  68.920  1.00  0.00     0.266 A  
HETATM    5  N   UNL     1      -8.279  12.412  68.373  1.00  0.00    -0.163 NA 
HETATM    6  C   UNL     1      -7.435  13.266  67.672  1.00  0.00    -0.171 C  
HETATM    7  C   UNL     1     -11.615  12.677  70.226  1.00  0.00     0.034 A  
HETATM    8  C   UNL     1      -7.608  14.576  67.498  1.00  0.00    -0.211 C  
HETATM    9  F   UNL     1     -12.795  14.678  70.763  1.00  0.00    -0.356 F  
HETATM   10  C   UNL     1      -6.609  15.335  66.713  1.00  0.00     1.039 C  
HETATM   11  C   UNL     1     -11.762  14.072  70.154  1.00  0.00    -0.261 A  
HETATM   12  C   UNL     1      -8.811  15.181  68.116  1.00  0.00    -0.169 C  
HETATM   13  O   UNL     1      -6.868  16.662  66.606  1.00  0.00    -0.218 OA 
HETATM   14  C   UNL     1      -9.745  14.302  68.855  1.00  0.00    -0.118 A  
HETATM   15  O   UNL     1      -9.014  16.386  67.993  1.00  0.00    -0.182 OA 
HETATM   16  O   UNL     1      -5.596  14.842  66.253  1.00  0.00     2.788 OA 
HETATM   17  C   UNL     1     -10.865  14.876  69.457  1.00  0.00    -0.272 A  
BRANCH   5  18
HETATM   18  C   UNL     1      -7.750  11.091  68.766  1.00  0.00    -0.135 C  
HETATM   19  C   UNL     1      -6.580  10.411  68.079  1.00  0.00    -0.061 C  
HETATM   20  C   UNL     1      -6.403  10.983  69.448  1.00  0.00    -0.083 C  
ENDBRANCH   5  18
BRANCH   7  21
HETATM   21  N   UNL     1     -12.514  11.848  70.907  1.00  0.00    -0.353 NA 
HETATM   22  C   UNL     1     -12.995  12.197  72.248  1.00  0.00     0.014 C  
HETATM   23  C   UNL     1     -14.390  11.550  72.438  1.00  0.00     1.354 C  
HETATM   24  N   UNL     1     -14.391  10.081  72.263  1.00  0.00     0.013 NA 
HETATM   25  C   UNL     1     -13.800   9.722  70.950  1.00  0.00     0.184 C  
HETATM   26  H   UNL     1     -15.322   9.683  72.384  1.00  0.00     0.000 HD 
HETATM   27  C   UNL     1     -13.728   8.203  70.822  1.00  0.00     0.425 C  
HETATM   28  C   UNL     1     -12.410  10.388  70.686  1.00  0.00    -0.346 C  
ENDBRANCH   7  21
ENDBRANCH   2   3
TORSDOF 3
ENDMDL
MODEL      126
REMARK 921   NORMALIZED FREE ENERGY PREDICTED BY IDOCK:    7.36 KCAL/MOL
REMARK 922        TOTAL FREE ENERGY PREDICTED BY IDOCK:    8.63 KCAL/MOL
REMARK 923 INTER-LIGAND FREE ENERGY PREDICTED BY IDOCK:    2.32 KCAL/MOL
REMARK 924 INTRA-LIGAND FREE ENERGY PREDICTED BY IDOCK:    6.31 KCAL/MOL
REMARK 927      BINDING AFFINITY PREDICTED BY RF-SCORE:    0.00 PKD
ROOT
HETATM    1  C   UNL     1      -8.656   5.735  67.984  1.00  0.00    -0.105 C  
HETATM    2  O   UNL     1      -9.293   7.017  67.929  1.00  0.00    -0.125 OA 
ENDROOT
BRANCH   2   3
HETATM    3  C   UNL     1      -8.457   8.029  67.481  1.00  0.00    -0.127 A  
HETATM    4  C   UNL     1      -8.822   9.365  67.798  1.00  0.00    -0.123 A  
HETATM    5  N   UNL     1     -10.112   9.764  68.285  1.00  0.00    -0.157 NA 
HETATM    6  C   UNL     1     -10.312  11.069  68.719  1.00  0.00    -0.199 C  
HETATM    7  C   UNL     1      -7.240   7.718  66.803  1.00  0.00    -0.088 A  
HETATM    8  C   UNL     1      -9.423  12.061  68.669  1.00  0.00    -0.069 C  
HETATM    9  F   UNL     1      -5.137   8.550  66.047  1.00  0.00    -0.026 F  
HETATM   10  C   UNL     1      -9.803  13.394  69.185  1.00  0.00     0.372 C  
HETATM   11  C   UNL     1      -6.324   8.770  66.636  1.00  0.00    -0.059 A  
HETATM   12  C   UNL     1      -8.097  11.742  68.091  1.00  0.00    -0.150 C  
HETATM   13  O   UNL     1      -8.835  14.337  69.077  1.00  0.00    -0.080 OA 
HETATM   14  C   UNL     1      -7.837  10.358  67.635  1.00  0.00    -0.105 A  
HETATM   15  O   UNL     1      -7.242  12.622  68.015  1.00  0.00    -0.089 OA 
HETATM   16  O   UNL     1     -10.912  13.662  69.610  1.00  0.00    -0.095 OA 
HETATM   17  C   UNL     1      -6.596  10.064  67.069  1.00  0.00    -0.070 A  
BRANCH   5  18
HETATM   18  C   UNL     1     -11.304   8.916  68.084  1.00  0.00     0.752 C  
HETATM   19  C   UNL     1     -11.605   8.172  66.796  1.00  0.00     3.000 C  
HETATM   20  C   UNL     1     -11.162   7.411  68.003  1.00  0.00     0.250 C  
ENDBRANCH   5  18
BRANCH   7  21
HETATM   21  N   UNL     1      -6.980   6.406  66.391  1.00  0.00    -0.065 NA 
HETATM   22  C   UNL     1      -5.748   5.718  66.794  1.00  0.00    -0.017 C  
HETATM   23  C   UNL     1      -6.034   4.196  66.803  1.00  0.00    -0.024 C  
HETATM   24  N   UNL     1      -6.507   3.673  65.501  1.00  0.00    -0.032 NA 
HETATM   25  C   UNL     1      -7.688   4.444  65.040  1.00  0.00    -0.081 C  
HETATM   26  H   UNL     1      -6.696   2.672  65.538  1.00  0.00     0.000 HD 
HETATM   27  C   UNL     1      -8.110   3.952  63.659  1.00  0.00    -0.089 C  
HETATM   28  C   UNL     1      -7.470   5.993  65.057  1.00  0.00    -0.084 C  
ENDBRANCH   7  21
ENDBRANCH   2   3
TORSDOF 3
ENDMDL
MODEL      127
REMARK 921   NORMALIZED FREE ENERGY PREDICTED BY IDOCK:    8.42 KCAL/MOL
REMARK 922        TOTAL FREE ENERGY PREDICTED BY IDOCK:    9.86 KCAL/MOL
REMARK 923 INTER-LIGAND FREE ENERGY PREDICTED BY IDOCK:    1.20 KCAL/MOL
REMARK 924 INTRA-LIGAND FREE ENERGY PREDICTED BY IDOCK:    8.67 KCAL/MOL
REMARK 927      BINDING AFFINITY PREDICTED BY RF-SCORE:    0.00 PKD
ROOT
HETATM    1  C   UNL     1      -9.771   3.524  66.528  1.00  0.00    -0.018 C  
HETATM    2  O   UNL     1      -8.509   3.250  67.149  1.00  0.00    -0.093 OA 
ENDROOT
BRANCH   2   3
HETATM    3  C   UNL     1      -7.831   4.392  67.547  1.00  0.00    -0.085 A  
HETATM    4  C   UNL     1      -7.715   4.629  68.943  1.00  0.00    -0.071 A  
HETATM    5  N   UNL     1      -8.477   3.948  69.952  1.00  0.00    -0.059 NA 
HETATM    6  C   UNL     1      -8.169   4.138  71.294  1.00  0.00    -0.077 C  
HETATM    7  C   UNL     1      -7.208   5.239  66.582  1.00  0.00    -0.077 A  
HETATM    8  C   UNL     1      -7.249   4.970  71.781  1.00  0.00    -0.071 C  
HETATM    9  F   UNL     1      -5.653   7.012  66.226  1.00  0.00    -0.023 F  
HETATM   10  C   UNL     1      -7.046   5.041  73.245  1.00  0.00    -0.081 C  
HETATM   11  C   UNL     1      -6.313   6.204  67.072  1.00  0.00    -0.038 A  
HETATM   12  C   UNL     1      -6.487   5.774  70.798  1.00  0.00    -0.036 C  
HETATM   13  O   UNL     1      -6.099   5.927  73.640  1.00  0.00    -0.058 OA 
HETATM   14  C   UNL     1      -6.771   5.588  69.358  1.00  0.00    -0.059 A  
HETATM   15  O   UNL     1      -5.631   6.563  71.194  1.00  0.00    -0.025 OA 
HETATM   16  O   UNL     1      -7.713   4.416  74.050  1.00  0.00    -0.083 OA 
HETATM   17  C   UNL     1      -6.069   6.362  68.434  1.00  0.00    -0.024 A  
BRANCH   5  18
HETATM   18  C   UNL     1      -9.749   3.274  69.627  1.00  0.00     0.053 C  
HETATM   19  C   UNL     1     -10.219   2.991  68.212  1.00  0.00     1.404 C  
HETATM   20  C   UNL     1      -9.744   1.865  69.072  1.00  0.00     0.025 C  
ENDBRANCH   5  18
BRANCH   7  21
HETATM   21  N   UNL     1      -7.456   5.052  65.217  1.00  0.00    -0.075 NA 
HETATM   22  C   UNL     1      -6.379   5.180  64.230  1.00  0.00    -0.026 C  
HETATM   23  C   UNL     1      -6.742   4.296  63.011  1.00  0.00    -0.035 C  
HETATM   24  N   UNL     1      -8.042   4.641  62.394  1.00  0.00    -0.068 NA 
HETATM   25  C   UNL     1      -9.116   4.619  63.418  1.00  0.00    -0.075 C  
HETATM   26  H   UNL     1      -8.260   4.037  61.601  1.00  0.00     0.000 HD 
HETATM   27  C   UNL     1     -10.432   5.061  62.787  1.00  0.00     1.029 C  
HETATM   28  C   UNL     1      -8.780   5.459  64.695  1.00  0.00    -0.054 C  
ENDBRANCH   7  21
ENDBRANCH   2   3
TORSDOF 3
ENDMDL
MODEL      128
REMARK 921   NORMALIZED FREE ENERGY PREDICTED BY IDOCK:   10.67 KCAL/MOL
REMARK 922        TOTAL FREE ENERGY PREDICTED BY IDOCK:   12.52 KCAL/MOL
REMARK 923 INTER-LIGAND FREE ENERGY PREDICTED BY IDOCK:    6.22 KCAL/MOL
REMARK 924 INTRA-LIGAND FREE ENERGY PREDICTED BY IDOCK:    6.30 KCAL/MOL
REMARK 927      BINDING AFFINITY PREDICTED BY RF-SCORE:    0.00 PKD
ROOT
HETATM    1  C   UNL     1     -10.232  16.635  70.708  1.00  0.00     1.550 C  
HETATM    2  O   UNL     1      -9.984  15.793  69.576  1.00  0.00    -0.253 OA 
ENDROOT
BRANCH   2   3
HETATM    3  C   UNL     1     -11.086  15.043  69.194  1.00  0.00    -0.270 A  
HETATM    4  C   UNL     1     -11.155  14.628  67.838  1.00  0.00    -0.291 A  
HETATM    5  N   UNL     1     -10.338  15.156  66.781  1.00  0.00    -0.267 NA 
HETATM    6  C   UNL     1     -10.372  14.565  65.523  1.00  0.00    -0.359 C  
HETATM    7  C   UNL     1     -12.059  14.642  70.159  1.00  0.00    -0.327 A  
HETATM    8  C   UNL     1     -11.163  13.561  65.145  1.00  0.00    -0.320 C  
HETATM    9  F   UNL     1     -13.901  13.198  70.618  1.00  0.00     0.408 F  
HETATM   10  C   UNL     1     -11.061  13.048  63.761  1.00  0.00    -0.312 C  
HETATM   11  C   UNL     1     -12.980  13.661  69.756  1.00  0.00     0.660 A  
HETATM   12  C   UNL     1     -12.099  13.028  66.161  1.00  0.00    -0.409 C  
HETATM   13  O   UNL     1     -11.916  12.037  63.472  1.00  0.00    -0.482 OA 
HETATM   14  C   UNL     1     -12.081  13.616  67.520  1.00  0.00    -0.352 A  
HETATM   15  O   UNL     1     -12.855  12.106  65.863  1.00  0.00     0.366 OA 
HETATM   16  O   UNL     1     -10.327  13.526  62.916  1.00  0.00     2.332 OA 
HETATM   17  C   UNL     1     -12.979  13.129  68.470  1.00  0.00     2.061 A  
BRANCH   5  18
HETATM   18  C   UNL     1      -9.676  16.469  66.908  1.00  0.00    -0.251 C  
HETATM   19  C   UNL     1      -8.431  16.712  67.739  1.00  0.00    -0.191 C  
HETATM   20  C   UNL     1      -8.335  16.712  66.248  1.00  0.00    -0.360 C  
ENDBRANCH   5  18
BRANCH   7  21
HETATM   21  N   UNL     1     -12.032  15.178  71.451  1.00  0.00    -0.321 NA 
HETATM   22  C   UNL     1     -12.645  14.465  72.577  1.00  0.00    -0.269 C  
HETATM   23  C   UNL     1     -11.905  14.891  73.870  1.00  0.00    -0.104 C  
HETATM   24  N   UNL     1     -11.931  16.350  74.116  1.00  0.00    -0.272 NA 
HETATM   25  C   UNL     1     -11.414  17.077  72.930  1.00  0.00     0.810 C  
HETATM   26  H   UNL     1     -11.429  16.603  74.967  1.00  0.00     0.000 HD 
HETATM   27  C   UNL     1     -11.528  18.580  73.164  1.00  0.00     3.023 C  
HETATM   28  C   UNL     1     -12.094  16.651  71.588  1.00  0.00     0.423 C  
ENDBRANCH   7  21
ENDBRANCH   2   3
TORSDOF 3
ENDMDL
MODEL      129
REMARK 921   NORMALIZED FREE ENERGY PREDICTED BY IDOCK:   11.04 KCAL/MOL
REMARK 922        TOTAL FREE ENERGY PREDICTED BY IDOCK:   12.95 KCAL/MOL
REMARK 923 INTER-LIGAND FREE ENERGY PREDICTED BY IDOCK:   10.56 KCAL/MOL
REMARK 924 INTRA-LIGAND FREE ENERGY PREDICTED BY IDOCK:    2.38 KCAL/MOL
REMARK 927      BINDING AFFINITY PREDICTED BY RF-SCORE:    0.00 PKD
ROOT
HETATM    1  C   UNL     1      -7.440  15.428  71.692  1.00  0.00     3.797 C  
HETATM    2  O   UNL     1      -8.294  15.146  70.577  1.00  0.00     0.727 OA 
ENDROOT
BRANCH   2   3
HETATM    3  C   UNL     1      -7.604  14.909  69.399  1.00  0.00    -0.162 A  
HETATM    4  C   UNL     1      -6.983  13.640  69.249  1.00  0.00    -0.025 A  
HETATM    5  N   UNL     1      -6.772  12.705  70.318  1.00  0.00     0.325 NA 
HETATM    6  C   UNL     1      -6.304  11.427  70.034  1.00  0.00    -0.132 C  
HETATM    7  C   UNL     1      -7.599  15.881  68.353  1.00  0.00    -0.132 A  
HETATM    8  C   UNL     1      -5.948  10.967  68.836  1.00  0.00    -0.040 C  
HETATM    9  F   UNL     1      -7.127  16.300  66.053  1.00  0.00     0.015 F  
HETATM   10  C   UNL     1      -5.477   9.570  68.713  1.00  0.00    -0.037 C  
HETATM   11  C   UNL     1      -7.124  15.458  67.100  1.00  0.00    -0.100 A  
HETATM   12  C   UNL     1      -6.054  11.910  67.698  1.00  0.00    -0.084 C  
HETATM   13  O   UNL     1      -5.126   9.203  67.456  1.00  0.00    -0.036 OA 
HETATM   14  C   UNL     1      -6.565  13.275  67.955  1.00  0.00    -0.129 A  
HETATM   15  O   UNL     1      -5.731  11.539  66.572  1.00  0.00    -0.142 OA 
HETATM   16  O   UNL     1      -5.343   8.817  69.660  1.00  0.00    -0.030 OA 
HETATM   17  C   UNL     1      -6.643  14.170  66.888  1.00  0.00     1.338 A  
BRANCH   5  18
HETATM   18  C   UNL     1      -6.767  13.142  71.728  1.00  0.00     3.696 C  
HETATM   19  C   UNL     1      -5.991  12.442  72.828  1.00  0.00     2.509 C  
HETATM   20  C   UNL     1      -5.528  13.771  72.327  1.00  0.00    -0.140 C  
ENDBRANCH   5  18
BRANCH   7  21
HETATM   21  N   UNL     1      -8.103  17.166  68.585  1.00  0.00    -0.260 NA 
HETATM   22  C   UNL     1      -9.420  17.563  68.076  1.00  0.00    -0.280 C  
HETATM   23  C   UNL     1      -9.975  18.671  69.004  1.00  0.00    -0.291 C  
HETATM   24  N   UNL     1      -9.092  19.854  69.111  1.00  0.00    -0.028 NA 
HETATM   25  C   UNL     1      -7.727  19.438  69.519  1.00  0.00     0.053 C  
HETATM   26  H   UNL     1      -9.477  20.563  69.735  1.00  0.00     0.000 HD 
HETATM   27  C   UNL     1      -6.808  20.656  69.539  1.00  0.00     0.424 C  
HETATM   28  C   UNL     1      -7.136  18.286  68.642  1.00  0.00    -0.275 C  
ENDBRANCH   7  21
ENDBRANCH   2   3
TORSDOF 3
ENDMDL
MODEL      130
REMARK 921   NORMALIZED FREE ENERGY PREDICTED BY IDOCK:   11.53 KCAL/MOL
REMARK 922        TOTAL FREE ENERGY PREDICTED BY IDOCK:   13.53 KCAL/MOL
REMARK 923 INTER-LIGAND FREE ENERGY PREDICTED BY IDOCK:    3.28 KCAL/MOL
REMARK 924 INTRA-LIGAND FREE ENERGY PREDICTED BY IDOCK:   10.25 KCAL/MOL
REMARK 927      BINDING AFFINITY PREDICTED BY RF-SCORE:    0.00 PKD
ROOT
HETATM    1  C   UNL     1      -5.938  17.245  71.563  1.00  0.00     1.584 C  
HETATM    2  O   UNL     1      -6.828  17.561  70.486  1.00  0.00     1.149 OA 
ENDROOT
BRANCH   2   3
HETATM    3  C   UNL     1      -6.706  16.706  69.402  1.00  0.00    -0.218 A  
HETATM    4  C   UNL     1      -6.383  15.350  69.673  1.00  0.00    -0.160 A  
HETATM    5  N   UNL     1      -5.895  14.865  70.933  1.00  0.00    -0.103 NA 
HETATM    6  C   UNL     1      -5.765  13.496  71.142  1.00  0.00    -0.172 C  
HETATM    7  C   UNL     1      -6.984  17.167  68.079  1.00  0.00    -0.171 A  
HETATM    8  C   UNL     1      -5.985  12.538  70.243  1.00  0.00    -0.126 C  
HETATM    9  F   UNL     1      -7.417  16.535  65.821  1.00  0.00    -0.076 F  
HETATM   10  C   UNL     1      -5.805  11.124  70.640  1.00  0.00    -0.103 C  
HETATM   11  C   UNL     1      -7.114  16.186  67.083  1.00  0.00    -0.218 A  
HETATM   12  C   UNL     1      -6.404  12.973  68.890  1.00  0.00    -0.093 C  
HETATM   13  O   UNL     1      -6.040  10.227  69.651  1.00  0.00    -0.042 OA 
HETATM   14  C   UNL     1      -6.572  14.421  68.632  1.00  0.00    -0.088 A  
HETATM   15  O   UNL     1      -6.614  12.130  68.021  1.00  0.00    -0.059 OA 
HETATM   16  O   UNL     1      -5.410  10.777  71.738  1.00  0.00    -0.288 OA 
HETATM   17  C   UNL     1      -6.944  14.831  67.352  1.00  0.00    -0.141 A  
BRANCH   5  18
HETATM   18  C   UNL     1      -5.266  15.773  71.913  1.00  0.00     0.148 C  
HETATM   19  C   UNL     1      -6.034  16.527  72.982  1.00  0.00     3.139 C  
HETATM   20  C   UNL     1      -5.168  15.372  73.369  1.00  0.00     1.118 C  
ENDBRANCH   5  18
BRANCH   7  21
HETATM   21  N   UNL     1      -7.167  18.533  67.835  1.00  0.00    -0.234 NA 
HETATM   22  C   UNL     1      -6.034  19.465  67.869  1.00  0.00    -0.209 C  
HETATM   23  C   UNL     1      -6.371  20.658  66.941  1.00  0.00    -0.249 C  
HETATM   24  N   UNL     1      -7.620  21.362  67.309  1.00  0.00    -0.723 NA 
HETATM   25  C   UNL     1      -8.746  20.398  67.383  1.00  0.00    -0.320 C  
HETATM   26  H   UNL     1      -7.823  22.136  66.676  1.00  0.00     0.000 HD 
HETATM   27  C   UNL     1     -10.007  21.121  67.847  1.00  0.00     0.266 C  
HETATM   28  C   UNL     1      -8.442  19.146  68.270  1.00  0.00    -0.332 C  
ENDBRANCH   7  21
ENDBRANCH   2   3
TORSDOF 3
ENDMDL
MODEL      131
REMARK 921   NORMALIZED FREE ENERGY PREDICTED BY IDOCK:   12.26 KCAL/MOL
REMARK 922        TOTAL FREE ENERGY PREDICTED BY IDOCK:   14.39 KCAL/MOL
REMARK 923 INTER-LIGAND FREE ENERGY PREDICTED BY IDOCK:    8.53 KCAL/MOL
REMARK 924 INTRA-LIGAND FREE ENERGY PREDICTED BY IDOCK:    5.86 KCAL/MOL
REMARK 927      BINDING AFFINITY PREDICTED BY RF-SCORE:    0.00 PKD
ROOT
HETATM    1  C   UNL     1      -9.250  11.232  66.949  1.00  0.00    -0.175 C  
HETATM    2  O   UNL     1      -8.192  10.390  67.423  1.00  0.00    -0.117 OA 
ENDROOT
BRANCH   2   3
HETATM    3  C   UNL     1      -8.590   9.512  68.419  1.00  0.00    -0.120 A  
HETATM    4  C   UNL     1      -8.156   8.164  68.312  1.00  0.00    -0.128 A  
HETATM    5  N   UNL     1      -7.591   7.581  67.128  1.00  0.00    -0.105 NA 
HETATM    6  C   UNL     1      -7.049   6.301  67.180  1.00  0.00    -0.073 C  
HETATM    7  C   UNL     1      -9.333   9.981  69.544  1.00  0.00    -0.229 A  
HETATM    8  C   UNL     1      -7.054   5.486  68.234  1.00  0.00    -0.066 C  
HETATM    9  F   UNL     1     -10.099   9.483  71.747  1.00  0.00    -0.345 F  
HETATM   10  C   UNL     1      -6.423   4.154  68.116  1.00  0.00    -0.038 C  
HETATM   11  C   UNL     1      -9.452   9.102  70.633  1.00  0.00    -0.261 A  
HETATM   12  C   UNL     1      -7.704   5.990  69.466  1.00  0.00    -0.098 C  
HETATM   13  O   UNL     1      -6.492   3.396  69.238  1.00  0.00    -0.032 OA 
HETATM   14  C   UNL     1      -8.276   7.355  69.458  1.00  0.00    -0.131 A  
HETATM   15  O   UNL     1      -7.742   5.276  70.466  1.00  0.00    -0.076 OA 
HETATM   16  O   UNL     1      -5.937   3.726  67.084  1.00  0.00    -0.023 OA 
HETATM   17  C   UNL     1      -8.909   7.820  70.612  1.00  0.00    -0.144 A  
BRANCH   5  18
HETATM   18  C   UNL     1      -7.815   8.179  65.797  1.00  0.00    -0.096 C  
HETATM   19  C   UNL     1      -8.966   7.804  64.883  1.00  0.00     0.439 C  
HETATM   20  C   UNL     1      -8.974   9.128  65.574  1.00  0.00    -0.252 C  
ENDBRANCH   5  18
BRANCH   7  21
HETATM   21  N   UNL     1      -9.856  11.279  69.550  1.00  0.00     0.218 NA 
HETATM   22  C   UNL     1     -10.787  11.723  68.507  1.00  0.00    -0.224 C  
HETATM   23  C   UNL     1     -11.678  12.839  69.107  1.00  0.00    -0.322 C  
HETATM   24  N   UNL     1     -10.912  13.992  69.630  1.00  0.00    -0.447 NA 
HETATM   25  C   UNL     1      -9.893  13.529  70.605  1.00  0.00     4.623 C  
HETATM   26  H   UNL     1     -11.522  14.707  70.027  1.00  0.00     0.000 HD 
HETATM   27  C   UNL     1      -9.055  14.716  71.069  1.00  0.00     3.179 C  
HETATM   28  C   UNL     1      -8.996  12.367  70.067  1.00  0.00     3.567 C  
ENDBRANCH   7  21
ENDBRANCH   2   3
TORSDOF 3
ENDMDL
MODEL      132
REMARK 921   NORMALIZED FREE ENERGY PREDICTED BY IDOCK:   29.89 KCAL/MOL
REMARK 922        TOTAL FREE ENERGY PREDICTED BY IDOCK:   35.11 KCAL/MOL
REMARK 923 INTER-LIGAND FREE ENERGY PREDICTED BY IDOCK:   30.87 KCAL/MOL
REMARK 924 INTRA-LIGAND FREE ENERGY PREDICTED BY IDOCK:    4.24 KCAL/MOL
REMARK 927      BINDING AFFINITY PREDICTED BY RF-SCORE:    0.00 PKD
ROOT
HETATM    1  C   UNL     1     -10.938  18.083  71.862  1.00  0.00     2.901 C  
HETATM    2  O   UNL     1     -11.478  16.783  71.590  1.00  0.00    -0.179 OA 
ENDROOT
BRANCH   2   3
HETATM    3  C   UNL     1     -10.633  15.981  70.839  1.00  0.00     0.359 A  
HETATM    4  C   UNL     1     -10.984  14.612  70.702  1.00  0.00     0.109 A  
HETATM    5  N   UNL     1     -11.968  13.939  71.502  1.00  0.00    -0.025 NA 
HETATM    6  C   UNL     1     -12.352  12.642  71.177  1.00  0.00    -0.145 C  
HETATM    7  C   UNL     1      -9.506  16.544  70.168  1.00  0.00     1.178 A  
HETATM    8  C   UNL     1     -11.839  11.890  70.204  1.00  0.00    -0.390 C  
HETATM    9  F   UNL     1      -7.830  16.205  68.504  1.00  0.00    -0.145 F  
HETATM   10  C   UNL     1     -12.374  10.527  69.992  1.00  0.00    -0.219 C  
HETATM   11  C   UNL     1      -8.872  15.734  69.211  1.00  0.00    -0.262 A  
HETATM   12  C   UNL     1     -10.752  12.490  69.396  1.00  0.00     0.178 C  
HETATM   13  O   UNL     1     -11.777   9.838  68.988  1.00  0.00     0.132 OA 
HETATM   14  C   UNL     1     -10.327  13.875  69.698  1.00  0.00     0.410 A  
HETATM   15  O   UNL     1     -10.239  11.836  68.491  1.00  0.00    -0.203 OA 
HETATM   16  O   UNL     1     -13.231  10.021  70.693  1.00  0.00    -0.298 OA 
HETATM   17  C   UNL     1      -9.288  14.432  68.952  1.00  0.00    -0.096 A  
BRANCH   5  18
HETATM   18  C   UNL     1     -12.382  14.470  72.816  1.00  0.00    -0.163 C  
HETATM   19  C   UNL     1     -13.826  14.572  73.270  1.00  0.00     0.718 C  
HETATM   20  C   UNL     1     -12.933  13.538  73.874  1.00  0.00     3.855 C  
ENDBRANCH   5  18
BRANCH   7  21
HETATM   21  N   UNL     1      -9.115  17.861  70.432  1.00  0.00     2.951 NA 
HETATM   22  C   UNL     1      -8.674  18.263  71.773  1.00  0.00    11.738 C  
HETATM   23  C   UNL     1      -7.709  19.464  71.617  1.00  0.00     3.707 C  
HETATM   24  N   UNL     1      -8.307  20.619  70.910  1.00  0.00     1.626 NA 
HETATM   25  C   UNL     1      -8.853  20.188  69.599  1.00  0.00     0.871 C  
HETATM   26  H   UNL     1      -7.648  21.391  70.813  1.00  0.00     0.000 HD 
HETATM   27  C   UNL     1      -9.543  21.369  68.922  1.00  0.00     1.939 C  
HETATM   28  C   UNL     1      -9.799  18.946  69.692  1.00  0.00     0.328 C  
ENDBRANCH   7  21
ENDBRANCH   2   3
TORSDOF 3
ENDMDL
MODEL      133
REMARK 921   NORMALIZED FREE ENERGY PREDICTED BY IDOCK:   30.71 KCAL/MOL
REMARK 922        TOTAL FREE ENERGY PREDICTED BY IDOCK:   36.07 KCAL/MOL
REMARK 923 INTER-LIGAND FREE ENERGY PREDICTED BY IDOCK:   26.78 KCAL/MOL
REMARK 924 INTRA-LIGAND FREE ENERGY PREDICTED BY IDOCK:    9.30 KCAL/MOL
REMARK 927      BINDING AFFINITY PREDICTED BY RF-SCORE:    0.00 PKD
ROOT
HETATM    1  C   UNL     1      -9.864  15.346  68.748  1.00  0.00    -0.211 C  
HETATM    2  O   UNL     1      -9.305  14.077  69.105  1.00  0.00     0.056 OA 
ENDROOT
BRANCH   2   3
HETATM    3  C   UNL     1      -8.582  13.484  68.081  1.00  0.00    -0.173 A  
HETATM    4  C   UNL     1      -8.752  12.087  67.886  1.00  0.00    -0.170 A  
HETATM    5  N   UNL     1      -9.376  11.203  68.829  1.00  0.00    -0.175 NA 
HETATM    6  C   UNL     1      -9.637   9.885  68.470  1.00  0.00    -0.153 C  
HETATM    7  C   UNL     1      -7.771  14.276  67.213  1.00  0.00    -0.120 A  
HETATM    8  C   UNL     1      -9.298   9.300  67.322  1.00  0.00    -0.161 C  
HETATM    9  F   UNL     1      -6.570  14.343  65.154  1.00  0.00     9.227 F  
HETATM   10  C   UNL     1      -9.663   7.883  67.102  1.00  0.00    -0.191 C  
HETATM   11  C   UNL     1      -7.304  13.654  66.044  1.00  0.00     4.042 A  
HETATM   12  C   UNL     1      -8.567  10.131  66.338  1.00  0.00    -0.130 C  
HETATM   13  O   UNL     1      -9.262   7.377  65.911  1.00  0.00    -0.099 OA 
HETATM   14  C   UNL     1      -8.286  11.545  66.674  1.00  0.00    -0.167 A  
HETATM   15  O   UNL     1      -8.224   9.638  65.265  1.00  0.00    -0.121 OA 
HETATM   16  O   UNL     1     -10.218   7.191  67.937  1.00  0.00    -0.167 OA 
HETATM   17  C   UNL     1      -7.578  12.320  65.755  1.00  0.00     1.831 A  
BRANCH   5  18
HETATM   18  C   UNL     1      -9.497  11.564  70.255  1.00  0.00     3.097 C  
HETATM   19  C   UNL     1      -9.530  12.992  70.767  1.00  0.00     7.698 C  
HETATM   20  C   UNL     1     -10.780  12.174  70.780  1.00  0.00     3.306 C  
ENDBRANCH   5  18
BRANCH   7  21
HETATM   21  N   UNL     1      -7.522  15.620  67.515  1.00  0.00    -0.160 NA 
HETATM   22  C   UNL     1      -6.188  16.200  67.329  1.00  0.00    -0.153 C  
HETATM   23  C   UNL     1      -6.360  17.718  67.072  1.00  0.00    -0.162 C  
HETATM   24  N   UNL     1      -7.077  18.426  68.156  1.00  0.00    -0.241 NA 
HETATM   25  C   UNL     1      -8.381  17.769  68.420  1.00  0.00    -0.295 C  
HETATM   26  H   UNL     1      -7.185  19.420  67.957  1.00  0.00     0.000 HD 
HETATM   27  C   UNL     1      -9.068  18.455  69.597  1.00  0.00     0.787 C  
HETATM   28  C   UNL     1      -8.271  16.225  68.640  1.00  0.00    -0.214 C  
ENDBRANCH   7  21
ENDBRANCH   2   3
TORSDOF 3
ENDMDL
MODEL      134
REMARK 921   NORMALIZED FREE ENERGY PREDICTED BY IDOCK:   41.93 KCAL/MOL
REMARK 922        TOTAL FREE ENERGY PREDICTED BY IDOCK:   49.26 KCAL/MOL
REMARK 923 INTER-LIGAND FREE ENERGY PREDICTED BY IDOCK:   33.51 KCAL/MOL
REMARK 924 INTRA-LIGAND FREE ENERGY PREDICTED BY IDOCK:   15.74 KCAL/MOL
REMARK 927      BINDING AFFINITY PREDICTED BY RF-SCORE:    0.00 PKD
ROOT
HETATM    1  C   UNL     1      -5.915  16.360  72.511  1.00  0.00     2.459 C  
HETATM    2  O   UNL     1      -6.852  16.564  71.447  1.00  0.00     2.934 OA 
ENDROOT
BRANCH   2   3
HETATM    3  C   UNL     1      -7.057  15.435  70.668  1.00  0.00     0.805 A  
HETATM    4  C   UNL     1      -6.825  14.172  71.276  1.00  0.00     1.401 A  
HETATM    5  N   UNL     1      -6.129  13.981  72.517  1.00  0.00    -0.082 NA 
HETATM    6  C   UNL     1      -6.100  12.720  73.104  1.00  0.00     2.693 C  
HETATM    7  C   UNL     1      -7.563  15.553  69.339  1.00  0.00    -0.225 A  
HETATM    8  C   UNL     1      -6.607  11.600  72.590  1.00  0.00     5.846 C  
HETATM    9  F   UNL     1      -8.536  14.402  67.490  1.00  0.00    -0.152 F  
HETATM   10  C   UNL     1      -6.493  10.341  73.358  1.00  0.00     2.363 C  
HETATM   11  C   UNL     1      -8.006  14.370  68.725  1.00  0.00    -0.133 A  
HETATM   12  C   UNL     1      -7.260  11.708  71.265  1.00  0.00     5.069 C  
HETATM   13  O   UNL     1      -7.028   9.257  72.744  1.00  0.00    -0.176 OA 
HETATM   14  C   UNL     1      -7.330  13.036  70.615  1.00  0.00     3.173 A  
HETATM   15  O   UNL     1      -7.739  10.704  70.743  1.00  0.00     0.558 OA 
HETATM   16  O   UNL     1      -5.909  10.250  74.423  1.00  0.00    -0.226 OA 
HETATM   17  C   UNL     1      -7.924  13.133  69.357  1.00  0.00     0.777 A  
BRANCH   5  18
HETATM   18  C   UNL     1      -5.213  15.009  73.050  1.00  0.00     0.137 C  
HETATM   19  C   UNL     1      -5.635  16.429  73.378  1.00  0.00     3.225 C  
HETATM   20  C   UNL     1      -5.339  15.470  74.486  1.00  0.00     4.647 C  
ENDBRANCH   5  18
BRANCH   7  21
HETATM   21  N   UNL     1      -7.652  16.809  68.729  1.00  0.00    -0.229 NA 
HETATM   22  C   UNL     1      -6.452  17.505  68.253  1.00  0.00    -0.182 C  
HETATM   23  C   UNL     1      -6.870  18.437  67.090  1.00  0.00    -0.194 C  
HETATM   24  N   UNL     1      -7.913  19.419  67.462  1.00  0.00    -0.263 NA 
HETATM   25  C   UNL     1      -9.085  18.722  68.047  1.00  0.00    -0.299 C  
HETATM   26  H   UNL     1      -8.176  20.013  66.676  1.00  0.00     0.000 HD 
HETATM   27  C   UNL     1     -10.113  19.752  68.505  1.00  0.00    -0.555 C  
HETATM   28  C   UNL     1      -8.713  17.729  69.197  1.00  0.00     0.142 C  
ENDBRANCH   7  21
ENDBRANCH   2   3
TORSDOF 3
ENDMDL
MODEL      135
REMARK 921   NORMALIZED FREE ENERGY PREDICTED BY IDOCK:   43.84 KCAL/MOL
REMARK 922        TOTAL FREE ENERGY PREDICTED BY IDOCK:   51.50 KCAL/MOL
REMARK 923 INTER-LIGAND FREE ENERGY PREDICTED BY IDOCK:   42.02 KCAL/MOL
REMARK 924 INTRA-LIGAND FREE ENERGY PREDICTED BY IDOCK:    9.48 KCAL/MOL
REMARK 927      BINDING AFFINITY PREDICTED BY RF-SCORE:    0.00 PKD
ROOT
HETATM    1  C   UNL     1     -10.615   3.366  65.473  1.00  0.00     1.028 C  
HETATM    2  O   UNL     1      -9.683   2.879  66.447  1.00  0.00     0.067 OA 
ENDROOT
BRANCH   2   3
HETATM    3  C   UNL     1      -9.167   3.875  67.262  1.00  0.00    -0.176 A  
HETATM    4  C   UNL     1      -9.539   3.854  68.633  1.00  0.00    -0.111 A  
HETATM    5  N   UNL     1     -10.615   3.072  69.174  1.00  0.00     2.454 NA 
HETATM    6  C   UNL     1     -10.789   2.998  70.551  1.00  0.00     3.249 C  
HETATM    7  C   UNL     1      -8.234   4.824  66.746  1.00  0.00    -0.107 A  
HETATM    8  C   UNL     1     -10.083   3.656  71.471  1.00  0.00    -0.102 C  
HETATM    9  F   UNL     1      -6.624   6.499  67.284  1.00  0.00    -0.045 F  
HETATM   10  C   UNL     1     -10.401   3.453  72.902  1.00  0.00    -0.166 C  
HETATM   11  C   UNL     1      -7.550   5.612  67.686  1.00  0.00    -0.089 A  
HETATM   12  C   UNL     1      -9.014   4.554  70.977  1.00  0.00    -0.121 C  
HETATM   13  O   UNL     1      -9.635   4.176  73.756  1.00  0.00    -0.105 OA 
HETATM   14  C   UNL     1      -8.783   4.646  69.518  1.00  0.00    -0.111 A  
HETATM   15  O   UNL     1      -8.337   5.189  71.783  1.00  0.00    -0.114 OA 
HETATM   16  O   UNL     1     -11.315   2.753  73.298  1.00  0.00    -0.149 OA 
HETATM   17  C   UNL     1      -7.791   5.510  69.053  1.00  0.00    -0.091 A  
BRANCH   5  18
HETATM   18  C   UNL     1     -11.705   2.570  68.315  1.00  0.00    13.979 C  
HETATM   19  C   UNL     1     -11.871   2.943  66.853  1.00  0.00    13.622 C  
HETATM   20  C   UNL     1     -11.412   1.569  67.218  1.00  0.00     9.426 C  
ENDBRANCH   5  18
BRANCH   7  21
HETATM   21  N   UNL     1      -7.995   4.898  65.369  1.00  0.00    -0.098 NA 
HETATM   22  C   UNL     1      -8.628   5.936  64.548  1.00  0.00     0.065 C  
HETATM   23  C   UNL     1      -7.713   6.203  63.328  1.00  0.00    -0.097 C  
HETATM   24  N   UNL     1      -7.447   4.998  62.510  1.00  0.00    -0.042 NA 
HETATM   25  C   UNL     1      -6.910   3.910  63.363  1.00  0.00    -0.043 C  
HETATM   26  H   UNL     1      -6.835   5.201  61.720  1.00  0.00     0.000 HD 
HETATM   27  C   UNL     1      -6.724   2.649  62.524  1.00  0.00    -0.026 C  
HETATM   28  C   UNL     1      -7.772   3.630  64.638  1.00  0.00    -0.081 C  
ENDBRANCH   7  21
ENDBRANCH   2   3
TORSDOF 3
ENDMDL
MODEL      136
REMARK 921   NORMALIZED FREE ENERGY PREDICTED BY IDOCK:   49.40 KCAL/MOL
REMARK 922        TOTAL FREE ENERGY PREDICTED BY IDOCK:   58.04 KCAL/MOL
REMARK 923 INTER-LIGAND FREE ENERGY PREDICTED BY IDOCK:   53.80 KCAL/MOL
REMARK 924 INTRA-LIGAND FREE ENERGY PREDICTED BY IDOCK:    4.23 KCAL/MOL
REMARK 927      BINDING AFFINITY PREDICTED BY RF-SCORE:    0.00 PKD
ROOT
HETATM    1  C   UNL     1      -9.246  15.319  68.541  1.00  0.00    -0.200 C  
HETATM    2  O   UNL     1      -9.320  14.711  67.246  1.00  0.00    -0.196 OA 
ENDROOT
BRANCH   2   3
HETATM    3  C   UNL     1     -10.609  14.638  66.743  1.00  0.00    -0.288 A  
HETATM    4  C   UNL     1     -10.927  13.526  65.919  1.00  0.00    -0.278 A  
HETATM    5  N   UNL     1      -9.959  12.639  65.338  1.00  0.00    -0.251 NA 
HETATM    6  C   UNL     1     -10.383  11.488  64.684  1.00  0.00    -0.297 C  
HETATM    7  C   UNL     1     -11.589  15.606  67.118  1.00  0.00     0.117 A  
HETATM    8  C   UNL     1     -11.647  11.129  64.462  1.00  0.00     0.320 C  
HETATM    9  F   UNL     1     -13.912  16.147  67.156  1.00  0.00     5.094 F  
HETATM   10  C   UNL     1     -11.919   9.859  63.752  1.00  0.00     8.133 C  
HETATM   11  C   UNL     1     -12.925  15.308  66.800  1.00  0.00     2.428 A  
HETATM   12  C   UNL     1     -12.700  12.046  64.954  1.00  0.00     0.371 C  
HETATM   13  O   UNL     1     -13.235   9.591  63.564  1.00  0.00    10.484 OA 
HETATM   14  C   UNL     1     -12.290  13.274  65.674  1.00  0.00    -0.521 A  
HETATM   15  O   UNL     1     -13.882  11.766  64.770  1.00  0.00     1.331 OA 
HETATM   16  O   UNL     1     -11.048   9.136  63.304  1.00  0.00     7.239 OA 
HETATM   17  C   UNL     1     -13.282  14.149  66.117  1.00  0.00     0.755 A  
BRANCH   5  18
HETATM   18  C   UNL     1      -8.550  13.046  65.170  1.00  0.00     2.450 C  
HETATM   19  C   UNL     1      -8.083  14.087  64.169  1.00  0.00    12.239 C  
HETATM   20  C   UNL     1      -8.093  14.415  65.627  1.00  0.00     3.618 C  
ENDBRANCH   5  18
BRANCH   7  21
HETATM   21  N   UNL     1     -11.210  16.757  67.818  1.00  0.00    -0.130 NA 
HETATM   22  C   UNL     1     -11.886  17.141  69.062  1.00  0.00     1.534 C  
HETATM   23  C   UNL     1     -10.886  17.959  69.916  1.00  0.00     1.345 C  
HETATM   24  N   UNL     1     -10.363  19.161  69.228  1.00  0.00    -0.455 NA 
HETATM   25  C   UNL     1      -9.778  18.786  67.917  1.00  0.00    -0.329 C  
HETATM   26  H   UNL     1      -9.701  19.675  69.808  1.00  0.00     0.000 HD 
HETATM   27  C   UNL     1      -9.324  20.044  67.183  1.00  0.00    -0.502 C  
HETATM   28  C   UNL     1     -10.730  17.916  67.032  1.00  0.00    -0.209 C  
ENDBRANCH   7  21
ENDBRANCH   2   3
TORSDOF 3
ENDMDL
MODEL      137
REMARK 921   NORMALIZED FREE ENERGY PREDICTED BY IDOCK:   58.59 KCAL/MOL
REMARK 922        TOTAL FREE ENERGY PREDICTED BY IDOCK:   68.84 KCAL/MOL
REMARK 923 INTER-LIGAND FREE ENERGY PREDICTED BY IDOCK:   59.64 KCAL/MOL
REMARK 924 INTRA-LIGAND FREE ENERGY PREDICTED BY IDOCK:    9.20 KCAL/MOL
REMARK 927      BINDING AFFINITY PREDICTED BY RF-SCORE:    0.00 PKD
ROOT
HETATM    1  C   UNL     1      -7.664  11.656  67.439  1.00  0.00    -0.147 C  
HETATM    2  O   UNL     1      -8.221  12.710  66.644  1.00  0.00    -0.033 OA 
ENDROOT
BRANCH   2   3
HETATM    3  C   UNL     1      -8.953  13.628  67.380  1.00  0.00    -0.218 A  
HETATM    4  C   UNL     1      -9.761  14.548  66.659  1.00  0.00    -0.273 A  
HETATM    5  N   UNL     1      -9.659  14.789  65.248  1.00  0.00    -0.074 NA 
HETATM    6  C   UNL     1     -10.605  15.588  64.614  1.00  0.00    -0.054 C  
HETATM    7  C   UNL     1      -8.951  13.581  68.807  1.00  0.00     0.100 A  
HETATM    8  C   UNL     1     -11.604  16.243  65.204  1.00  0.00     0.336 C  
HETATM    9  F   UNL     1     -10.017  14.327  70.806  1.00  0.00     1.040 F  
HETATM   10  C   UNL     1     -12.528  17.045  64.372  1.00  0.00     4.309 C  
HETATM   11  C   UNL     1      -9.925  14.350  69.466  1.00  0.00     0.217 A  
HETATM   12  C   UNL     1     -11.714  16.112  66.675  1.00  0.00     0.879 C  
HETATM   13  O   UNL     1     -13.501  17.683  65.067  1.00  0.00    10.174 OA 
HETATM   14  C   UNL     1     -10.737  15.256  67.385  1.00  0.00    -0.293 A  
HETATM   15  O   UNL     1     -12.613  16.702  67.270  1.00  0.00     2.453 OA 
HETATM   16  O   UNL     1     -12.400  17.190  63.170  1.00  0.00     4.871 OA 
HETATM   17  C   UNL     1     -10.827  15.152  68.774  1.00  0.00    -0.247 A  
BRANCH   5  18
HETATM   18  C   UNL     1      -8.433  14.449  64.498  1.00  0.00     7.701 C  
HETATM   19  C   UNL     1      -7.037  14.858  64.928  1.00  0.00    13.908 C  
HETATM   20  C   UNL     1      -7.460  13.430  65.053  1.00  0.00     9.444 C  
ENDBRANCH   5  18
BRANCH   7  21
HETATM   21  N   UNL     1      -8.045  12.755  69.482  1.00  0.00     0.987 NA 
HETATM   22  C   UNL     1      -8.190  11.296  69.456  1.00  0.00     0.457 C  
HETATM   23  C   UNL     1      -6.785  10.674  69.652  1.00  0.00    -0.116 C  
HETATM   24  N   UNL     1      -6.118  11.097  70.904  1.00  0.00    -0.408 NA 
HETATM   25  C   UNL     1      -6.071  12.578  70.983  1.00  0.00     0.647 C  
HETATM   26  H   UNL     1      -5.193  10.680  71.003  1.00  0.00     0.000 HD 
HETATM   27  C   UNL     1      -5.461  12.998  72.316  1.00  0.00     0.292 C  
HETATM   28  C   UNL     1      -7.458  13.261  70.743  1.00  0.00     3.689 C  
ENDBRANCH   7  21
ENDBRANCH   2   3
TORSDOF 3
ENDMDL
MODEL      138
REMARK 921   NORMALIZED FREE ENERGY PREDICTED BY IDOCK:   67.48 KCAL/MOL
REMARK 922        TOTAL FREE ENERGY PREDICTED BY IDOCK:   79.28 KCAL/MOL
REMARK 923 INTER-LIGAND FREE ENERGY PREDICTED BY IDOCK:   68.74 KCAL/MOL
REMARK 924 INTRA-LIGAND FREE ENERGY PREDICTED BY IDOCK:   10.54 KCAL/MOL
REMARK 927      BINDING AFFINITY PREDICTED BY RF-SCORE:    0.00 PKD
ROOT
HETATM    1  C   UNL     1     -10.311  11.056  64.605  1.00  0.00    -0.345 C  
HETATM    2  O   UNL     1      -9.532  11.828  65.527  1.00  0.00    -0.227 OA 
ENDROOT
BRANCH   2   3
HETATM    3  C   UNL     1      -9.481  11.281  66.800  1.00  0.00    -0.179 A  
HETATM    4  C   UNL     1      -9.044  12.124  67.856  1.00  0.00    -0.185 A  
HETATM    5  N   UNL     1      -8.385  13.386  67.671  1.00  0.00    -0.165 NA 
HETATM    6  C   UNL     1      -8.146  14.206  68.769  1.00  0.00    -0.088 C  
HETATM    7  C   UNL     1      -9.936   9.948  67.035  1.00  0.00    -0.200 A  
HETATM    8  C   UNL     1      -8.407  13.914  70.042  1.00  0.00     1.821 C  
HETATM    9  F   UNL     1     -10.583   8.347  68.680  1.00  0.00    -0.225 F  
HETATM   10  C   UNL     1      -8.094  14.912  71.088  1.00  0.00     2.989 C  
HETATM   11  C   UNL     1     -10.117   9.570  68.375  1.00  0.00    -0.175 A  
HETATM   12  C   UNL     1      -9.004  12.586  70.315  1.00  0.00     5.035 C  
HETATM   13  O   UNL     1      -8.384  14.514  72.351  1.00  0.00     4.754 OA 
HETATM   14  C   UNL     1      -9.292  11.690  69.172  1.00  0.00     0.275 A  
HETATM   15  O   UNL     1      -9.258  12.262  71.473  1.00  0.00    12.614 OA 
HETATM   16  O   UNL     1      -7.555  15.980  70.862  1.00  0.00     2.198 OA 
HETATM   17  C   UNL     1      -9.832  10.430  69.432  1.00  0.00    -0.235 A  
BRANCH   5  18
HETATM   18  C   UNL     1      -7.708  13.720  66.403  1.00  0.00     1.654 C  
HETATM   19  C   UNL     1      -7.677  12.803  65.194  1.00  0.00     4.975 C  
HETATM   20  C   UNL     1      -8.520  14.037  65.166  1.00  0.00     4.140 C  
ENDBRANCH   5  18
BRANCH   7  21
HETATM   21  N   UNL     1     -10.232   9.105  65.957  1.00  0.00    -0.166 NA 
HETATM   22  C   UNL     1     -11.185   9.513  64.919  1.00  0.00     4.960 C  
HETATM   23  C   UNL     1     -10.806   8.778  63.610  1.00  0.00     9.750 C  
HETATM   24  N   UNL     1     -10.794   7.304  63.739  1.00  0.00    11.658 NA 
HETATM   25  C   UNL     1      -9.915   6.896  64.863  1.00  0.00     3.035 C  
HETATM   26  H   UNL     1     -10.533   6.846  62.866  1.00  0.00     0.000 HD 
HETATM   27  C   UNL     1      -9.982   5.383  65.039  1.00  0.00     0.616 C  
HETATM   28  C   UNL     1     -10.223   7.645  66.201  1.00  0.00     0.459 C  
ENDBRANCH   7  21
ENDBRANCH   2   3
TORSDOF 3
ENDMDL
