MODEL        1
REMARK 921   NORMALIZED FREE ENERGY PREDICTED BY IDOCK:   -6.28 KCAL/MOL
REMARK 922        TOTAL FREE ENERGY PREDICTED BY IDOCK:   -9.69 KCAL/MOL
REMARK 923 INTER-LIGAND FREE ENERGY PREDICTED BY IDOCK:   -8.49 KCAL/MOL
REMARK 924 INTRA-LIGAND FREE ENERGY PREDICTED BY IDOCK:   -1.20 KCAL/MOL
REMARK 927      BINDING AFFINITY PREDICTED BY RF-SCORE:    0.00 PKD
ROOT
HETATM    1  O   UNL     1     -10.847  19.511  65.245  1.00  0.00    -0.449 OA 
HETATM    2  H   UNL     1     -11.390  20.270  65.066  1.00  0.00     0.000 HD 
HETATM    3  C   UNL     1     -10.470  19.388  66.608  1.00  0.00    -0.469 C  
ENDROOT
BRANCH   3   4
HETATM    4  C   UNL     1      -9.585  18.153  66.900  1.00  0.00    -0.299 C  
BRANCH   4   5
HETATM    5  O   UNL     1      -9.463  17.214  65.817  1.00  0.00    -0.525 OA 
BRANCH   5   6
HETATM    6  C   UNL     1     -10.289  16.057  65.927  1.00  0.00    -0.368 C  
HETATM    7  C   UNL     1     -10.283  13.740  66.558  1.00  0.00    -0.284 C  
HETATM    8  O   UNL     1      -9.505  14.937  66.371  1.00  0.00    -0.266 OA 
HETATM    9  H   UNL     1     -12.148  16.648  63.241  1.00  0.00     0.000 HD 
HETATM   10  C   UNL     1     -10.988  13.314  65.261  1.00  0.00    -0.291 C  
HETATM   11  O   UNL     1     -11.740  16.842  64.077  1.00  0.00    -1.120 OA 
HETATM   12  O   UNL     1     -10.078  12.961  64.208  1.00  0.00    -0.564 OA 
HETATM   13  C   UNL     1     -11.836  14.486  64.750  1.00  0.00    -0.441 C  
HETATM   14  H   UNL     1     -10.514  12.698  63.405  1.00  0.00     0.000 HD 
HETATM   15  H   UNL     1     -13.039  14.829  63.231  1.00  0.00     0.000 HD 
HETATM   16  O   UNL     1     -12.513  14.104  63.547  1.00  0.00    -0.817 OA 
HETATM   17  C   UNL     1     -10.957  15.740  64.558  1.00  0.00    -0.189 C  
BRANCH   7  18
HETATM   18  C   UNL     1      -9.352  12.644  67.084  1.00  0.00    -0.210 C  
HETATM   19  O   UNL     1      -8.104  12.697  66.396  1.00  0.00    -0.366 OA 
HETATM   20  H   UNL     1      -7.526  12.018  66.722  1.00  0.00     0.000 HD 
ENDBRANCH   7  18
ENDBRANCH   5   6
ENDBRANCH   4   5
BRANCH   4  21
HETATM   21  C   UNL     1      -8.167  18.586  67.379  1.00  0.00    -0.251 C  
HETATM   22  H   UNL     1      -7.250  18.992  69.105  1.00  0.00     0.000 HD 
HETATM   23  O   UNL     1      -8.115  18.727  68.813  1.00  0.00    -0.332 OA 
BRANCH  21  24
HETATM   24  C   UNL     1      -7.710  19.918  66.774  1.00  0.00    -0.290 C  
HETATM   25  H   UNL     1      -6.621  21.452  67.356  1.00  0.00     0.000 HD 
HETATM   26  C   UNL     1      -6.864  19.754  65.522  1.00  0.00    -0.298 C  
HETATM   27  O   UNL     1      -6.904  20.627  67.731  1.00  0.00    -0.302 OA 
HETATM   28  O   UNL     1      -6.367  18.700  65.140  1.00  0.00    -0.354 OA 
ENDBRANCH  21  24
ENDBRANCH   4  21
ENDBRANCH   3   4
TORSDOF 6
ENDMDL
MODEL        2
REMARK 921   NORMALIZED FREE ENERGY PREDICTED BY IDOCK:   -6.26 KCAL/MOL
REMARK 922        TOTAL FREE ENERGY PREDICTED BY IDOCK:   -9.66 KCAL/MOL
REMARK 923 INTER-LIGAND FREE ENERGY PREDICTED BY IDOCK:   -8.76 KCAL/MOL
REMARK 924 INTRA-LIGAND FREE ENERGY PREDICTED BY IDOCK:   -0.90 KCAL/MOL
REMARK 927      BINDING AFFINITY PREDICTED BY RF-SCORE:    0.00 PKD
ROOT
HETATM    1  O   UNL     1     -11.179  16.979  64.583  1.00  0.00    -0.968 OA 
HETATM    2  H   UNL     1     -10.767  17.804  64.355  1.00  0.00     0.000 HD 
HETATM    3  C   UNL     1     -10.301  16.055  65.205  1.00  0.00    -0.290 C  
ENDROOT
BRANCH   3   4
HETATM    4  C   UNL     1     -10.972  14.712  65.577  1.00  0.00    -0.340 C  
BRANCH   4   5
HETATM    5  O   UNL     1     -11.974  14.789  66.608  1.00  0.00    -0.314 OA 
BRANCH   5   6
HETATM    6  C   UNL     1     -11.506  14.507  67.925  1.00  0.00    -0.325 C  
HETATM    7  C   UNL     1     -11.589  12.880  69.690  1.00  0.00    -0.248 C  
HETATM    8  O   UNL     1     -12.059  13.261  68.383  1.00  0.00    -0.333 OA 
HETATM    9  H   UNL     1     -11.605  17.627  69.053  1.00  0.00     0.000 HD 
HETATM   10  C   UNL     1     -11.928  13.943  70.746  1.00  0.00    -0.272 C  
HETATM   11  O   UNL     1     -11.368  16.922  68.462  1.00  0.00    -0.221 OA 
HETATM   12  O   UNL     1     -13.339  14.126  70.938  1.00  0.00    -0.293 OA 
HETATM   13  C   UNL     1     -11.355  15.292  70.293  1.00  0.00    -0.292 C  
HETATM   14  H   UNL     1     -13.548  14.783  71.591  1.00  0.00     0.000 HD 
HETATM   15  H   UNL     1     -11.294  17.130  70.992  1.00  0.00     0.000 HD 
HETATM   16  O   UNL     1     -11.648  16.295  71.272  1.00  0.00    -0.437 OA 
HETATM   17  C   UNL     1     -11.895  15.659  68.894  1.00  0.00    -0.352 C  
BRANCH   7  18
HETATM   18  C   UNL     1     -12.200  11.520  70.037  1.00  0.00    -0.278 C  
HETATM   19  O   UNL     1     -12.633  10.865  68.847  1.00  0.00    -0.698 OA 
HETATM   20  H   UNL     1     -13.012  10.021  69.062  1.00  0.00     0.000 HD 
ENDBRANCH   7  18
ENDBRANCH   5   6
ENDBRANCH   4   5
BRANCH   4  21
HETATM   21  C   UNL     1     -11.573  14.022  64.315  1.00  0.00    -0.329 C  
HETATM   22  H   UNL     1     -13.141  14.267  63.105  1.00  0.00     0.000 HD 
HETATM   23  O   UNL     1     -12.775  14.687  63.874  1.00  0.00    -0.788 OA 
BRANCH  21  24
HETATM   24  C   UNL     1     -11.928  12.550  64.548  1.00  0.00    -0.404 C  
HETATM   25  H   UNL     1     -13.383  11.332  64.025  1.00  0.00     0.000 HD 
HETATM   26  C   UNL     1     -10.885  11.585  64.005  1.00  0.00    -0.387 C  
HETATM   27  O   UNL     1     -13.164  12.244  63.881  1.00  0.00    -0.766 OA 
HETATM   28  O   UNL     1      -9.974  11.888  63.242  1.00  0.00    -0.426 OA 
ENDBRANCH  21  24
ENDBRANCH   4  21
ENDBRANCH   3   4
TORSDOF 6
ENDMDL
MODEL        3
REMARK 921   NORMALIZED FREE ENERGY PREDICTED BY IDOCK:   -6.18 KCAL/MOL
REMARK 922        TOTAL FREE ENERGY PREDICTED BY IDOCK:   -9.55 KCAL/MOL
REMARK 923 INTER-LIGAND FREE ENERGY PREDICTED BY IDOCK:   -8.41 KCAL/MOL
REMARK 924 INTRA-LIGAND FREE ENERGY PREDICTED BY IDOCK:   -1.14 KCAL/MOL
REMARK 927      BINDING AFFINITY PREDICTED BY RF-SCORE:    0.00 PKD
ROOT
HETATM    1  O   UNL     1      -9.097  20.225  65.910  1.00  0.00    -0.584 OA 
HETATM    2  H   UNL     1      -9.036  21.110  65.569  1.00  0.00     0.000 HD 
HETATM    3  C   UNL     1     -10.423  19.722  65.957  1.00  0.00    -0.506 C  
ENDROOT
BRANCH   3   4
HETATM    4  C   UNL     1     -10.523  18.282  66.511  1.00  0.00    -0.356 C  
BRANCH   4   5
HETATM    5  O   UNL     1     -10.034  17.250  65.635  1.00  0.00    -0.553 OA 
BRANCH   5   6
HETATM    6  C   UNL     1     -10.657  15.978  65.796  1.00  0.00    -0.353 C  
HETATM    7  C   UNL     1     -10.282  13.733  66.564  1.00  0.00    -0.284 C  
HETATM    8  O   UNL     1      -9.710  15.033  66.323  1.00  0.00    -0.256 OA 
HETATM    9  H   UNL     1     -12.504  16.097  63.040  1.00  0.00     0.000 HD 
HETATM   10  C   UNL     1     -10.864  13.124  65.280  1.00  0.00    -0.297 C  
HETATM   11  O   UNL     1     -12.160  16.402  63.872  1.00  0.00    -0.977 OA 
HETATM   12  O   UNL     1      -9.875  12.873  64.269  1.00  0.00    -0.608 OA 
HETATM   13  C   UNL     1     -11.881  14.105  64.682  1.00  0.00    -0.431 C  
HETATM   14  H   UNL     1     -10.235  12.496  63.474  1.00  0.00     0.000 HD 
HETATM   15  H   UNL     1     -13.076  14.155  63.119  1.00  0.00     0.000 HD 
HETATM   16  O   UNL     1     -12.446  13.548  63.490  1.00  0.00    -0.745 OA 
HETATM   17  C   UNL     1     -11.219  15.477  64.435  1.00  0.00    -0.219 C  
BRANCH   7  18
HETATM   18  C   UNL     1      -9.197  12.842  67.174  1.00  0.00    -0.225 C  
HETATM   19  O   UNL     1      -8.997  13.189  68.542  1.00  0.00    -0.311 OA 
HETATM   20  H   UNL     1      -8.324  12.636  68.920  1.00  0.00     0.000 HD 
ENDBRANCH   7  18
ENDBRANCH   5   6
ENDBRANCH   4   5
BRANCH   4  21
HETATM   21  C   UNL     1      -9.817  18.169  67.897  1.00  0.00    -0.313 C  
HETATM   22  H   UNL     1      -9.575  19.295  69.527  1.00  0.00     0.000 HD 
HETATM   23  O   UNL     1     -10.006  19.364  68.682  1.00  0.00    -0.400 OA 
BRANCH  21  24
HETATM   24  C   UNL     1      -8.308  17.932  67.784  1.00  0.00    -0.241 C  
HETATM   25  H   UNL     1      -6.669  18.888  68.309  1.00  0.00     0.000 HD 
HETATM   26  C   UNL     1      -7.839  16.674  68.497  1.00  0.00    -0.218 C  
HETATM   27  O   UNL     1      -7.604  19.035  68.379  1.00  0.00    -0.283 OA 
HETATM   28  O   UNL     1      -8.508  16.025  69.295  1.00  0.00    -0.251 OA 
ENDBRANCH  21  24
ENDBRANCH   4  21
ENDBRANCH   3   4
TORSDOF 6
ENDMDL
MODEL        4
REMARK 921   NORMALIZED FREE ENERGY PREDICTED BY IDOCK:   -6.08 KCAL/MOL
REMARK 922        TOTAL FREE ENERGY PREDICTED BY IDOCK:   -9.42 KCAL/MOL
REMARK 923 INTER-LIGAND FREE ENERGY PREDICTED BY IDOCK:   -8.56 KCAL/MOL
REMARK 924 INTRA-LIGAND FREE ENERGY PREDICTED BY IDOCK:   -0.86 KCAL/MOL
REMARK 927      BINDING AFFINITY PREDICTED BY RF-SCORE:    0.00 PKD
ROOT
HETATM    1  O   UNL     1     -11.780  16.263  63.699  1.00  0.00    -1.447 OA 
HETATM    2  H   UNL     1     -12.501  16.846  63.490  1.00  0.00     0.000 HD 
HETATM    3  C   UNL     1     -12.186  15.062  64.337  1.00  0.00    -0.337 C  
ENDROOT
BRANCH   3   4
HETATM    4  C   UNL     1     -11.013  14.111  64.677  1.00  0.00    -0.382 C  
BRANCH   4   5
HETATM    5  O   UNL     1     -10.243  14.475  65.837  1.00  0.00    -0.292 OA 
BRANCH   5   6
HETATM    6  C   UNL     1     -10.716  15.622  66.539  1.00  0.00    -0.293 C  
HETATM    7  C   UNL     1     -10.422  17.994  66.773  1.00  0.00    -0.328 C  
HETATM    8  O   UNL     1      -9.965  16.782  66.143  1.00  0.00    -0.304 OA 
HETATM    9  H   UNL     1     -11.254  14.107  69.444  1.00  0.00     0.000 HD 
HETATM   10  C   UNL     1     -10.340  17.902  68.303  1.00  0.00    -0.383 C  
HETATM   11  O   UNL     1     -11.326  14.242  68.506  1.00  0.00    -0.254 OA 
HETATM   12  O   UNL     1      -8.999  17.755  68.795  1.00  0.00    -0.277 OA 
HETATM   13  C   UNL     1     -11.129  16.672  68.769  1.00  0.00    -0.270 C  
HETATM   14  H   UNL     1      -8.948  17.698  69.742  1.00  0.00     0.000 HD 
HETATM   15  H   UNL     1     -11.566  15.815  70.486  1.00  0.00     0.000 HD 
HETATM   16  O   UNL     1     -11.077  16.577  70.197  1.00  0.00    -0.348 OA 
HETATM   17  C   UNL     1     -10.597  15.400  68.074  1.00  0.00    -0.263 C  
BRANCH   7  18
HETATM   18  C   UNL     1      -9.587  19.156  66.228  1.00  0.00    -0.348 C  
HETATM   19  O   UNL     1      -8.293  18.691  65.854  1.00  0.00    -0.494 OA 
HETATM   20  H   UNL     1      -7.775  19.411  65.515  1.00  0.00     0.000 HD 
ENDBRANCH   7  18
ENDBRANCH   5   6
ENDBRANCH   4   5
BRANCH   4  21
HETATM   21  C   UNL     1     -11.513  12.642  64.821  1.00  0.00    -0.321 C  
HETATM   22  H   UNL     1     -13.253  11.688  65.037  1.00  0.00     0.000 HD 
HETATM   23  O   UNL     1     -12.948  12.584  64.948  1.00  0.00    -0.821 OA 
BRANCH  21  24
HETATM   24  C   UNL     1     -10.919  11.923  66.037  1.00  0.00    -0.309 C  
HETATM   25  H   UNL     1     -11.613  11.043  67.656  1.00  0.00     0.000 HD 
HETATM   26  C   UNL     1     -10.114  10.685  65.673  1.00  0.00    -0.272 C  
HETATM   27  O   UNL     1     -11.981  11.489  66.902  1.00  0.00    -0.516 OA 
HETATM   28  O   UNL     1     -10.117  10.141  64.574  1.00  0.00    -0.304 OA 
ENDBRANCH  21  24
ENDBRANCH   4  21
ENDBRANCH   3   4
TORSDOF 6
ENDMDL
MODEL        5
REMARK 921   NORMALIZED FREE ENERGY PREDICTED BY IDOCK:   -6.03 KCAL/MOL
REMARK 922        TOTAL FREE ENERGY PREDICTED BY IDOCK:   -9.34 KCAL/MOL
REMARK 923 INTER-LIGAND FREE ENERGY PREDICTED BY IDOCK:   -8.67 KCAL/MOL
REMARK 924 INTRA-LIGAND FREE ENERGY PREDICTED BY IDOCK:   -0.67 KCAL/MOL
REMARK 927      BINDING AFFINITY PREDICTED BY RF-SCORE:    0.00 PKD
ROOT
HETATM    1  O   UNL     1     -11.766  16.240  63.598  1.00  0.00    -1.447 OA 
HETATM    2  H   UNL     1     -12.597  16.657  63.404  1.00  0.00     0.000 HD 
HETATM    3  C   UNL     1     -11.884  15.086  64.416  1.00  0.00    -0.339 C  
ENDROOT
BRANCH   3   4
HETATM    4  C   UNL     1     -10.530  14.407  64.733  1.00  0.00    -0.367 C  
BRANCH   4   5
HETATM    5  O   UNL     1      -9.692  15.112  65.667  1.00  0.00    -0.336 OA 
BRANCH   5   6
HETATM    6  C   UNL     1     -10.348  16.136  66.412  1.00  0.00    -0.315 C  
HETATM    7  C   UNL     1     -10.524  18.517  66.670  1.00  0.00    -0.398 C  
HETATM    8  O   UNL     1      -9.867  17.426  65.998  1.00  0.00    -0.448 OA 
HETATM    9  H   UNL     1     -10.418  14.525  69.313  1.00  0.00     0.000 HD 
HETATM   10  C   UNL     1     -10.345  18.434  68.193  1.00  0.00    -0.366 C  
HETATM   11  O   UNL     1     -10.565  14.649  68.383  1.00  0.00    -0.232 OA 
HETATM   12  O   UNL     1      -8.978  18.556  68.613  1.00  0.00    -0.322 OA 
HETATM   13  C   UNL     1     -10.846  17.067  68.677  1.00  0.00    -0.284 C  
HETATM   14  H   UNL     1      -8.867  18.504  69.556  1.00  0.00     0.000 HD 
HETATM   15  H   UNL     1     -11.011  16.129  70.399  1.00  0.00     0.000 HD 
HETATM   16  O   UNL     1     -10.700  16.975  70.099  1.00  0.00    -0.082 OA 
HETATM   17  C   UNL     1     -10.107  15.933  67.935  1.00  0.00    -0.235 C  
BRANCH   7  18
HETATM   18  C   UNL     1      -9.969  19.827  66.103  1.00  0.00    -0.473 C  
HETATM   19  O   UNL     1      -9.740  20.754  67.161  1.00  0.00    -0.609 OA 
HETATM   20  H   UNL     1      -9.396  21.567  66.810  1.00  0.00     0.000 HD 
ENDBRANCH   7  18
ENDBRANCH   5   6
ENDBRANCH   4   5
BRANCH   4  21
HETATM   21  C   UNL     1     -10.744  12.944  65.225  1.00  0.00    -0.296 C  
HETATM   22  H   UNL     1      -9.782  11.610  66.355  1.00  0.00     0.000 HD 
HETATM   23  O   UNL     1      -9.651  12.502  66.056  1.00  0.00    -0.248 OA 
BRANCH  21  24
HETATM   24  C   UNL     1     -10.878  11.939  64.076  1.00  0.00    -0.379 C  
HETATM   25  H   UNL     1     -10.473  10.033  63.792  1.00  0.00     0.000 HD 
HETATM   26  C   UNL     1     -12.313  11.733  63.617  1.00  0.00    -0.379 C  
HETATM   27  O   UNL     1     -10.390  10.656  64.504  1.00  0.00    -0.355 OA 
HETATM   28  O   UNL     1     -13.308  12.112  64.226  1.00  0.00    -0.761 OA 
ENDBRANCH  21  24
ENDBRANCH   4  21
ENDBRANCH   3   4
TORSDOF 6
ENDMDL
MODEL        6
REMARK 921   NORMALIZED FREE ENERGY PREDICTED BY IDOCK:   -6.01 KCAL/MOL
REMARK 922        TOTAL FREE ENERGY PREDICTED BY IDOCK:   -9.31 KCAL/MOL
REMARK 923 INTER-LIGAND FREE ENERGY PREDICTED BY IDOCK:   -7.97 KCAL/MOL
REMARK 924 INTRA-LIGAND FREE ENERGY PREDICTED BY IDOCK:   -1.35 KCAL/MOL
REMARK 927      BINDING AFFINITY PREDICTED BY RF-SCORE:    0.00 PKD
ROOT
HETATM    1  O   UNL     1     -12.585  14.354  68.403  1.00  0.00    -0.521 OA 
HETATM    2  H   UNL     1     -12.650  15.143  68.929  1.00  0.00     0.000 HD 
HETATM    3  C   UNL     1     -11.470  14.342  67.526  1.00  0.00    -0.349 C  
ENDROOT
BRANCH   3   4
HETATM    4  C   UNL     1     -11.364  13.057  66.671  1.00  0.00    -0.325 C  
BRANCH   4   5
HETATM    5  O   UNL     1     -11.946  11.879  67.257  1.00  0.00    -0.605 OA 
BRANCH   5   6
HETATM    6  C   UNL     1     -11.072  11.130  68.099  1.00  0.00    -0.264 C  
HETATM    7  C   UNL     1      -9.719   9.148  68.193  1.00  0.00    -0.154 C  
HETATM    8  O   UNL     1     -10.650   9.933  67.424  1.00  0.00    -0.253 OA 
HETATM    9  H   UNL     1     -12.666  11.729  70.948  1.00  0.00     0.000 HD 
HETATM   10  C   UNL     1     -10.318   8.721  69.541  1.00  0.00    -0.213 C  
HETATM   11  O   UNL     1     -12.231  11.946  70.132  1.00  0.00    -0.288 OA 
HETATM   12  O   UNL     1     -11.457   7.857  69.411  1.00  0.00    -0.373 OA 
HETATM   13  C   UNL     1     -10.784   9.973  70.295  1.00  0.00    -0.309 C  
HETATM   14  H   UNL     1     -11.828   7.593  70.245  1.00  0.00     0.000 HD 
HETATM   15  H   UNL     1     -11.622  10.372  72.031  1.00  0.00     0.000 HD 
HETATM   16  O   UNL     1     -11.334   9.597  71.563  1.00  0.00    -0.381 OA 
HETATM   17  C   UNL     1     -11.785  10.774  69.434  1.00  0.00    -0.306 C  
BRANCH   7  18
HETATM   18  C   UNL     1      -9.304   7.940  67.348  1.00  0.00    -0.141 C  
HETATM   19  O   UNL     1     -10.435   7.423  66.652  1.00  0.00    -0.464 OA 
HETATM   20  H   UNL     1     -10.178   6.674  66.128  1.00  0.00     0.000 HD 
ENDBRANCH   7  18
ENDBRANCH   5   6
ENDBRANCH   4   5
BRANCH   4  21
HETATM   21  C   UNL     1     -11.962  13.285  65.250  1.00  0.00    -0.388 C  
HETATM   22  H   UNL     1     -13.624  14.051  64.452  1.00  0.00     0.000 HD 
HETATM   23  O   UNL     1     -13.259  13.912  65.319  1.00  0.00    -0.774 OA 
BRANCH  21  24
HETATM   24  C   UNL     1     -12.127  11.986  64.454  1.00  0.00    -0.286 C  
HETATM   25  H   UNL     1     -13.352  11.304  63.072  1.00  0.00     0.000 HD 
HETATM   26  C   UNL     1     -10.920  11.648  63.593  1.00  0.00    -0.431 C  
HETATM   27  O   UNL     1     -13.250  12.109  63.565  1.00  0.00    -0.744 OA 
HETATM   28  O   UNL     1     -10.000  12.418  63.336  1.00  0.00    -0.398 OA 
ENDBRANCH  21  24
ENDBRANCH   4  21
ENDBRANCH   3   4
TORSDOF 6
ENDMDL
MODEL        7
REMARK 921   NORMALIZED FREE ENERGY PREDICTED BY IDOCK:   -5.95 KCAL/MOL
REMARK 922        TOTAL FREE ENERGY PREDICTED BY IDOCK:   -9.24 KCAL/MOL
REMARK 923 INTER-LIGAND FREE ENERGY PREDICTED BY IDOCK:   -8.12 KCAL/MOL
REMARK 924 INTRA-LIGAND FREE ENERGY PREDICTED BY IDOCK:   -1.12 KCAL/MOL
REMARK 927      BINDING AFFINITY PREDICTED BY RF-SCORE:    0.00 PKD
ROOT
HETATM    1  O   UNL     1     -11.745  16.319  63.650  1.00  0.00    -1.447 OA 
HETATM    2  H   UNL     1     -12.470  16.896  63.439  1.00  0.00     0.000 HD 
HETATM    3  C   UNL     1     -11.379  16.339  65.020  1.00  0.00    -0.076 C  
ENDROOT
BRANCH   3   4
HETATM    4  C   UNL     1     -10.199  15.399  65.363  1.00  0.00    -0.377 C  
BRANCH   4   5
HETATM    5  O   UNL     1      -9.224  15.942  66.272  1.00  0.00    -0.278 OA 
BRANCH   5   6
HETATM    6  C   UNL     1      -9.334  17.343  66.507  1.00  0.00    -0.270 C  
HETATM    7  C   UNL     1      -8.209  19.442  66.194  1.00  0.00    -0.311 C  
HETATM    8  O   UNL     1      -8.149  18.012  66.040  1.00  0.00    -0.483 OA 
HETATM    9  H   UNL     1     -10.848  17.129  69.453  1.00  0.00     0.000 HD 
HETATM   10  C   UNL     1      -8.407  19.845  67.663  1.00  0.00    -0.321 C  
HETATM   11  O   UNL     1     -10.717  16.960  68.528  1.00  0.00    -0.340 OA 
HETATM   12  O   UNL     1      -7.314  19.461  68.512  1.00  0.00    -0.304 OA 
HETATM   13  C   UNL     1      -9.663  19.150  68.203  1.00  0.00    -0.361 C  
HETATM   14  H   UNL     1      -7.437  19.711  69.421  1.00  0.00     0.000 HD 
HETATM   15  H   UNL     1     -10.652  19.094  69.903  1.00  0.00     0.000 HD 
HETATM   16  O   UNL     1      -9.874  19.524  69.569  1.00  0.00    -0.307 OA 
HETATM   17  C   UNL     1      -9.548  17.621  68.022  1.00  0.00    -0.289 C  
BRANCH   7  18
HETATM   18  C   UNL     1      -6.924  20.037  65.611  1.00  0.00    -0.309 C  
HETATM   19  O   UNL     1      -6.713  21.345  66.134  1.00  0.00    -0.568 OA 
HETATM   20  H   UNL     1      -5.916  21.714  65.772  1.00  0.00     0.000 HD 
ENDBRANCH   7  18
ENDBRANCH   5   6
ENDBRANCH   4   5
BRANCH   4  21
HETATM   21  C   UNL     1     -10.717  14.033  65.907  1.00  0.00    -0.293 C  
HETATM   22  H   UNL     1     -10.535  12.939  67.567  1.00  0.00     0.000 HD 
HETATM   23  O   UNL     1     -10.220  13.772  67.236  1.00  0.00    -0.249 OA 
BRANCH  21  24
HETATM   24  C   UNL     1     -10.311  12.845  65.028  1.00  0.00    -0.315 C  
HETATM   25  H   UNL     1     -10.266  10.885  65.208  1.00  0.00     0.000 HD 
HETATM   26  C   UNL     1     -11.120  12.739  63.745  1.00  0.00    -0.427 C  
HETATM   27  O   UNL     1     -10.518  11.621  65.753  1.00  0.00    -0.246 OA 
HETATM   28  O   UNL     1     -12.153  13.356  63.511  1.00  0.00    -0.549 OA 
ENDBRANCH  21  24
ENDBRANCH   4  21
ENDBRANCH   3   4
TORSDOF 6
ENDMDL
MODEL        8
REMARK 921   NORMALIZED FREE ENERGY PREDICTED BY IDOCK:   -5.94 KCAL/MOL
REMARK 922        TOTAL FREE ENERGY PREDICTED BY IDOCK:   -9.22 KCAL/MOL
REMARK 923 INTER-LIGAND FREE ENERGY PREDICTED BY IDOCK:   -8.11 KCAL/MOL
REMARK 924 INTRA-LIGAND FREE ENERGY PREDICTED BY IDOCK:   -1.11 KCAL/MOL
REMARK 927      BINDING AFFINITY PREDICTED BY RF-SCORE:    0.00 PKD
ROOT
HETATM    1  O   UNL     1     -11.450  16.357  63.894  1.00  0.00    -1.569 OA 
HETATM    2  H   UNL     1     -11.973  16.842  63.266  1.00  0.00     0.000 HD 
HETATM    3  C   UNL     1     -12.106  15.213  64.420  1.00  0.00    -0.300 C  
ENDROOT
BRANCH   3   4
HETATM    4  C   UNL     1     -11.255  14.423  65.442  1.00  0.00    -0.335 C  
BRANCH   4   5
HETATM    5  O   UNL     1     -11.486  14.757  66.823  1.00  0.00    -0.351 OA 
BRANCH   5   6
HETATM    6  C   UNL     1     -10.673  15.812  67.332  1.00  0.00    -0.317 C  
HETATM    7  C   UNL     1     -10.213  18.160  67.121  1.00  0.00    -0.367 C  
HETATM    8  O   UNL     1     -10.959  17.032  66.626  1.00  0.00    -0.040 OA 
HETATM    9  H   UNL     1      -7.927  14.005  67.792  1.00  0.00     0.000 HD 
HETATM   10  C   UNL     1      -8.699  17.924  67.024  1.00  0.00    -0.245 C  
HETATM   11  O   UNL     1      -8.847  14.228  67.876  1.00  0.00    -0.164 OA 
HETATM   12  O   UNL     1      -8.230  17.779  65.674  1.00  0.00    -0.490 OA 
HETATM   13  C   UNL     1      -8.350  16.626  67.764  1.00  0.00    -0.178 C  
HETATM   14  H   UNL     1      -7.293  17.632  65.614  1.00  0.00     0.000 HD 
HETATM   15  H   UNL     1      -6.723  15.592  68.157  1.00  0.00     0.000 HD 
HETATM   16  O   UNL     1      -6.939  16.395  67.698  1.00  0.00    -0.116 OA 
HETATM   17  C   UNL     1      -9.168  15.448  67.193  1.00  0.00    -0.213 C  
BRANCH   7  18
HETATM   18  C   UNL     1     -10.646  19.399  66.333  1.00  0.00    -0.463 C  
HETATM   19  O   UNL     1     -10.991  19.030  65.000  1.00  0.00    -0.440 OA 
HETATM   20  H   UNL     1     -11.260  19.799  64.511  1.00  0.00     0.000 HD 
ENDBRANCH   7  18
ENDBRANCH   5   6
ENDBRANCH   4   5
BRANCH   4  21
HETATM   21  C   UNL     1     -11.427  12.887  65.240  1.00  0.00    -0.313 C  
HETATM   22  H   UNL     1     -12.914  11.600  64.902  1.00  0.00     0.000 HD 
HETATM   23  O   UNL     1     -12.810  12.536  65.025  1.00  0.00    -0.742 OA 
BRANCH  21  24
HETATM   24  C   UNL     1     -10.929  12.065  66.433  1.00  0.00    -0.296 C  
HETATM   25  H   UNL     1     -11.737  11.174  67.991  1.00  0.00     0.000 HD 
HETATM   26  C   UNL     1     -10.221  10.782  66.028  1.00  0.00    -0.251 C  
HETATM   27  O   UNL     1     -12.047  11.683  67.251  1.00  0.00    -0.595 OA 
HETATM   28  O   UNL     1     -10.240  10.291  64.904  1.00  0.00    -0.327 OA 
ENDBRANCH  21  24
ENDBRANCH   4  21
ENDBRANCH   3   4
TORSDOF 6
ENDMDL
MODEL        9
REMARK 921   NORMALIZED FREE ENERGY PREDICTED BY IDOCK:   -5.91 KCAL/MOL
REMARK 922        TOTAL FREE ENERGY PREDICTED BY IDOCK:   -9.19 KCAL/MOL
REMARK 923 INTER-LIGAND FREE ENERGY PREDICTED BY IDOCK:   -8.05 KCAL/MOL
REMARK 924 INTRA-LIGAND FREE ENERGY PREDICTED BY IDOCK:   -1.14 KCAL/MOL
REMARK 927      BINDING AFFINITY PREDICTED BY RF-SCORE:    0.00 PKD
ROOT
HETATM    1  O   UNL     1     -11.101  15.940  68.927  1.00  0.00    -0.274 OA 
HETATM    2  H   UNL     1     -11.717  15.594  69.563  1.00  0.00     0.000 HD 
HETATM    3  C   UNL     1     -11.302  15.445  67.612  1.00  0.00    -0.290 C  
ENDROOT
BRANCH   3   4
HETATM    4  C   UNL     1     -10.301  16.008  66.576  1.00  0.00    -0.299 C  
BRANCH   4   5
HETATM    5  O   UNL     1     -10.194  15.257  65.352  1.00  0.00    -0.350 OA 
BRANCH   5   6
HETATM    6  C   UNL     1     -10.836  13.984  65.369  1.00  0.00    -0.328 C  
HETATM    7  C   UNL     1     -10.423  11.621  65.493  1.00  0.00    -0.273 C  
HETATM    8  O   UNL     1      -9.849  12.940  65.419  1.00  0.00    -0.224 OA 
HETATM    9  H   UNL     1     -13.276  14.748  63.252  1.00  0.00     0.000 HD 
HETATM   10  C   UNL     1     -11.329  11.331  64.288  1.00  0.00    -0.045 C  
HETATM   11  O   UNL     1     -12.727  14.850  64.020  1.00  0.00    -0.792 OA 
HETATM   12  O   UNL     1     -10.627  11.320  63.036  1.00  0.00    -0.685 OA 
HETATM   13  C   UNL     1     -12.399  12.426  64.196  1.00  0.00    -0.467 C  
HETATM   14  H   UNL     1     -11.187  11.141  62.289  1.00  0.00     0.000 HD 
HETATM   15  H   UNL     1     -13.927  12.843  63.028  1.00  0.00     0.000 HD 
HETATM   16  O   UNL     1     -13.264  12.165  63.085  1.00  0.00    -0.535 OA 
HETATM   17  C   UNL     1     -11.735  13.817  64.111  1.00  0.00    -0.364 C  
BRANCH   7  18
HETATM   18  C   UNL     1      -9.278  10.610  65.600  1.00  0.00    -0.196 C  
HETATM   19  O   UNL     1      -9.745   9.310  65.249  1.00  0.00    -0.450 OA 
HETATM   20  H   UNL     1      -9.035   8.683  65.315  1.00  0.00     0.000 HD 
ENDBRANCH   7  18
ENDBRANCH   5   6
ENDBRANCH   4   5
BRANCH   4  21
HETATM   21  C   UNL     1     -10.618  17.498  66.249  1.00  0.00    -0.198 C  
HETATM   22  H   UNL     1     -11.177  18.576  64.665  1.00  0.00     0.000 HD 
HETATM   23  O   UNL     1     -10.984  17.667  64.864  1.00  0.00    -0.886 OA 
BRANCH  21  24
HETATM   24  C   UNL     1      -9.439  18.437  66.525  1.00  0.00    -0.317 C  
HETATM   25  H   UNL     1      -8.887  20.241  65.962  1.00  0.00     0.000 HD 
HETATM   26  C   UNL     1      -9.303  18.820  67.990  1.00  0.00    -0.306 C  
HETATM   27  O   UNL     1      -9.618  19.659  65.790  1.00  0.00    -0.377 OA 
HETATM   28  O   UNL     1     -10.157  18.631  68.851  1.00  0.00    -0.391 OA 
ENDBRANCH  21  24
ENDBRANCH   4  21
ENDBRANCH   3   4
TORSDOF 6
ENDMDL
MODEL       10
REMARK 921   NORMALIZED FREE ENERGY PREDICTED BY IDOCK:   -5.88 KCAL/MOL
REMARK 922        TOTAL FREE ENERGY PREDICTED BY IDOCK:   -9.15 KCAL/MOL
REMARK 923 INTER-LIGAND FREE ENERGY PREDICTED BY IDOCK:   -8.34 KCAL/MOL
REMARK 924 INTRA-LIGAND FREE ENERGY PREDICTED BY IDOCK:   -0.81 KCAL/MOL
REMARK 927      BINDING AFFINITY PREDICTED BY RF-SCORE:    0.00 PKD
ROOT
HETATM    1  O   UNL     1     -12.401  14.180  67.790  1.00  0.00    -0.565 OA 
HETATM    2  H   UNL     1     -12.614  13.632  68.536  1.00  0.00     0.000 HD 
HETATM    3  C   UNL     1     -11.441  13.605  66.917  1.00  0.00    -0.345 C  
ENDROOT
BRANCH   3   4
HETATM    4  C   UNL     1     -11.093  14.496  65.701  1.00  0.00    -0.327 C  
BRANCH   4   5
HETATM    5  O   UNL     1      -9.729  14.952  65.642  1.00  0.00    -0.335 OA 
BRANCH   5   6
HETATM    6  C   UNL     1      -9.431  16.066  66.480  1.00  0.00    -0.271 C  
HETATM    7  C   UNL     1      -9.810  18.421  66.760  1.00  0.00    -0.342 C  
HETATM    8  O   UNL     1     -10.024  17.258  65.938  1.00  0.00    -0.490 OA 
HETATM    9  H   UNL     1      -6.321  15.173  67.225  1.00  0.00     0.000 HD 
HETATM   10  C   UNL     1      -8.315  18.708  66.957  1.00  0.00    -0.269 C  
HETATM   11  O   UNL     1      -7.262  15.066  67.143  1.00  0.00    -0.177 OA 
HETATM   12  O   UNL     1      -7.631  19.031  65.736  1.00  0.00    -0.439 OA 
HETATM   13  C   UNL     1      -7.641  17.456  67.534  1.00  0.00    -0.187 C  
HETATM   14  H   UNL     1      -6.705  19.209  65.858  1.00  0.00     0.000 HD 
HETATM   15  H   UNL     1      -5.829  16.934  68.096  1.00  0.00     0.000 HD 
HETATM   16  O   UNL     1      -6.246  17.709  67.738  1.00  0.00    -0.163 OA 
HETATM   17  C   UNL     1      -7.891  16.242  66.614  1.00  0.00    -0.275 C  
BRANCH   7  18
HETATM   18  C   UNL     1     -10.535  19.603  66.110  1.00  0.00    -0.524 C  
HETATM   19  O   UNL     1      -9.781  20.797  66.297  1.00  0.00    -0.597 OA 
HETATM   20  H   UNL     1     -10.230  21.530  65.893  1.00  0.00     0.000 HD 
ENDBRANCH   7  18
ENDBRANCH   5   6
ENDBRANCH   4   5
BRANCH   4  21
HETATM   21  C   UNL     1     -11.463  13.782  64.365  1.00  0.00    -0.372 C  
HETATM   22  H   UNL     1     -12.793  14.001  62.893  1.00  0.00     0.000 HD 
HETATM   23  O   UNL     1     -12.567  14.437  63.707  1.00  0.00    -0.829 OA 
BRANCH  21  24
HETATM   24  C   UNL     1     -11.854  12.313  64.558  1.00  0.00    -0.369 C  
HETATM   25  H   UNL     1     -13.414  11.185  64.147  1.00  0.00     0.000 HD 
HETATM   26  C   UNL     1     -10.926  11.343  63.845  1.00  0.00    -0.366 C  
HETATM   27  O   UNL     1     -13.172  12.095  64.027  1.00  0.00    -0.728 OA 
HETATM   28  O   UNL     1     -10.097  11.655  62.996  1.00  0.00    -0.370 OA 
ENDBRANCH  21  24
ENDBRANCH   4  21
ENDBRANCH   3   4
TORSDOF 6
ENDMDL
MODEL       11
REMARK 921   NORMALIZED FREE ENERGY PREDICTED BY IDOCK:   -5.86 KCAL/MOL
REMARK 922        TOTAL FREE ENERGY PREDICTED BY IDOCK:   -9.12 KCAL/MOL
REMARK 923 INTER-LIGAND FREE ENERGY PREDICTED BY IDOCK:   -7.92 KCAL/MOL
REMARK 924 INTRA-LIGAND FREE ENERGY PREDICTED BY IDOCK:   -1.20 KCAL/MOL
REMARK 927      BINDING AFFINITY PREDICTED BY RF-SCORE:    0.00 PKD
ROOT
HETATM    1  O   UNL     1     -14.052   8.788  73.276  1.00  0.00    -1.180 OA 
HETATM    2  H   UNL     1     -14.767   8.359  73.731  1.00  0.00     0.000 HD 
HETATM    3  C   UNL     1     -14.221   8.841  71.868  1.00  0.00    -0.389 C  
ENDROOT
BRANCH   3   4
HETATM    4  C   UNL     1     -13.057   9.540  71.127  1.00  0.00    -0.265 C  
BRANCH   4   5
HETATM    5  O   UNL     1     -12.626  10.789  71.697  1.00  0.00    -0.385 OA 
BRANCH   5   6
HETATM    6  C   UNL     1     -12.787  11.925  70.850  1.00  0.00    -0.130 C  
HETATM    7  C   UNL     1     -11.793  13.113  69.015  1.00  0.00    -0.313 C  
HETATM    8  O   UNL     1     -11.676  12.017  69.942  1.00  0.00    -0.314 OA 
HETATM    9  H   UNL     1     -14.057  13.952  73.150  1.00  0.00     0.000 HD 
HETATM   10  C   UNL     1     -11.897  14.462  69.742  1.00  0.00    -0.320 C  
HETATM   11  O   UNL     1     -13.989  13.161  72.630  1.00  0.00    -0.708 OA 
HETATM   12  O   UNL     1     -10.725  14.791  70.504  1.00  0.00    -0.493 OA 
HETATM   13  C   UNL     1     -13.073  14.405  70.726  1.00  0.00    -0.285 C  
HETATM   14  H   UNL     1     -10.789  15.625  70.954  1.00  0.00     0.000 HD 
HETATM   15  H   UNL     1     -13.924  15.624  72.015  1.00  0.00     0.000 HD 
HETATM   16  O   UNL     1     -13.196  15.659  71.406  1.00  0.00    -0.489 OA 
HETATM   17  C   UNL     1     -12.897  13.221  71.702  1.00  0.00    -0.302 C  
BRANCH   7  18
HETATM   18  C   UNL     1     -10.587  13.069  68.072  1.00  0.00    -0.235 C  
HETATM   19  O   UNL     1      -9.391  12.881  68.822  1.00  0.00    -0.406 OA 
HETATM   20  H   UNL     1      -8.643  12.853  68.238  1.00  0.00     0.000 HD 
ENDBRANCH   7  18
ENDBRANCH   5   6
ENDBRANCH   4   5
BRANCH   4  21
HETATM   21  C   UNL     1     -11.836   8.582  70.983  1.00  0.00    -0.257 C  
HETATM   22  H   UNL     1     -11.492   6.616  70.983  1.00  0.00     0.000 HD 
HETATM   23  O   UNL     1     -12.237   7.200  71.071  1.00  0.00    -0.342 OA 
BRANCH  21  24
HETATM   24  C   UNL     1     -10.763   8.814  72.051  1.00  0.00    -0.347 C  
HETATM   25  H   UNL     1     -10.320   8.064  73.817  1.00  0.00     0.000 HD 
HETATM   26  C   UNL     1      -9.349   8.555  71.554  1.00  0.00    -0.222 C  
HETATM   27  O   UNL     1     -10.985   7.920  73.155  1.00  0.00    -0.383 OA 
HETATM   28  O   UNL     1      -9.064   7.986  70.506  1.00  0.00    -0.150 OA 
ENDBRANCH  21  24
ENDBRANCH   4  21
ENDBRANCH   3   4
TORSDOF 6
ENDMDL
MODEL       12
REMARK 921   NORMALIZED FREE ENERGY PREDICTED BY IDOCK:   -5.82 KCAL/MOL
REMARK 922        TOTAL FREE ENERGY PREDICTED BY IDOCK:   -9.06 KCAL/MOL
REMARK 923 INTER-LIGAND FREE ENERGY PREDICTED BY IDOCK:   -8.15 KCAL/MOL
REMARK 924 INTRA-LIGAND FREE ENERGY PREDICTED BY IDOCK:   -0.91 KCAL/MOL
REMARK 927      BINDING AFFINITY PREDICTED BY RF-SCORE:    0.00 PKD
ROOT
HETATM    1  O   UNL     1     -11.307  11.141  63.066  1.00  0.00    -0.812 OA 
HETATM    2  H   UNL     1     -11.125  10.654  62.271  1.00  0.00     0.000 HD 
HETATM    3  C   UNL     1     -10.269  12.035  63.437  1.00  0.00    -0.426 C  
ENDROOT
BRANCH   3   4
HETATM    4  C   UNL     1     -10.564  12.828  64.732  1.00  0.00    -0.327 C  
BRANCH   4   5
HETATM    5  O   UNL     1     -10.957  14.199  64.538  1.00  0.00    -0.385 OA 
BRANCH   5   6
HETATM    6  C   UNL     1     -10.170  15.157  65.240  1.00  0.00    -0.368 C  
HETATM    7  C   UNL     1      -8.965  15.532  67.284  1.00  0.00    -0.201 C  
HETATM    8  O   UNL     1      -9.809  14.640  66.533  1.00  0.00    -0.253 OA 
HETATM    9  H   UNL     1     -11.820  17.848  64.215  1.00  0.00     0.000 HD 
HETATM   10  C   UNL     1      -9.640  16.892  67.512  1.00  0.00    -0.245 C  
HETATM   11  O   UNL     1     -11.341  17.033  64.122  1.00  0.00    -1.164 OA 
HETATM   12  O   UNL     1     -10.833  16.810  68.309  1.00  0.00    -0.353 OA 
HETATM   13  C   UNL     1     -10.045  17.480  66.154  1.00  0.00    -0.310 C  
HETATM   14  H   UNL     1     -11.251  17.651  68.450  1.00  0.00     0.000 HD 
HETATM   15  H   UNL     1     -10.915  19.121  65.504  1.00  0.00     0.000 HD 
HETATM   16  O   UNL     1     -10.665  18.757  66.345  1.00  0.00    -0.379 OA 
HETATM   17  C   UNL     1     -10.954  16.491  65.393  1.00  0.00    -0.131 C  
BRANCH   7  18
HETATM   18  C   UNL     1      -8.606  14.847  68.605  1.00  0.00    -0.168 C  
HETATM   19  O   UNL     1      -9.745  14.166  69.124  1.00  0.00    -0.415 OA 
HETATM   20  H   UNL     1      -9.522  13.741  69.943  1.00  0.00     0.000 HD 
ENDBRANCH   7  18
ENDBRANCH   5   6
ENDBRANCH   4   5
BRANCH   4  21
HETATM   21  C   UNL     1     -11.630  12.096  65.601  1.00  0.00    -0.351 C  
HETATM   22  H   UNL     1     -13.389  12.517  66.447  1.00  0.00     0.000 HD 
HETATM   23  O   UNL     1     -12.739  12.964  65.916  1.00  0.00    -0.437 OA 
BRANCH  21  24
HETATM   24  C   UNL     1     -11.068  11.576  66.929  1.00  0.00    -0.307 C  
HETATM   25  H   UNL     1     -11.803  10.975  68.653  1.00  0.00     0.000 HD 
HETATM   26  C   UNL     1     -10.273  10.288  66.784  1.00  0.00    -0.228 C  
HETATM   27  O   UNL     1     -12.152  11.297  67.831  1.00  0.00    -0.634 OA 
HETATM   28  O   UNL     1     -10.264   9.574  65.787  1.00  0.00    -0.255 OA 
ENDBRANCH  21  24
ENDBRANCH   4  21
ENDBRANCH   3   4
TORSDOF 6
ENDMDL
MODEL       13
REMARK 921   NORMALIZED FREE ENERGY PREDICTED BY IDOCK:   -5.81 KCAL/MOL
REMARK 922        TOTAL FREE ENERGY PREDICTED BY IDOCK:   -9.05 KCAL/MOL
REMARK 923 INTER-LIGAND FREE ENERGY PREDICTED BY IDOCK:   -8.16 KCAL/MOL
REMARK 924 INTRA-LIGAND FREE ENERGY PREDICTED BY IDOCK:   -0.89 KCAL/MOL
REMARK 927      BINDING AFFINITY PREDICTED BY RF-SCORE:    0.00 PKD
ROOT
HETATM    1  O   UNL     1     -10.496  16.021  69.924  1.00  0.00    -0.290 OA 
HETATM    2  H   UNL     1     -11.061  16.216  70.663  1.00  0.00     0.000 HD 
HETATM    3  C   UNL     1     -10.427  17.065  68.967  1.00  0.00    -0.337 C  
ENDROOT
BRANCH   3   4
HETATM    4  C   UNL     1      -9.508  16.748  67.763  1.00  0.00    -0.228 C  
BRANCH   4   5
HETATM    5  O   UNL     1     -10.151  16.768  66.476  1.00  0.00    -0.289 OA 
BRANCH   5   6
HETATM    6  C   UNL     1     -11.157  15.775  66.289  1.00  0.00    -0.073 C  
HETATM    7  C   UNL     1     -11.852  13.584  66.985  1.00  0.00    -0.402 C  
HETATM    8  O   UNL     1     -10.850  14.614  67.079  1.00  0.00    -0.292 OA 
HETATM    9  H   UNL     1     -11.625  16.297  63.045  1.00  0.00     0.000 HD 
HETATM   10  C   UNL     1     -12.042  13.110  65.536  1.00  0.00    -0.442 C  
HETATM   11  O   UNL     1     -11.559  16.531  63.964  1.00  0.00    -1.154 OA 
HETATM   12  O   UNL     1     -10.872  12.490  64.982  1.00  0.00    -0.275 OA 
HETATM   13  C   UNL     1     -12.370  14.323  64.656  1.00  0.00    -0.415 C  
HETATM   14  H   UNL     1     -10.989  12.197  64.085  1.00  0.00     0.000 HD 
HETATM   15  H   UNL     1     -12.769  14.651  62.757  1.00  0.00     0.000 HD 
HETATM   16  O   UNL     1     -12.565  13.900  63.302  1.00  0.00    -0.824 OA 
HETATM   17  C   UNL     1     -11.264  15.393  64.786  1.00  0.00    -0.395 C  
BRANCH   7  18
HETATM   18  C   UNL     1     -11.442  12.435  67.909  1.00  0.00    -0.328 C  
HETATM   19  O   UNL     1     -11.892  11.194  67.371  1.00  0.00    -0.570 OA 
HETATM   20  H   UNL     1     -11.637  10.482  67.945  1.00  0.00     0.000 HD 
ENDBRANCH   7  18
ENDBRANCH   5   6
ENDBRANCH   4   5
BRANCH   4  21
HETATM   21  C   UNL     1      -8.270  17.694  67.745  1.00  0.00    -0.225 C  
HETATM   22  H   UNL     1      -6.439  17.747  68.538  1.00  0.00     0.000 HD 
HETATM   23  O   UNL     1      -7.194  17.170  68.550  1.00  0.00    -0.199 OA 
BRANCH  21  24
HETATM   24  C   UNL     1      -8.583  19.101  68.263  1.00  0.00    -0.335 C  
HETATM   25  H   UNL     1      -7.630  20.493  69.279  1.00  0.00     0.000 HD 
HETATM   26  C   UNL     1      -8.915  20.092  67.159  1.00  0.00    -0.360 C  
HETATM   27  O   UNL     1      -7.436  19.621  68.958  1.00  0.00    -0.358 OA 
HETATM   28  O   UNL     1      -8.724  19.903  65.962  1.00  0.00    -0.366 OA 
ENDBRANCH  21  24
ENDBRANCH   4  21
ENDBRANCH   3   4
TORSDOF 6
ENDMDL
MODEL       14
REMARK 921   NORMALIZED FREE ENERGY PREDICTED BY IDOCK:   -5.81 KCAL/MOL
REMARK 922        TOTAL FREE ENERGY PREDICTED BY IDOCK:   -9.05 KCAL/MOL
REMARK 923 INTER-LIGAND FREE ENERGY PREDICTED BY IDOCK:   -8.28 KCAL/MOL
REMARK 924 INTRA-LIGAND FREE ENERGY PREDICTED BY IDOCK:   -0.77 KCAL/MOL
REMARK 927      BINDING AFFINITY PREDICTED BY RF-SCORE:    0.00 PKD
ROOT
HETATM    1  O   UNL     1     -12.830  11.714  62.893  1.00  0.00    -0.852 OA 
HETATM    2  H   UNL     1     -12.654  11.368  62.026  1.00  0.00     0.000 HD 
HETATM    3  C   UNL     1     -11.684  12.241  63.542  1.00  0.00    -0.499 C  
ENDROOT
BRANCH   3   4
HETATM    4  C   UNL     1     -11.971  12.805  64.954  1.00  0.00    -0.402 C  
BRANCH   4   5
HETATM    5  O   UNL     1     -10.968  12.521  65.946  1.00  0.00    -0.265 OA 
BRANCH   5   6
HETATM    6  C   UNL     1     -11.324  11.518  66.893  1.00  0.00    -0.253 C  
HETATM    7  C   UNL     1     -11.976  11.173  69.180  1.00  0.00    -0.343 C  
HETATM    8  O   UNL     1     -11.557  12.120  68.178  1.00  0.00    -0.295 OA 
HETATM    9  H   UNL     1      -9.244   9.179  65.788  1.00  0.00     0.000 HD 
HETATM   10  C   UNL     1     -10.932  10.064  69.381  1.00  0.00    -0.244 C  
HETATM   11  O   UNL     1      -9.931   9.833  65.727  1.00  0.00    -0.284 OA 
HETATM   12  O   UNL     1      -9.676  10.547  69.881  1.00  0.00    -0.425 OA 
HETATM   13  C   UNL     1     -10.652   9.395  68.029  1.00  0.00    -0.226 C  
HETATM   14  H   UNL     1      -9.030   9.861  70.006  1.00  0.00     0.000 HD 
HETATM   15  H   UNL     1      -9.517   7.933  67.361  1.00  0.00     0.000 HD 
HETATM   16  O   UNL     1      -9.691   8.347  68.198  1.00  0.00    -0.148 OA 
HETATM   17  C   UNL     1     -10.200  10.448  66.995  1.00  0.00    -0.225 C  
BRANCH   7  18
HETATM   18  C   UNL     1     -12.246  11.941  70.476  1.00  0.00    -0.336 C  
HETATM   19  O   UNL     1     -11.732  13.266  70.372  1.00  0.00    -0.520 OA 
HETATM   20  H   UNL     1     -11.900  13.742  71.176  1.00  0.00     0.000 HD 
ENDBRANCH   7  18
ENDBRANCH   5   6
ENDBRANCH   4   5
BRANCH   4  21
HETATM   21  C   UNL     1     -12.230  14.341  64.897  1.00  0.00    -0.440 C  
HETATM   22  H   UNL     1     -13.008  15.661  63.618  1.00  0.00     0.000 HD 
HETATM   23  O   UNL     1     -12.851  14.724  63.653  1.00  0.00    -0.619 OA 
BRANCH  21  24
HETATM   24  C   UNL     1     -10.950  15.171  65.041  1.00  0.00    -0.430 C  
HETATM   25  H   UNL     1     -10.301  16.918  64.406  1.00  0.00     0.000 HD 
HETATM   26  C   UNL     1     -10.629  15.541  66.480  1.00  0.00    -0.307 C  
HETATM   27  O   UNL     1     -11.095  16.404  64.316  1.00  0.00    -0.845 OA 
HETATM   28  O   UNL     1     -11.403  15.429  67.426  1.00  0.00    -0.319 OA 
ENDBRANCH  21  24
ENDBRANCH   4  21
ENDBRANCH   3   4
TORSDOF 6
ENDMDL
MODEL       15
REMARK 921   NORMALIZED FREE ENERGY PREDICTED BY IDOCK:   -5.81 KCAL/MOL
REMARK 922        TOTAL FREE ENERGY PREDICTED BY IDOCK:   -9.04 KCAL/MOL
REMARK 923 INTER-LIGAND FREE ENERGY PREDICTED BY IDOCK:   -8.53 KCAL/MOL
REMARK 924 INTRA-LIGAND FREE ENERGY PREDICTED BY IDOCK:   -0.51 KCAL/MOL
REMARK 927      BINDING AFFINITY PREDICTED BY RF-SCORE:    0.00 PKD
ROOT
HETATM    1  O   UNL     1     -11.540  16.345  63.874  1.00  0.00    -1.564 OA 
HETATM    2  H   UNL     1     -12.177  16.715  63.274  1.00  0.00     0.000 HD 
HETATM    3  C   UNL     1     -11.988  15.169  64.529  1.00  0.00    -0.319 C  
ENDROOT
BRANCH   3   4
HETATM    4  C   UNL     1     -10.950  14.566  65.505  1.00  0.00    -0.335 C  
BRANCH   4   5
HETATM    5  O   UNL     1     -11.140  14.903  66.891  1.00  0.00    -0.325 OA 
BRANCH   5   6
HETATM    6  C   UNL     1     -10.364  16.006  67.353  1.00  0.00    -0.294 C  
HETATM    7  C   UNL     1     -10.019  18.368  67.077  1.00  0.00    -0.342 C  
HETATM    8  O   UNL     1     -10.724  17.195  66.628  1.00  0.00    -0.221 OA 
HETATM    9  H   UNL     1      -7.526  14.339  67.781  1.00  0.00     0.000 HD 
HETATM   10  C   UNL     1      -8.498  18.198  66.945  1.00  0.00    -0.253 C  
HETATM   11  O   UNL     1      -8.453  14.521  67.885  1.00  0.00    -0.146 OA 
HETATM   12  O   UNL     1      -8.058  18.043  65.587  1.00  0.00    -0.500 OA 
HETATM   13  C   UNL     1      -8.071  16.936  67.705  1.00  0.00    -0.181 C  
HETATM   14  H   UNL     1      -7.117  17.938  65.505  1.00  0.00     0.000 HD 
HETATM   15  H   UNL     1      -6.388  15.987  68.077  1.00  0.00     0.000 HD 
HETATM   16  O   UNL     1      -6.652  16.769  67.606  1.00  0.00    -0.128 OA 
HETATM   17  C   UNL     1      -8.847  15.708  67.183  1.00  0.00    -0.208 C  
BRANCH   7  18
HETATM   18  C   UNL     1     -10.529  19.566  66.273  1.00  0.00    -0.512 C  
HETATM   19  O   UNL     1      -9.507  20.554  66.174  1.00  0.00    -0.635 OA 
HETATM   20  H   UNL     1      -9.824  21.298  65.675  1.00  0.00     0.000 HD 
ENDBRANCH   7  18
ENDBRANCH   5   6
ENDBRANCH   4   5
BRANCH   4  21
HETATM   21  C   UNL     1     -10.876  13.017  65.350  1.00  0.00    -0.284 C  
HETATM   22  H   UNL     1      -9.581  11.552  65.750  1.00  0.00     0.000 HD 
HETATM   23  O   UNL     1      -9.626  12.497  65.845  1.00  0.00    -0.240 OA 
BRANCH  21  24
HETATM   24  C   UNL     1     -11.019  12.552  63.896  1.00  0.00    -0.424 C  
HETATM   25  H   UNL     1     -10.376  11.041  62.811  1.00  0.00     0.000 HD 
HETATM   26  C   UNL     1     -12.457  12.271  63.490  1.00  0.00    -0.534 C  
HETATM   27  O   UNL     1     -10.287  11.328  63.711  1.00  0.00    -0.328 OA 
HETATM   28  O   UNL     1     -13.402  12.170  64.267  1.00  0.00    -0.761 OA 
ENDBRANCH  21  24
ENDBRANCH   4  21
ENDBRANCH   3   4
TORSDOF 6
ENDMDL
MODEL       16
REMARK 921   NORMALIZED FREE ENERGY PREDICTED BY IDOCK:   -5.80 KCAL/MOL
REMARK 922        TOTAL FREE ENERGY PREDICTED BY IDOCK:   -9.04 KCAL/MOL
REMARK 923 INTER-LIGAND FREE ENERGY PREDICTED BY IDOCK:   -8.00 KCAL/MOL
REMARK 924 INTRA-LIGAND FREE ENERGY PREDICTED BY IDOCK:   -1.04 KCAL/MOL
REMARK 927      BINDING AFFINITY PREDICTED BY RF-SCORE:    0.00 PKD
ROOT
HETATM    1  O   UNL     1     -10.257  20.422  66.117  1.00  0.00    -0.488 OA 
HETATM    2  H   UNL     1     -10.875  21.142  66.155  1.00  0.00     0.000 HD 
HETATM    3  C   UNL     1     -10.701  19.253  66.787  1.00  0.00    -0.431 C  
ENDROOT
BRANCH   3   4
HETATM    4  C   UNL     1      -9.695  18.079  66.726  1.00  0.00    -0.323 C  
BRANCH   4   5
HETATM    5  O   UNL     1      -9.837  17.206  65.591  1.00  0.00    -0.552 OA 
BRANCH   5   6
HETATM    6  C   UNL     1     -10.506  15.976  65.857  1.00  0.00    -0.359 C  
HETATM    7  C   UNL     1     -10.184  13.755  66.715  1.00  0.00    -0.268 C  
HETATM    8  O   UNL     1      -9.570  15.011  66.370  1.00  0.00    -0.253 OA 
HETATM    9  H   UNL     1     -12.528  16.052  63.226  1.00  0.00     0.000 HD 
HETATM   10  C   UNL     1     -10.880  13.114  65.505  1.00  0.00    -0.283 C  
HETATM   11  O   UNL     1     -12.115  16.380  64.017  1.00  0.00    -0.932 OA 
HETATM   12  O   UNL     1      -9.975  12.765  64.446  1.00  0.00    -0.555 OA 
HETATM   13  C   UNL     1     -11.888  14.114  64.925  1.00  0.00    -0.402 C  
HETATM   14  H   UNL     1     -10.405  12.368  63.697  1.00  0.00     0.000 HD 
HETATM   15  H   UNL     1     -13.183  14.147  63.444  1.00  0.00     0.000 HD 
HETATM   16  O   UNL     1     -12.558  13.528  63.803  1.00  0.00    -0.701 OA 
HETATM   17  C   UNL     1     -11.182  15.438  64.564  1.00  0.00    -0.299 C  
BRANCH   7  18
HETATM   18  C   UNL     1      -9.103  12.842  67.298  1.00  0.00    -0.200 C  
HETATM   19  O   UNL     1      -7.869  13.054  66.616  1.00  0.00    -0.365 OA 
HETATM   20  H   UNL     1      -7.198  12.488  66.978  1.00  0.00     0.000 HD 
ENDBRANCH   7  18
ENDBRANCH   5   6
ENDBRANCH   4   5
BRANCH   4  21
HETATM   21  C   UNL     1      -8.228  18.600  66.804  1.00  0.00    -0.267 C  
HETATM   22  H   UNL     1      -6.821  19.245  65.544  1.00  0.00     0.000 HD 
HETATM   23  O   UNL     1      -7.715  18.928  65.497  1.00  0.00    -0.434 OA 
BRANCH  21  24
HETATM   24  C   UNL     1      -7.264  17.587  67.430  1.00  0.00    -0.169 C  
HETATM   25  H   UNL     1      -5.512  16.813  66.975  1.00  0.00     0.000 HD 
HETATM   26  C   UNL     1      -6.758  18.004  68.802  1.00  0.00    -0.248 C  
HETATM   27  O   UNL     1      -6.109  17.441  66.587  1.00  0.00    -0.166 OA 
HETATM   28  O   UNL     1      -6.878  19.124  69.287  1.00  0.00    -0.309 OA 
ENDBRANCH  21  24
ENDBRANCH   4  21
ENDBRANCH   3   4
TORSDOF 6
ENDMDL
MODEL       17
REMARK 921   NORMALIZED FREE ENERGY PREDICTED BY IDOCK:   -5.79 KCAL/MOL
REMARK 922        TOTAL FREE ENERGY PREDICTED BY IDOCK:   -9.02 KCAL/MOL
REMARK 923 INTER-LIGAND FREE ENERGY PREDICTED BY IDOCK:   -7.90 KCAL/MOL
REMARK 924 INTRA-LIGAND FREE ENERGY PREDICTED BY IDOCK:   -1.13 KCAL/MOL
REMARK 927      BINDING AFFINITY PREDICTED BY RF-SCORE:    0.00 PKD
ROOT
HETATM    1  O   UNL     1     -12.525  14.136  69.044  1.00  0.00    -0.531 OA 
HETATM    2  H   UNL     1     -12.223  13.925  69.920  1.00  0.00     0.000 HD 
HETATM    3  C   UNL     1     -11.474  14.351  68.114  1.00  0.00    -0.310 C  
ENDROOT
BRANCH   3   4
HETATM    4  C   UNL     1     -11.965  14.694  66.688  1.00  0.00    -0.275 C  
BRANCH   4   5
HETATM    5  O   UNL     1     -11.113  15.582  65.942  1.00  0.00    -0.301 OA 
BRANCH   5   6
HETATM    6  C   UNL     1     -10.218  16.362  66.730  1.00  0.00    -0.285 C  
HETATM    7  C   UNL     1      -9.661  18.615  67.350  1.00  0.00    -0.296 C  
HETATM    8  O   UNL     1     -10.493  17.761  66.542  1.00  0.00    -0.345 OA 
HETATM    9  H   UNL     1      -7.536  14.460  66.274  1.00  0.00     0.000 HD 
HETATM   10  C   UNL     1      -8.170  18.402  67.049  1.00  0.00    -0.247 C  
HETATM   11  O   UNL     1      -8.436  14.654  66.510  1.00  0.00    -0.111 OA 
HETATM   12  O   UNL     1      -7.804  18.752  65.706  1.00  0.00    -0.484 OA 
HETATM   13  C   UNL     1      -7.834  16.917  67.236  1.00  0.00    -0.178 C  
HETATM   14  H   UNL     1      -6.881  18.620  65.519  1.00  0.00     0.000 HD 
HETATM   15  H   UNL     1      -6.234  15.780  67.090  1.00  0.00     0.000 HD 
HETATM   16  O   UNL     1      -6.443  16.699  66.974  1.00  0.00    -0.167 OA 
HETATM   17  C   UNL     1      -8.745  16.046  66.345  1.00  0.00    -0.327 C  
BRANCH   7  18
HETATM   18  C   UNL     1     -10.088  20.065  67.105  1.00  0.00    -0.446 C  
HETATM   19  O   UNL     1      -9.989  20.372  65.717  1.00  0.00    -0.615 OA 
HETATM   20  H   UNL     1     -10.254  21.271  65.564  1.00  0.00     0.000 HD 
ENDBRANCH   7  18
ENDBRANCH   5   6
ENDBRANCH   4   5
BRANCH   4  21
HETATM   21  C   UNL     1     -12.221  13.398  65.861  1.00  0.00    -0.450 C  
HETATM   22  H   UNL     1     -12.211  11.426  66.165  1.00  0.00     0.000 HD 
HETATM   23  O   UNL     1     -12.055  12.216  66.670  1.00  0.00    -0.622 OA 
BRANCH  21  24
HETATM   24  C   UNL     1     -11.286  13.261  64.656  1.00  0.00    -0.348 C  
HETATM   25  H   UNL     1      -9.608  12.313  64.251  1.00  0.00     0.000 HD 
HETATM   26  C   UNL     1     -11.958  12.653  63.435  1.00  0.00    -0.528 C  
HETATM   27  O   UNL     1     -10.188  12.398  64.998  1.00  0.00    -0.282 OA 
HETATM   28  O   UNL     1     -13.049  12.091  63.438  1.00  0.00    -0.747 OA 
ENDBRANCH  21  24
ENDBRANCH   4  21
ENDBRANCH   3   4
TORSDOF 6
ENDMDL
MODEL       18
REMARK 921   NORMALIZED FREE ENERGY PREDICTED BY IDOCK:   -5.78 KCAL/MOL
REMARK 922        TOTAL FREE ENERGY PREDICTED BY IDOCK:   -9.00 KCAL/MOL
REMARK 923 INTER-LIGAND FREE ENERGY PREDICTED BY IDOCK:   -7.95 KCAL/MOL
REMARK 924 INTRA-LIGAND FREE ENERGY PREDICTED BY IDOCK:   -1.06 KCAL/MOL
REMARK 927      BINDING AFFINITY PREDICTED BY RF-SCORE:    0.00 PKD
ROOT
HETATM    1  O   UNL     1     -12.023  15.998  63.756  1.00  0.00    -1.339 OA 
HETATM    2  H   UNL     1     -12.893  16.362  63.641  1.00  0.00     0.000 HD 
HETATM    3  C   UNL     1     -11.949  15.004  64.766  1.00  0.00    -0.311 C  
ENDROOT
BRANCH   3   4
HETATM    4  C   UNL     1     -10.532  14.411  64.954  1.00  0.00    -0.423 C  
BRANCH   4   5
HETATM    5  O   UNL     1      -9.464  15.374  64.999  1.00  0.00    -0.025 OA 
BRANCH   5   6
HETATM    6  C   UNL     1      -9.470  16.227  66.141  1.00  0.00    -0.339 C  
HETATM    7  C   UNL     1     -10.015  18.446  66.884  1.00  0.00    -0.353 C  
HETATM    8  O   UNL     1      -9.930  17.538  65.769  1.00  0.00    -0.546 OA 
HETATM    9  H   UNL     1      -6.677  15.068  67.511  1.00  0.00     0.000 HD 
HETATM   10  C   UNL     1      -8.655  18.622  67.575  1.00  0.00    -0.269 C  
HETATM   11  O   UNL     1      -7.548  15.018  67.133  1.00  0.00    -0.202 OA 
HETATM   12  O   UNL     1      -7.660  19.220  66.731  1.00  0.00    -0.227 OA 
HETATM   13  C   UNL     1      -8.126  17.242  67.988  1.00  0.00    -0.221 C  
HETATM   14  H   UNL     1      -6.818  19.330  67.159  1.00  0.00     0.000 HD 
HETATM   15  H   UNL     1      -6.536  16.532  68.904  1.00  0.00     0.000 HD 
HETATM   16  O   UNL     1      -6.863  17.386  68.648  1.00  0.00    -0.197 OA 
HETATM   17  C   UNL     1      -8.045  16.311  66.759  1.00  0.00    -0.264 C  
BRANCH   7  18
HETATM   18  C   UNL     1     -10.568  19.778  66.371  1.00  0.00    -0.464 C  
HETATM   19  O   UNL     1      -9.905  20.860  67.019  1.00  0.00    -0.624 OA 
HETATM   20  H   UNL     1     -10.248  21.687  66.700  1.00  0.00     0.000 HD 
ENDBRANCH   7  18
ENDBRANCH   5   6
ENDBRANCH   4   5
BRANCH   4  21
HETATM   21  C   UNL     1     -10.473  13.504  66.219  1.00  0.00    -0.290 C  
HETATM   22  H   UNL     1      -9.920  11.642  66.677  1.00  0.00     0.000 HD 
HETATM   23  O   UNL     1      -9.956  12.195  65.905  1.00  0.00    -0.236 OA 
BRANCH  21  24
HETATM   24  C   UNL     1     -11.841  13.307  66.881  1.00  0.00    -0.392 C  
HETATM   25  H   UNL     1     -12.999  11.782  67.339  1.00  0.00     0.000 HD 
HETATM   26  C   UNL     1     -11.900  13.820  68.311  1.00  0.00    -0.378 C  
HETATM   27  O   UNL     1     -12.151  11.904  66.929  1.00  0.00    -0.599 OA 
HETATM   28  O   UNL     1     -10.926  14.135  68.987  1.00  0.00    -0.250 OA 
ENDBRANCH  21  24
ENDBRANCH   4  21
ENDBRANCH   3   4
TORSDOF 6
ENDMDL
MODEL       19
REMARK 921   NORMALIZED FREE ENERGY PREDICTED BY IDOCK:   -5.77 KCAL/MOL
REMARK 922        TOTAL FREE ENERGY PREDICTED BY IDOCK:   -8.99 KCAL/MOL
REMARK 923 INTER-LIGAND FREE ENERGY PREDICTED BY IDOCK:   -8.33 KCAL/MOL
REMARK 924 INTRA-LIGAND FREE ENERGY PREDICTED BY IDOCK:   -0.67 KCAL/MOL
REMARK 927      BINDING AFFINITY PREDICTED BY RF-SCORE:    0.00 PKD
ROOT
HETATM    1  O   UNL     1     -11.465  13.500  70.208  1.00  0.00    -0.506 OA 
HETATM    2  H   UNL     1     -11.172  14.404  70.182  1.00  0.00     0.000 HD 
HETATM    3  C   UNL     1     -11.371  12.835  68.958  1.00  0.00    -0.294 C  
ENDROOT
BRANCH   3   4
HETATM    4  C   UNL     1     -11.847  11.363  68.999  1.00  0.00    -0.348 C  
BRANCH   4   5
HETATM    5  O   UNL     1     -11.769  10.656  67.748  1.00  0.00    -0.503 OA 
BRANCH   5   6
HETATM    6  C   UNL     1     -11.113  11.362  66.698  1.00  0.00    -0.271 C  
HETATM    7  C   UNL     1     -11.436  13.040  65.010  1.00  0.00    -0.313 C  
HETATM    8  O   UNL     1     -12.041  12.250  66.051  1.00  0.00    -0.623 OA 
HETATM    9  H   UNL     1      -9.228   8.838  65.650  1.00  0.00     0.000 HD 
HETATM   10  C   UNL     1     -10.818  12.156  63.916  1.00  0.00    -0.406 C  
HETATM   11  O   UNL     1      -9.593   9.450  66.279  1.00  0.00    -0.193 OA 
HETATM   12  O   UNL     1     -11.783  11.358  63.214  1.00  0.00    -0.831 OA 
HETATM   13  C   UNL     1      -9.820  11.189  64.566  1.00  0.00    -0.280 C  
HETATM   14  H   UNL     1     -11.401  10.812  62.537  1.00  0.00     0.000 HD 
HETATM   15  H   UNL     1      -8.602   9.766  63.961  1.00  0.00     0.000 HD 
HETATM   16  O   UNL     1      -9.221  10.364  63.559  1.00  0.00    -0.230 OA 
HETATM   17  C   UNL     1     -10.516  10.361  65.667  1.00  0.00    -0.115 C  
BRANCH   7  18
HETATM   18  C   UNL     1     -12.505  13.979  64.444  1.00  0.00    -0.289 C  
HETATM   19  O   UNL     1     -12.320  14.135  63.040  1.00  0.00    -1.070 OA 
HETATM   20  H   UNL     1     -12.984  14.717  62.689  1.00  0.00     0.000 HD 
ENDBRANCH   7  18
ENDBRANCH   5   6
ENDBRANCH   4   5
BRANCH   4  21
HETATM   21  C   UNL     1     -11.088  10.563  70.100  1.00  0.00    -0.298 C  
HETATM   22  H   UNL     1      -9.567   9.275  70.206  1.00  0.00     0.000 HD 
HETATM   23  O   UNL     1     -10.030   9.763  69.534  1.00  0.00    -0.187 OA 
BRANCH  21  24
HETATM   24  C   UNL     1     -11.999   9.619  70.892  1.00  0.00    -0.309 C  
HETATM   25  H   UNL     1     -11.771   8.263  72.301  1.00  0.00     0.000 HD 
HETATM   26  C   UNL     1     -13.050  10.345  71.717  1.00  0.00    -0.462 C  
HETATM   27  O   UNL     1     -11.206   8.849  71.811  1.00  0.00    -0.315 OA 
HETATM   28  O   UNL     1     -13.052  11.548  71.954  1.00  0.00    -0.481 OA 
ENDBRANCH  21  24
ENDBRANCH   4  21
ENDBRANCH   3   4
TORSDOF 6
ENDMDL
MODEL       20
REMARK 921   NORMALIZED FREE ENERGY PREDICTED BY IDOCK:   -5.76 KCAL/MOL
REMARK 922        TOTAL FREE ENERGY PREDICTED BY IDOCK:   -8.99 KCAL/MOL
REMARK 923 INTER-LIGAND FREE ENERGY PREDICTED BY IDOCK:   -7.90 KCAL/MOL
REMARK 924 INTRA-LIGAND FREE ENERGY PREDICTED BY IDOCK:   -1.09 KCAL/MOL
REMARK 927      BINDING AFFINITY PREDICTED BY RF-SCORE:    0.00 PKD
ROOT
HETATM    1  O   UNL     1      -8.795  12.859  68.805  1.00  0.00    -0.377 OA 
HETATM    2  H   UNL     1      -8.165  12.174  68.996  1.00  0.00     0.000 HD 
HETATM    3  C   UNL     1      -8.813  13.254  67.442  1.00  0.00    -0.204 C  
ENDROOT
BRANCH   3   4
HETATM    4  C   UNL     1      -9.839  14.369  67.131  1.00  0.00    -0.254 C  
BRANCH   4   5
HETATM    5  O   UNL     1      -9.628  15.071  65.892  1.00  0.00    -0.312 OA 
BRANCH   5   6
HETATM    6  C   UNL     1      -9.170  16.414  66.032  1.00  0.00    -0.293 C  
HETATM    7  C   UNL     1      -7.948  17.891  67.479  1.00  0.00    -0.213 C  
HETATM    8  O   UNL     1      -8.488  16.570  67.288  1.00  0.00    -0.172 OA 
HETATM    9  H   UNL     1     -11.811  17.873  64.649  1.00  0.00     0.000 HD 
HETATM   10  C   UNL     1      -9.045  18.964  67.423  1.00  0.00    -0.279 C  
HETATM   11  O   UNL     1     -11.080  17.269  64.704  1.00  0.00    -1.052 OA 
HETATM   12  O   UNL     1     -10.015  18.844  68.475  1.00  0.00    -0.369 OA 
HETATM   13  C   UNL     1      -9.802  18.832  66.095  1.00  0.00    -0.299 C  
HETATM   14  H   UNL     1     -10.694  19.508  68.441  1.00  0.00     0.000 HD 
HETATM   15  H   UNL     1     -11.289  19.753  65.195  1.00  0.00     0.000 HD 
HETATM   16  O   UNL     1     -10.821  19.834  66.017  1.00  0.00    -0.428 OA 
HETATM   17  C   UNL     1     -10.367  17.403  65.942  1.00  0.00    -0.269 C  
BRANCH   7  18
HETATM   18  C   UNL     1      -7.202  17.911  68.816  1.00  0.00    -0.275 C  
HETATM   19  O   UNL     1      -7.263  19.215  69.387  1.00  0.00    -0.283 OA 
HETATM   20  H   UNL     1      -6.800  19.227  70.216  1.00  0.00     0.000 HD 
ENDBRANCH   7  18
ENDBRANCH   5   6
ENDBRANCH   4   5
BRANCH   4  21
HETATM   21  C   UNL     1     -11.295  13.813  67.174  1.00  0.00    -0.324 C  
HETATM   22  H   UNL     1     -12.570  13.119  68.544  1.00  0.00     0.000 HD 
HETATM   23  O   UNL     1     -11.683  13.458  68.517  1.00  0.00    -0.313 OA 
BRANCH  21  24
HETATM   24  C   UNL     1     -11.488  12.569  66.301  1.00  0.00    -0.370 C  
HETATM   25  H   UNL     1     -12.110  10.720  66.567  1.00  0.00     0.000 HD 
HETATM   26  C   UNL     1     -12.484  12.773  65.171  1.00  0.00    -0.501 C  
HETATM   27  O   UNL     1     -11.990  11.491  67.109  1.00  0.00    -0.581 OA 
HETATM   28  O   UNL     1     -13.257  13.721  65.075  1.00  0.00    -0.733 OA 
ENDBRANCH  21  24
ENDBRANCH   4  21
ENDBRANCH   3   4
TORSDOF 6
ENDMDL
MODEL       21
REMARK 921   NORMALIZED FREE ENERGY PREDICTED BY IDOCK:   -5.76 KCAL/MOL
REMARK 922        TOTAL FREE ENERGY PREDICTED BY IDOCK:   -8.99 KCAL/MOL
REMARK 923 INTER-LIGAND FREE ENERGY PREDICTED BY IDOCK:   -7.92 KCAL/MOL
REMARK 924 INTRA-LIGAND FREE ENERGY PREDICTED BY IDOCK:   -1.06 KCAL/MOL
REMARK 927      BINDING AFFINITY PREDICTED BY RF-SCORE:    0.00 PKD
ROOT
HETATM    1  O   UNL     1     -11.100  14.895  71.467  1.00  0.00    -0.567 OA 
HETATM    2  H   UNL     1     -11.605  15.215  72.206  1.00  0.00     0.000 HD 
HETATM    3  C   UNL     1     -11.897  14.374  70.415  1.00  0.00    -0.312 C  
ENDROOT
BRANCH   3   4
HETATM    4  C   UNL     1     -11.077  13.852  69.212  1.00  0.00    -0.218 C  
BRANCH   4   5
HETATM    5  O   UNL     1     -11.844  13.216  68.174  1.00  0.00    -0.336 OA 
BRANCH   5   6
HETATM    6  C   UNL     1     -11.273  13.295  66.870  1.00  0.00    -0.305 C  
HETATM    7  C   UNL     1     -11.489  14.376  64.735  1.00  0.00    -0.402 C  
HETATM    8  O   UNL     1     -12.037  14.202  66.056  1.00  0.00    -0.400 OA 
HETATM    9  H   UNL     1     -10.459  10.088  66.604  1.00  0.00     0.000 HD 
HETATM   10  C   UNL     1     -11.408  13.043  63.976  1.00  0.00    -0.410 C  
HETATM   11  O   UNL     1     -10.485  10.949  67.005  1.00  0.00    -0.221 OA 
HETATM   12  O   UNL     1     -12.691  12.448  63.730  1.00  0.00    -0.693 OA 
HETATM   13  C   UNL     1     -10.600  12.043  64.814  1.00  0.00    -0.297 C  
HETATM   14  H   UNL     1     -12.642  11.624  63.260  1.00  0.00     0.000 HD 
HETATM   15  H   UNL     1     -10.000  10.178  64.633  1.00  0.00     0.000 HD 
HETATM   16  O   UNL     1     -10.501  10.797  64.115  1.00  0.00    -0.364 OA 
HETATM   17  C   UNL     1     -11.231  11.886  66.214  1.00  0.00    -0.337 C  
BRANCH   7  18
HETATM   18  C   UNL     1     -12.352  15.400  63.994  1.00  0.00     0.116 C  
HETATM   19  O   UNL     1     -11.602  16.590  63.764  1.00  0.00    -1.617 OA 
HETATM   20  H   UNL     1     -12.137  17.226  63.304  1.00  0.00     0.000 HD 
ENDBRANCH   7  18
ENDBRANCH   5   6
ENDBRANCH   4   5
BRANCH   4  21
HETATM   21  C   UNL     1     -10.206  14.989  68.598  1.00  0.00    -0.231 C  
HETATM   22  H   UNL     1      -8.466  15.889  68.983  1.00  0.00     0.000 HD 
HETATM   23  O   UNL     1      -8.997  15.195  69.357  1.00  0.00    -0.225 OA 
BRANCH  21  24
HETATM   24  C   UNL     1     -10.936  16.334  68.532  1.00  0.00    -0.345 C  
HETATM   25  H   UNL     1     -10.890  18.035  69.523  1.00  0.00     0.000 HD 
HETATM   26  C   UNL     1     -10.740  17.064  67.212  1.00  0.00    -0.206 C  
HETATM   27  O   UNL     1     -10.437  17.201  69.564  1.00  0.00    -0.286 OA 
HETATM   28  O   UNL     1      -9.903  16.772  66.364  1.00  0.00    -0.267 OA 
ENDBRANCH  21  24
ENDBRANCH   4  21
ENDBRANCH   3   4
TORSDOF 6
ENDMDL
MODEL       22
REMARK 921   NORMALIZED FREE ENERGY PREDICTED BY IDOCK:   -5.75 KCAL/MOL
REMARK 922        TOTAL FREE ENERGY PREDICTED BY IDOCK:   -8.98 KCAL/MOL
REMARK 923 INTER-LIGAND FREE ENERGY PREDICTED BY IDOCK:   -8.25 KCAL/MOL
REMARK 924 INTRA-LIGAND FREE ENERGY PREDICTED BY IDOCK:   -0.72 KCAL/MOL
REMARK 927      BINDING AFFINITY PREDICTED BY RF-SCORE:    0.00 PKD
ROOT
HETATM    1  O   UNL     1     -10.812  18.802  65.426  1.00  0.00    -0.563 OA 
HETATM    2  H   UNL     1     -10.661  19.656  65.037  1.00  0.00     0.000 HD 
HETATM    3  C   UNL     1     -10.124  18.602  66.650  1.00  0.00    -0.385 C  
ENDROOT
BRANCH   3   4
HETATM    4  C   UNL     1     -10.369  17.212  67.283  1.00  0.00    -0.320 C  
BRANCH   4   5
HETATM    5  O   UNL     1      -9.952  16.090  66.484  1.00  0.00    -0.254 OA 
BRANCH   5   6
HETATM    6  C   UNL     1     -10.983  15.157  66.170  1.00  0.00    -0.331 C  
HETATM    7  C   UNL     1     -11.695  12.888  66.508  1.00  0.00    -0.393 C  
HETATM    8  O   UNL     1     -10.670  13.874  66.738  1.00  0.00    -0.279 OA 
HETATM    9  H   UNL     1     -11.555  16.232  63.082  1.00  0.00     0.000 HD 
HETATM   10  C   UNL     1     -11.945  12.671  65.009  1.00  0.00    -0.419 C  
HETATM   11  O   UNL     1     -11.452  16.304  64.024  1.00  0.00    -0.919 OA 
HETATM   12  O   UNL     1     -10.807  12.140  64.312  1.00  0.00    -0.295 OA 
HETATM   13  C   UNL     1     -12.281  14.021  64.361  1.00  0.00    -0.426 C  
HETATM   14  H   UNL     1     -10.962  12.006  63.384  1.00  0.00     0.000 HD 
HETATM   15  H   UNL     1     -12.740  14.673  62.562  1.00  0.00     0.000 HD 
HETATM   16  O   UNL     1     -12.531  13.837  62.963  1.00  0.00    -0.712 OA 
HETATM   17  C   UNL     1     -11.151  15.038  64.628  1.00  0.00    -0.321 C  
BRANCH   7  18
HETATM   18  C   UNL     1     -11.274  11.593  67.207  1.00  0.00    -0.304 C  
HETATM   19  O   UNL     1     -12.272  11.202  68.147  1.00  0.00    -0.708 OA 
HETATM   20  H   UNL     1     -12.010  10.398  68.580  1.00  0.00     0.000 HD 
ENDBRANCH   7  18
ENDBRANCH   5   6
ENDBRANCH   4   5
BRANCH   4  21
HETATM   21  C   UNL     1      -9.716  17.120  68.695  1.00  0.00    -0.293 C  
HETATM   22  H   UNL     1      -7.987  17.619  69.558  1.00  0.00     0.000 HD 
HETATM   23  O   UNL     1      -8.385  17.675  68.697  1.00  0.00    -0.286 OA 
BRANCH  21  24
HETATM   24  C   UNL     1      -9.610  15.683  69.215  1.00  0.00    -0.268 C  
HETATM   25  H   UNL     1      -8.299  14.626  70.234  1.00  0.00     0.000 HD 
HETATM   26  C   UNL     1     -10.714  15.311  70.193  1.00  0.00    -0.271 C  
HETATM   27  O   UNL     1      -8.364  15.517  69.912  1.00  0.00    -0.113 OA 
HETATM   28  O   UNL     1     -11.478  16.108  70.729  1.00  0.00    -0.393 OA 
ENDBRANCH  21  24
ENDBRANCH   4  21
ENDBRANCH   3   4
TORSDOF 6
ENDMDL
MODEL       23
REMARK 921   NORMALIZED FREE ENERGY PREDICTED BY IDOCK:   -5.72 KCAL/MOL
REMARK 922        TOTAL FREE ENERGY PREDICTED BY IDOCK:   -8.94 KCAL/MOL
REMARK 923 INTER-LIGAND FREE ENERGY PREDICTED BY IDOCK:   -7.95 KCAL/MOL
REMARK 924 INTRA-LIGAND FREE ENERGY PREDICTED BY IDOCK:   -0.98 KCAL/MOL
REMARK 927      BINDING AFFINITY PREDICTED BY RF-SCORE:    0.00 PKD
ROOT
HETATM    1  O   UNL     1     -10.438  16.300  65.110  1.00  0.00    -0.591 OA 
HETATM    2  H   UNL     1      -9.786  16.971  64.943  1.00  0.00     0.000 HD 
HETATM    3  C   UNL     1      -9.986  15.268  65.973  1.00  0.00    -0.319 C  
ENDROOT
BRANCH   3   4
HETATM    4  C   UNL     1     -11.047  14.175  66.245  1.00  0.00    -0.318 C  
BRANCH   4   5
HETATM    5  O   UNL     1     -12.053  14.522  67.214  1.00  0.00    -0.392 OA 
BRANCH   5   6
HETATM    6  C   UNL     1     -11.692  14.277  68.571  1.00  0.00    -0.341 C  
HETATM    7  C   UNL     1     -12.056  12.789  70.422  1.00  0.00    -0.302 C  
HETATM    8  O   UNL     1     -12.409  13.134  69.069  1.00  0.00    -0.153 OA 
HETATM    9  H   UNL     1     -11.493  17.456  69.504  1.00  0.00     0.000 HD 
HETATM   10  C   UNL     1     -12.326  13.951  71.390  1.00  0.00    -0.296 C  
HETATM   11  O   UNL     1     -11.307  16.692  68.970  1.00  0.00    -0.238 OA 
HETATM   12  O   UNL     1     -13.715  14.302  71.485  1.00  0.00    -0.365 OA 
HETATM   13  C   UNL     1     -11.579  15.195  70.893  1.00  0.00    -0.338 C  
HETATM   14  H   UNL     1     -13.883  15.021  72.084  1.00  0.00     0.000 HD 
HETATM   15  H   UNL     1     -11.344  17.057  71.484  1.00  0.00     0.000 HD 
HETATM   16  O   UNL     1     -11.807  16.287  71.791  1.00  0.00    -0.487 OA 
HETATM   17  C   UNL     1     -11.997  15.527  69.444  1.00  0.00    -0.336 C  
BRANCH   7  18
HETATM   18  C   UNL     1     -12.837  11.532  70.811  1.00  0.00    -0.134 C  
HETATM   19  O   UNL     1     -13.192  11.588  72.190  1.00  0.00    -0.576 OA 
HETATM   20  H   UNL     1     -13.677  10.808  72.432  1.00  0.00     0.000 HD 
ENDBRANCH   7  18
ENDBRANCH   5   6
ENDBRANCH   4   5
BRANCH   4  21
HETATM   21  C   UNL     1     -11.732  13.723  64.920  1.00  0.00    -0.363 C  
HETATM   22  H   UNL     1     -13.400  14.134  63.904  1.00  0.00     0.000 HD 
HETATM   23  O   UNL     1     -12.983  14.410  64.712  1.00  0.00    -0.616 OA 
BRANCH  21  24
HETATM   24  C   UNL     1     -12.026  12.220  64.879  1.00  0.00    -0.357 C  
HETATM   25  H   UNL     1     -13.424  11.058  64.123  1.00  0.00     0.000 HD 
HETATM   26  C   UNL     1     -10.939  11.410  64.191  1.00  0.00    -0.341 C  
HETATM   27  O   UNL     1     -13.242  11.990  64.148  1.00  0.00    -0.712 OA 
HETATM   28  O   UNL     1     -10.033  11.881  63.510  1.00  0.00    -0.380 OA 
ENDBRANCH  21  24
ENDBRANCH   4  21
ENDBRANCH   3   4
TORSDOF 6
ENDMDL
MODEL       24
REMARK 921   NORMALIZED FREE ENERGY PREDICTED BY IDOCK:   -5.69 KCAL/MOL
REMARK 922        TOTAL FREE ENERGY PREDICTED BY IDOCK:   -8.88 KCAL/MOL
REMARK 923 INTER-LIGAND FREE ENERGY PREDICTED BY IDOCK:   -7.91 KCAL/MOL
REMARK 924 INTRA-LIGAND FREE ENERGY PREDICTED BY IDOCK:   -0.97 KCAL/MOL
REMARK 927      BINDING AFFINITY PREDICTED BY RF-SCORE:    0.00 PKD
ROOT
HETATM    1  O   UNL     1     -10.839  14.078  69.637  1.00  0.00    -0.439 OA 
HETATM    2  H   UNL     1     -10.997  14.776  70.264  1.00  0.00     0.000 HD 
HETATM    3  C   UNL     1     -11.813  14.003  68.609  1.00  0.00    -0.361 C  
ENDROOT
BRANCH   3   4
HETATM    4  C   UNL     1     -11.556  12.869  67.589  1.00  0.00    -0.355 C  
BRANCH   4   5
HETATM    5  O   UNL     1     -12.120  11.591  67.935  1.00  0.00    -0.630 OA 
BRANCH   5   6
HETATM    6  C   UNL     1     -11.228  10.698  68.597  1.00  0.00    -0.278 C  
HETATM    7  C   UNL     1     -10.155   8.557  68.409  1.00  0.00    -0.194 C  
HETATM    8  O   UNL     1     -11.086   9.490  67.829  1.00  0.00    -0.186 OA 
HETATM    9  H   UNL     1     -12.240  11.354  71.690  1.00  0.00     0.000 HD 
HETATM   10  C   UNL     1     -10.576   8.145  69.827  1.00  0.00    -0.231 C  
HETATM   11  O   UNL     1     -11.919  11.554  70.818  1.00  0.00    -0.344 OA 
HETATM   12  O   UNL     1     -11.826   7.440  69.868  1.00  0.00    -0.497 OA 
HETATM   13  C   UNL     1     -10.742   9.408  70.682  1.00  0.00    -0.290 C  
HETATM   14  H   UNL     1     -12.087   7.185  70.745  1.00  0.00     0.000 HD 
HETATM   15  H   UNL     1     -11.223   9.825  72.544  1.00  0.00     0.000 HD 
HETATM   16  O   UNL     1     -11.121   9.043  72.014  1.00  0.00    -0.364 OA 
HETATM   17  C   UNL     1     -11.753  10.370  70.024  1.00  0.00    -0.286 C  
BRANCH   7  18
HETATM   18  C   UNL     1     -10.049   7.349  67.474  1.00  0.00    -0.192 C  
HETATM   19  O   UNL     1     -11.351   6.918  67.088  1.00  0.00    -0.658 OA 
HETATM   20  H   UNL     1     -11.285   6.169  66.508  1.00  0.00     0.000 HD 
ENDBRANCH   7  18
ENDBRANCH   5   6
ENDBRANCH   4   5
BRANCH   4  21
HETATM   21  C   UNL     1     -12.034  13.283  66.165  1.00  0.00    -0.418 C  
HETATM   22  H   UNL     1     -12.730  12.388  64.522  1.00  0.00     0.000 HD 
HETATM   23  O   UNL     1     -12.439  12.135  65.391  1.00  0.00    -0.523 OA 
BRANCH  21  24
HETATM   24  C   UNL     1     -10.955  14.017  65.360  1.00  0.00    -0.321 C  
HETATM   25  H   UNL     1      -9.517  13.517  64.112  1.00  0.00     0.000 HD 
HETATM   26  C   UNL     1     -11.521  15.010  64.358  1.00  0.00    -0.233 C  
HETATM   27  O   UNL     1     -10.185  13.062  64.610  1.00  0.00    -0.338 OA 
HETATM   28  O   UNL     1     -12.698  15.074  64.017  1.00  0.00    -0.772 OA 
ENDBRANCH  21  24
ENDBRANCH   4  21
ENDBRANCH   3   4
TORSDOF 6
ENDMDL
MODEL       25
REMARK 921   NORMALIZED FREE ENERGY PREDICTED BY IDOCK:   -5.67 KCAL/MOL
REMARK 922        TOTAL FREE ENERGY PREDICTED BY IDOCK:   -8.86 KCAL/MOL
REMARK 923 INTER-LIGAND FREE ENERGY PREDICTED BY IDOCK:   -8.00 KCAL/MOL
REMARK 924 INTRA-LIGAND FREE ENERGY PREDICTED BY IDOCK:   -0.86 KCAL/MOL
REMARK 927      BINDING AFFINITY PREDICTED BY RF-SCORE:    0.00 PKD
ROOT
HETATM    1  O   UNL     1      -9.583  16.911  69.188  1.00  0.00    -0.241 OA 
HETATM    2  H   UNL     1      -9.349  17.829  69.264  1.00  0.00     0.000 HD 
HETATM    3  C   UNL     1     -10.928  16.634  69.546  1.00  0.00    -0.228 C  
ENDROOT
BRANCH   3   4
HETATM    4  C   UNL     1     -11.310  15.139  69.422  1.00  0.00    -0.294 C  
BRANCH   4   5
HETATM    5  O   UNL     1     -10.275  14.281  68.909  1.00  0.00    -0.235 OA 
BRANCH   5   6
HETATM    6  C   UNL     1     -10.357  14.005  67.513  1.00  0.00    -0.245 C  
HETATM    7  C   UNL     1     -10.738  15.020  65.370  1.00  0.00    -0.374 C  
HETATM    8  O   UNL     1     -10.689  15.207  66.797  1.00  0.00    -0.300 OA 
HETATM    9  H   UNL     1     -11.777  11.018  67.785  1.00  0.00     0.000 HD 
HETATM   10  C   UNL     1     -11.771  13.955  64.973  1.00  0.00    -0.359 C  
HETATM   11  O   UNL     1     -11.128  11.691  67.951  1.00  0.00    -0.214 OA 
HETATM   12  O   UNL     1     -13.119  14.316  65.309  1.00  0.00    -0.707 OA 
HETATM   13  C   UNL     1     -11.453  12.653  65.719  1.00  0.00    -0.358 C  
HETATM   14  H   UNL     1     -13.759  13.657  65.064  1.00  0.00     0.000 HD 
HETATM   15  H   UNL     1     -12.201  10.835  65.813  1.00  0.00     0.000 HD 
HETATM   16  O   UNL     1     -12.398  11.642  65.351  1.00  0.00    -0.041 OA 
HETATM   17  C   UNL     1     -11.421  12.904  67.242  1.00  0.00    -0.336 C  
BRANCH   7  18
HETATM   18  C   UNL     1     -11.041  16.374  64.723  1.00  0.00    -0.235 C  
HETATM   19  O   UNL     1     -12.030  16.218  63.709  1.00  0.00    -1.409 OA 
HETATM   20  H   UNL     1     -12.218  17.058  63.308  1.00  0.00     0.000 HD 
ENDBRANCH   7  18
ENDBRANCH   5   6
ENDBRANCH   4   5
BRANCH   4  21
HETATM   21  C   UNL     1     -11.825  14.583  70.783  1.00  0.00    -0.304 C  
HETATM   22  H   UNL     1     -12.596  12.881  71.486  1.00  0.00     0.000 HD 
HETATM   23  O   UNL     1     -12.282  13.221  70.656  1.00  0.00    -0.360 OA 
BRANCH  21  24
HETATM   24  C   UNL     1     -12.985  15.399  71.364  1.00  0.00    -0.461 C  
HETATM   25  H   UNL     1     -14.906  15.119  71.690  1.00  0.00     0.000 HD 
HETATM   26  C   UNL     1     -12.768  15.808  72.813  1.00  0.00    -0.454 C  
HETATM   27  O   UNL     1     -14.188  14.613  71.329  1.00  0.00    -0.397 OA 
HETATM   28  O   UNL     1     -11.902  15.353  73.552  1.00  0.00    -0.448 OA 
ENDBRANCH  21  24
ENDBRANCH   4  21
ENDBRANCH   3   4
TORSDOF 6
ENDMDL
MODEL       26
REMARK 921   NORMALIZED FREE ENERGY PREDICTED BY IDOCK:   -5.65 KCAL/MOL
REMARK 922        TOTAL FREE ENERGY PREDICTED BY IDOCK:   -8.83 KCAL/MOL
REMARK 923 INTER-LIGAND FREE ENERGY PREDICTED BY IDOCK:   -8.07 KCAL/MOL
REMARK 924 INTRA-LIGAND FREE ENERGY PREDICTED BY IDOCK:   -0.76 KCAL/MOL
REMARK 927      BINDING AFFINITY PREDICTED BY RF-SCORE:    0.00 PKD
ROOT
HETATM    1  O   UNL     1     -10.068  12.984  67.175  1.00  0.00    -0.239 OA 
HETATM    2  H   UNL     1     -10.193  12.407  67.919  1.00  0.00     0.000 HD 
HETATM    3  C   UNL     1     -11.272  13.552  66.685  1.00  0.00    -0.312 C  
ENDROOT
BRANCH   3   4
HETATM    4  C   UNL     1     -11.069  14.492  65.473  1.00  0.00    -0.339 C  
BRANCH   4   5
HETATM    5  O   UNL     1      -9.707  14.881  65.217  1.00  0.00    -0.275 OA 
BRANCH   5   6
HETATM    6  C   UNL     1      -9.278  16.057  65.900  1.00  0.00    -0.286 C  
HETATM    7  C   UNL     1      -8.299  16.845  67.947  1.00  0.00    -0.198 C  
HETATM    8  O   UNL     1      -8.802  15.713  67.212  1.00  0.00    -0.183 OA 
HETATM    9  H   UNL     1     -11.668  18.062  64.768  1.00  0.00     0.000 HD 
HETATM   10  C   UNL     1      -9.374  17.927  68.123  1.00  0.00    -0.286 C  
HETATM   11  O   UNL     1     -10.955  17.438  64.707  1.00  0.00    -0.964 OA 
HETATM   12  O   UNL     1     -10.498  17.493  68.905  1.00  0.00    -0.349 OA 
HETATM   13  C   UNL     1      -9.912  18.323  66.742  1.00  0.00    -0.352 C  
HETATM   14  H   UNL     1     -11.163  18.163  69.015  1.00  0.00     0.000 HD 
HETATM   15  H   UNL     1     -11.239  19.588  66.029  1.00  0.00     0.000 HD 
HETATM   16  O   UNL     1     -10.907  19.343  66.884  1.00  0.00    -0.460 OA 
HETATM   17  C   UNL     1     -10.446  17.079  66.000  1.00  0.00    -0.274 C  
BRANCH   7  18
HETATM   18  C   UNL     1      -7.773  16.342  69.294  1.00  0.00    -0.186 C  
HETATM   19  O   UNL     1      -8.380  15.093  69.616  1.00  0.00    -0.373 OA 
HETATM   20  H   UNL     1      -8.053  14.781  70.451  1.00  0.00     0.000 HD 
ENDBRANCH   7  18
ENDBRANCH   5   6
ENDBRANCH   4   5
BRANCH   4  21
HETATM   21  C   UNL     1     -11.688  13.876  64.182  1.00  0.00    -0.340 C  
HETATM   22  H   UNL     1     -13.252  14.213  62.988  1.00  0.00     0.000 HD 
HETATM   23  O   UNL     1     -12.874  14.589  63.775  1.00  0.00    -0.669 OA 
BRANCH  21  24
HETATM   24  C   UNL     1     -12.077  12.403  64.347  1.00  0.00    -0.426 C  
HETATM   25  H   UNL     1     -13.510  11.223  63.693  1.00  0.00     0.000 HD 
HETATM   26  C   UNL     1     -11.013  11.439  63.847  1.00  0.00    -0.366 C  
HETATM   27  O   UNL     1     -13.270  12.135  63.591  1.00  0.00    -0.770 OA 
HETATM   28  O   UNL     1     -10.048  11.750  63.155  1.00  0.00    -0.418 OA 
ENDBRANCH  21  24
ENDBRANCH   4  21
ENDBRANCH   3   4
TORSDOF 6
ENDMDL
MODEL       27
REMARK 921   NORMALIZED FREE ENERGY PREDICTED BY IDOCK:   -5.62 KCAL/MOL
REMARK 922        TOTAL FREE ENERGY PREDICTED BY IDOCK:   -8.79 KCAL/MOL
REMARK 923 INTER-LIGAND FREE ENERGY PREDICTED BY IDOCK:   -7.80 KCAL/MOL
REMARK 924 INTRA-LIGAND FREE ENERGY PREDICTED BY IDOCK:   -0.99 KCAL/MOL
REMARK 927      BINDING AFFINITY PREDICTED BY RF-SCORE:    0.00 PKD
ROOT
HETATM    1  O   UNL     1     -11.513  16.593  63.867  1.00  0.00    -1.604 OA 
HETATM    2  H   UNL     1     -12.243  17.001  63.417  1.00  0.00     0.000 HD 
HETATM    3  C   UNL     1     -11.793  15.284  64.340  1.00  0.00    -0.281 C  
ENDROOT
BRANCH   3   4
HETATM    4  C   UNL     1     -10.604  14.619  65.073  1.00  0.00    -0.439 C  
BRANCH   4   5
HETATM    5  O   UNL     1     -10.218  15.242  66.311  1.00  0.00    -0.262 OA 
BRANCH   5   6
HETATM    6  C   UNL     1      -9.014  16.002  66.254  1.00  0.00    -0.345 C  
HETATM    7  C   UNL     1      -6.768  16.117  67.098  1.00  0.00    -0.192 C  
HETATM    8  O   UNL     1      -8.034  15.433  67.140  1.00  0.00    -0.183 OA 
HETATM    9  H   UNL     1     -10.445  18.988  66.015  1.00  0.00     0.000 HD 
HETATM   10  C   UNL     1      -6.912  17.599  67.473  1.00  0.00    -0.168 C  
HETATM   11  O   UNL     1     -10.275  18.083  65.781  1.00  0.00    -0.574 OA 
HETATM   12  O   UNL     1      -7.358  17.804  68.823  1.00  0.00    -0.263 OA 
HETATM   13  C   UNL     1      -7.953  18.246  66.551  1.00  0.00    -0.268 C  
HETATM   14  H   UNL     1      -7.447  18.721  69.055  1.00  0.00     0.000 HD 
HETATM   15  H   UNL     1      -8.735  20.034  66.304  1.00  0.00     0.000 HD 
HETATM   16  O   UNL     1      -8.091  19.634  66.876  1.00  0.00    -0.266 OA 
HETATM   17  C   UNL     1      -9.292  17.484  66.638  1.00  0.00    -0.262 C  
BRANCH   7  18
HETATM   18  C   UNL     1      -5.801  15.385  68.033  1.00  0.00    -0.139 C  
HETATM   19  O   UNL     1      -6.485  14.976  69.214  1.00  0.00    -0.109 OA 
HETATM   20  H   UNL     1      -5.886  14.522  69.795  1.00  0.00     0.000 HD 
ENDBRANCH   7  18
ENDBRANCH   5   6
ENDBRANCH   4   5
BRANCH   4  21
HETATM   21  C   UNL     1     -10.876  13.103  65.313  1.00  0.00    -0.297 C  
HETATM   22  H   UNL     1     -10.058  11.600  66.339  1.00  0.00     0.000 HD 
HETATM   23  O   UNL     1      -9.892  12.524  66.194  1.00  0.00    -0.251 OA 
BRANCH  21  24
HETATM   24  C   UNL     1     -10.869  12.281  64.020  1.00  0.00    -0.389 C  
HETATM   25  H   UNL     1     -10.202  10.518  63.452  1.00  0.00     0.000 HD 
HETATM   26  C   UNL     1     -12.262  11.953  63.506  1.00  0.00    -0.482 C  
HETATM   27  O   UNL     1     -10.206  11.027  64.254  1.00  0.00    -0.301 OA 
HETATM   28  O   UNL     1     -13.300  12.090  64.145  1.00  0.00    -0.725 OA 
ENDBRANCH  21  24
ENDBRANCH   4  21
ENDBRANCH   3   4
TORSDOF 6
ENDMDL
MODEL       28
REMARK 921   NORMALIZED FREE ENERGY PREDICTED BY IDOCK:   -5.54 KCAL/MOL
REMARK 922        TOTAL FREE ENERGY PREDICTED BY IDOCK:   -8.69 KCAL/MOL
REMARK 923 INTER-LIGAND FREE ENERGY PREDICTED BY IDOCK:   -7.74 KCAL/MOL
REMARK 924 INTRA-LIGAND FREE ENERGY PREDICTED BY IDOCK:   -0.95 KCAL/MOL
REMARK 927      BINDING AFFINITY PREDICTED BY RF-SCORE:    0.00 PKD
ROOT
HETATM    1  O   UNL     1     -11.522  10.820  70.917  1.00  0.00    -0.350 OA 
HETATM    2  H   UNL     1     -11.725   9.892  70.890  1.00  0.00     0.000 HD 
HETATM    3  C   UNL     1     -12.130  11.567  69.874  1.00  0.00    -0.316 C  
ENDROOT
BRANCH   3   4
HETATM    4  C   UNL     1     -11.801  13.078  69.918  1.00  0.00    -0.307 C  
BRANCH   4   5
HETATM    5  O   UNL     1     -12.197  13.828  68.755  1.00  0.00    -0.350 OA 
BRANCH   5   6
HETATM    6  C   UNL     1     -11.222  13.893  67.718  1.00  0.00    -0.293 C  
HETATM    7  C   UNL     1      -9.833  15.406  66.473  1.00  0.00    -0.272 C  
HETATM    8  O   UNL     1     -10.858  15.263  67.475  1.00  0.00    -0.289 OA 
HETATM    9  H   UNL     1     -12.494  11.476  65.832  1.00  0.00     0.000 HD 
HETATM   10  C   UNL     1     -10.268  14.807  65.128  1.00  0.00    -0.377 C  
HETATM   11  O   UNL     1     -12.158  11.875  66.626  1.00  0.00    -0.587 OA 
HETATM   12  O   UNL     1     -11.400  15.472  64.547  1.00  0.00    -0.621 OA 
HETATM   13  C   UNL     1     -10.668  13.341  65.344  1.00  0.00    -0.297 C  
HETATM   14  H   UNL     1     -11.670  15.101  63.714  1.00  0.00     0.000 HD 
HETATM   15  H   UNL     1     -11.312  11.852  64.231  1.00  0.00     0.000 HD 
HETATM   16  O   UNL     1     -11.065  12.759  64.097  1.00  0.00    -0.342 OA 
HETATM   17  C   UNL     1     -11.773  13.241  66.418  1.00  0.00    -0.373 C  
BRANCH   7  18
HETATM   18  C   UNL     1      -9.495  16.894  66.349  1.00  0.00    -0.283 C  
HETATM   19  O   UNL     1     -10.694  17.666  66.350  1.00  0.00    -0.239 OA 
HETATM   20  H   UNL     1     -10.484  18.589  66.274  1.00  0.00     0.000 HD 
ENDBRANCH   7  18
ENDBRANCH   5   6
ENDBRANCH   4   5
BRANCH   4  21
HETATM   21  C   UNL     1     -12.397  13.741  71.196  1.00  0.00    -0.345 C  
HETATM   22  H   UNL     1     -13.986  13.499  72.381  1.00  0.00     0.000 HD 
HETATM   23  O   UNL     1     -13.621  13.095  71.602  1.00  0.00    -0.304 OA 
BRANCH  21  24
HETATM   24  C   UNL     1     -12.709  15.230  71.011  1.00  0.00    -0.424 C  
HETATM   25  H   UNL     1     -14.326  16.344  70.872  1.00  0.00     0.000 HD 
HETATM   26  C   UNL     1     -12.165  16.104  72.130  1.00  0.00    -0.473 C  
HETATM   27  O   UNL     1     -14.133  15.422  70.987  1.00  0.00    -0.467 OA 
HETATM   28  O   UNL     1     -11.739  15.691  73.203  1.00  0.00    -0.436 OA 
ENDBRANCH  21  24
ENDBRANCH   4  21
ENDBRANCH   3   4
TORSDOF 6
ENDMDL
MODEL       29
REMARK 921   NORMALIZED FREE ENERGY PREDICTED BY IDOCK:   -5.54 KCAL/MOL
REMARK 922        TOTAL FREE ENERGY PREDICTED BY IDOCK:   -8.68 KCAL/MOL
REMARK 923 INTER-LIGAND FREE ENERGY PREDICTED BY IDOCK:   -7.68 KCAL/MOL
REMARK 924 INTRA-LIGAND FREE ENERGY PREDICTED BY IDOCK:   -1.00 KCAL/MOL
REMARK 927      BINDING AFFINITY PREDICTED BY RF-SCORE:    0.00 PKD
ROOT
HETATM    1  O   UNL     1     -13.537  15.575  70.353  1.00  0.00    -0.806 OA 
HETATM    2  H   UNL     1     -13.889  15.522  71.234  1.00  0.00     0.000 HD 
HETATM    3  C   UNL     1     -12.119  15.559  70.304  1.00  0.00    -0.386 C  
ENDROOT
BRANCH   3   4
HETATM    4  C   UNL     1     -11.545  15.645  68.869  1.00  0.00    -0.383 C  
BRANCH   4   5
HETATM    5  O   UNL     1     -10.112  15.747  68.785  1.00  0.00    -0.203 OA 
BRANCH   5   6
HETATM    6  C   UNL     1      -9.613  17.066  68.577  1.00  0.00    -0.273 C  
HETATM    7  C   UNL     1      -9.883  19.036  67.230  1.00  0.00    -0.326 C  
HETATM    8  O   UNL     1     -10.296  17.677  67.469  1.00  0.00    -0.337 OA 
HETATM    9  H   UNL     1      -6.430  16.389  69.233  1.00  0.00     0.000 HD 
HETATM   10  C   UNL     1      -8.377  19.128  66.941  1.00  0.00    -0.285 C  
HETATM   11  O   UNL     1      -7.366  16.413  69.394  1.00  0.00    -0.233 OA 
HETATM   12  O   UNL     1      -7.984  18.442  65.742  1.00  0.00    -0.509 OA 
HETATM   13  C   UNL     1      -7.609  18.482  68.102  1.00  0.00    -0.274 C  
HETATM   14  H   UNL     1      -7.052  18.499  65.563  1.00  0.00     0.000 HD 
HETATM   15  H   UNL     1      -5.725  18.171  68.577  1.00  0.00     0.000 HD 
HETATM   16  O   UNL     1      -6.201  18.570  67.858  1.00  0.00    -0.185 OA 
HETATM   17  C   UNL     1      -8.081  17.028  68.312  1.00  0.00    -0.228 C  
BRANCH   7  18
HETATM   18  C   UNL     1     -10.718  19.590  66.072  1.00  0.00    -0.430 C  
HETATM   19  O   UNL     1     -10.775  18.635  65.016  1.00  0.00    -0.449 OA 
HETATM   20  H   UNL     1     -11.293  18.978  64.297  1.00  0.00     0.000 HD 
ENDBRANCH   7  18
ENDBRANCH   5   6
ENDBRANCH   4   5
BRANCH   4  21
HETATM   21  C   UNL     1     -12.035  14.447  68.002  1.00  0.00    -0.291 C  
HETATM   22  H   UNL     1     -12.284  12.477  68.209  1.00  0.00     0.000 HD 
HETATM   23  O   UNL     1     -11.985  13.208  68.738  1.00  0.00    -0.318 OA 
BRANCH  21  24
HETATM   24  C   UNL     1     -11.208  14.252  66.726  1.00  0.00    -0.332 C  
HETATM   25  H   UNL     1      -9.953  12.904  66.031  1.00  0.00     0.000 HD 
HETATM   26  C   UNL     1     -12.055  14.157  65.466  1.00  0.00    -0.414 C  
HETATM   27  O   UNL     1     -10.465  13.025  66.821  1.00  0.00    -0.256 OA 
HETATM   28  O   UNL     1     -13.271  13.998  65.445  1.00  0.00    -0.761 OA 
ENDBRANCH  21  24
ENDBRANCH   4  21
ENDBRANCH   3   4
TORSDOF 6
ENDMDL
MODEL       30
REMARK 921   NORMALIZED FREE ENERGY PREDICTED BY IDOCK:   -5.54 KCAL/MOL
REMARK 922        TOTAL FREE ENERGY PREDICTED BY IDOCK:   -8.68 KCAL/MOL
REMARK 923 INTER-LIGAND FREE ENERGY PREDICTED BY IDOCK:   -7.62 KCAL/MOL
REMARK 924 INTRA-LIGAND FREE ENERGY PREDICTED BY IDOCK:   -1.06 KCAL/MOL
REMARK 927      BINDING AFFINITY PREDICTED BY RF-SCORE:    0.00 PKD
ROOT
HETATM    1  O   UNL     1     -12.075  16.136  63.651  1.00  0.00    -1.288 OA 
HETATM    2  H   UNL     1     -12.888  16.219  63.165  1.00  0.00     0.000 HD 
HETATM    3  C   UNL     1     -11.963  14.918  64.370  1.00  0.00    -0.394 C  
ENDROOT
BRANCH   3   4
HETATM    4  C   UNL     1     -10.641  14.782  65.162  1.00  0.00    -0.417 C  
BRANCH   4   5
HETATM    5  O   UNL     1     -10.590  15.506  66.404  1.00  0.00    -0.301 OA 
BRANCH   5   6
HETATM    6  C   UNL     1      -9.548  16.474  66.496  1.00  0.00    -0.271 C  
HETATM    7  C   UNL     1      -7.716  17.207  67.867  1.00  0.00    -0.184 C  
HETATM    8  O   UNL     1      -8.823  16.297  67.726  1.00  0.00    -0.186 OA 
HETATM    9  H   UNL     1     -11.239  18.999  65.162  1.00  0.00     0.000 HD 
HETATM   10  C   UNL     1      -8.177  18.671  67.819  1.00  0.00    -0.255 C  
HETATM   11  O   UNL     1     -10.878  18.122  65.209  1.00  0.00    -0.628 OA 
HETATM   12  O   UNL     1      -9.046  19.030  68.904  1.00  0.00    -0.343 OA 
HETATM   13  C   UNL     1      -8.959  18.903  66.520  1.00  0.00    -0.323 C  
HETATM   14  H   UNL     1      -9.332  19.936  68.875  1.00  0.00     0.000 HD 
HETATM   15  H   UNL     1      -9.870  20.412  65.645  1.00  0.00     0.000 HD 
HETATM   16  O   UNL     1      -9.386  20.268  66.450  1.00  0.00    -0.340 OA 
HETATM   17  C   UNL     1     -10.138  17.911  66.420  1.00  0.00    -0.369 C  
BRANCH   7  18
HETATM   18  C   UNL     1      -6.997  16.880  69.178  1.00  0.00    -0.234 C  
HETATM   19  O   UNL     1      -6.384  18.055  69.701  1.00  0.00    -0.246 OA 
HETATM   20  H   UNL     1      -5.938  17.853  70.515  1.00  0.00     0.000 HD 
ENDBRANCH   7  18
ENDBRANCH   5   6
ENDBRANCH   4   5
BRANCH   4  21
HETATM   21  C   UNL     1     -10.296  13.284  65.415  1.00  0.00    -0.306 C  
HETATM   22  H   UNL     1     -10.589  11.527  64.513  1.00  0.00     0.000 HD 
HETATM   23  O   UNL     1     -10.799  12.441  64.358  1.00  0.00    -0.297 OA 
BRANCH  21  24
HETATM   24  C   UNL     1     -10.869  12.751  66.733  1.00  0.00    -0.264 C  
HETATM   25  H   UNL     1     -12.481  11.773  67.298  1.00  0.00     0.000 HD 
HETATM   26  C   UNL     1      -9.973  11.726  67.411  1.00  0.00    -0.184 C  
HETATM   27  O   UNL     1     -12.127  12.103  66.481  1.00  0.00    -0.627 OA 
HETATM   28  O   UNL     1      -9.015  11.169  66.884  1.00  0.00    -0.154 OA 
ENDBRANCH  21  24
ENDBRANCH   4  21
ENDBRANCH   3   4
TORSDOF 6
ENDMDL
MODEL       31
REMARK 921   NORMALIZED FREE ENERGY PREDICTED BY IDOCK:   -5.52 KCAL/MOL
REMARK 922        TOTAL FREE ENERGY PREDICTED BY IDOCK:   -8.66 KCAL/MOL
REMARK 923 INTER-LIGAND FREE ENERGY PREDICTED BY IDOCK:   -7.69 KCAL/MOL
REMARK 924 INTRA-LIGAND FREE ENERGY PREDICTED BY IDOCK:   -0.97 KCAL/MOL
REMARK 927      BINDING AFFINITY PREDICTED BY RF-SCORE:    0.00 PKD
ROOT
HETATM    1  O   UNL     1     -11.408  16.690  64.067  1.00  0.00    -1.486 OA 
HETATM    2  H   UNL     1     -11.393  16.482  63.140  1.00  0.00     0.000 HD 
HETATM    3  C   UNL     1     -10.532  15.890  64.846  1.00  0.00    -0.144 C  
ENDROOT
BRANCH   3   4
HETATM    4  C   UNL     1     -10.557  16.229  66.355  1.00  0.00    -0.253 C  
BRANCH   4   5
HETATM    5  O   UNL     1     -10.078  15.189  67.227  1.00  0.00    -0.233 OA 
BRANCH   5   6
HETATM    6  C   UNL     1     -11.067  14.254  67.650  1.00  0.00    -0.292 C  
HETATM    7  C   UNL     1     -12.301  13.491  69.564  1.00  0.00    -0.147 C  
HETATM    8  O   UNL     1     -11.273  14.369  69.069  1.00  0.00    -0.240 OA 
HETATM    9  H   UNL     1     -10.142  11.771  65.650  1.00  0.00     0.000 HD 
HETATM   10  C   UNL     1     -11.977  12.018  69.271  1.00  0.00    -0.270 C  
HETATM   11  O   UNL     1     -10.407  12.656  65.875  1.00  0.00    -0.265 OA 
HETATM   12  O   UNL     1     -10.791  11.553  69.933  1.00  0.00    -0.453 OA 
HETATM   13  C   UNL     1     -11.747  11.851  67.764  1.00  0.00    -0.292 C  
HETATM   14  H   UNL     1     -10.590  10.642  69.752  1.00  0.00     0.000 HD 
HETATM   15  H   UNL     1     -11.316  10.377  66.534  1.00  0.00     0.000 HD 
HETATM   16  O   UNL     1     -11.458  10.481  67.468  1.00  0.00    -0.431 OA 
HETATM   17  C   UNL     1     -10.633  12.806  67.283  1.00  0.00    -0.233 C  
BRANCH   7  18
HETATM   18  C   UNL     1     -12.463  13.749  71.065  1.00  0.00    -0.380 C  
HETATM   19  O   UNL     1     -13.155  12.661  71.672  1.00  0.00    -0.402 OA 
HETATM   20  H   UNL     1     -13.256  12.821  72.603  1.00  0.00     0.000 HD 
ENDBRANCH   7  18
ENDBRANCH   5   6
ENDBRANCH   4   5
BRANCH   4  21
HETATM   21  C   UNL     1      -9.780  17.549  66.641  1.00  0.00    -0.299 C  
HETATM   22  H   UNL     1      -9.573  19.351  65.808  1.00  0.00     0.000 HD 
HETATM   23  O   UNL     1     -10.046  18.546  65.633  1.00  0.00    -0.506 OA 
BRANCH  21  24
HETATM   24  C   UNL     1      -8.262  17.353  66.698  1.00  0.00    -0.256 C  
HETATM   25  H   UNL     1      -6.708  17.917  65.628  1.00  0.00     0.000 HD 
HETATM   26  C   UNL     1      -7.628  17.904  67.965  1.00  0.00    -0.238 C  
HETATM   27  O   UNL     1      -7.649  18.039  65.593  1.00  0.00    -0.545 OA 
HETATM   28  O   UNL     1      -8.184  18.650  68.764  1.00  0.00    -0.321 OA 
ENDBRANCH  21  24
ENDBRANCH   4  21
ENDBRANCH   3   4
TORSDOF 6
ENDMDL
MODEL       32
REMARK 921   NORMALIZED FREE ENERGY PREDICTED BY IDOCK:   -5.52 KCAL/MOL
REMARK 922        TOTAL FREE ENERGY PREDICTED BY IDOCK:   -8.66 KCAL/MOL
REMARK 923 INTER-LIGAND FREE ENERGY PREDICTED BY IDOCK:   -8.38 KCAL/MOL
REMARK 924 INTRA-LIGAND FREE ENERGY PREDICTED BY IDOCK:   -0.28 KCAL/MOL
REMARK 927      BINDING AFFINITY PREDICTED BY RF-SCORE:    0.00 PKD
ROOT
HETATM    1  O   UNL     1     -11.195  16.821  64.097  1.00  0.00    -1.415 OA 
HETATM    2  H   UNL     1     -11.933  17.122  63.579  1.00  0.00     0.000 HD 
HETATM    3  C   UNL     1     -10.911  17.644  65.217  1.00  0.00     0.194 C  
ENDROOT
BRANCH   3   4
HETATM    4  C   UNL     1      -9.710  17.154  66.061  1.00  0.00    -0.189 C  
BRANCH   4   5
HETATM    5  O   UNL     1      -9.046  15.979  65.560  1.00  0.00    -0.320 OA 
BRANCH   5   6
HETATM    6  C   UNL     1      -9.684  14.745  65.878  1.00  0.00    -0.323 C  
HETATM    7  C   UNL     1     -11.066  13.002  64.970  1.00  0.00    -0.294 C  
HETATM    8  O   UNL     1     -10.434  14.276  64.744  1.00  0.00    -0.431 OA 
HETATM    9  H   UNL     1     -10.479  15.508  69.009  1.00  0.00     0.000 HD 
HETATM   10  C   UNL     1     -12.032  13.054  66.162  1.00  0.00    -0.427 C  
HETATM   11  O   UNL     1      -9.907  15.400  68.258  1.00  0.00    -0.210 OA 
HETATM   12  O   UNL     1     -13.139  13.946  65.960  1.00  0.00    -0.404 OA 
HETATM   13  C   UNL     1     -11.271  13.553  67.397  1.00  0.00    -0.295 C  
HETATM   14  H   UNL     1     -13.738  13.978  66.698  1.00  0.00     0.000 HD 
HETATM   15  H   UNL     1     -11.681  13.903  69.290  1.00  0.00     0.000 HD 
HETATM   16  O   UNL     1     -12.153  13.595  68.525  1.00  0.00    -0.364 OA 
HETATM   17  C   UNL     1     -10.620  14.922  67.107  1.00  0.00    -0.285 C  
BRANCH   7  18
HETATM   18  C   UNL     1     -11.778  12.589  63.679  1.00  0.00    -0.515 C  
HETATM   19  O   UNL     1     -12.386  13.728  63.075  1.00  0.00    -1.089 OA 
HETATM   20  H   UNL     1     -12.828  13.471  62.274  1.00  0.00     0.000 HD 
ENDBRANCH   7  18
ENDBRANCH   5   6
ENDBRANCH   4   5
BRANCH   4  21
HETATM   21  C   UNL     1      -8.670  18.296  66.264  1.00  0.00    -0.178 C  
HETATM   22  H   UNL     1      -6.832  18.751  65.631  1.00  0.00     0.000 HD 
HETATM   23  O   UNL     1      -7.467  18.054  65.507  1.00  0.00    -0.538 OA 
BRANCH  21  24
HETATM   24  C   UNL     1      -8.257  18.478  67.728  1.00  0.00    -0.251 C  
HETATM   25  H   UNL     1      -6.850  19.448  68.705  1.00  0.00     0.000 HD 
HETATM   26  C   UNL     1      -9.337  19.120  68.585  1.00  0.00    -0.388 C  
HETATM   27  O   UNL     1      -7.106  19.336  67.798  1.00  0.00    -0.230 OA 
HETATM   28  O   UNL     1     -10.342  19.675  68.153  1.00  0.00    -0.428 OA 
ENDBRANCH  21  24
ENDBRANCH   4  21
ENDBRANCH   3   4
TORSDOF 6
ENDMDL
MODEL       33
REMARK 921   NORMALIZED FREE ENERGY PREDICTED BY IDOCK:   -5.51 KCAL/MOL
REMARK 922        TOTAL FREE ENERGY PREDICTED BY IDOCK:   -8.65 KCAL/MOL
REMARK 923 INTER-LIGAND FREE ENERGY PREDICTED BY IDOCK:   -7.87 KCAL/MOL
REMARK 924 INTRA-LIGAND FREE ENERGY PREDICTED BY IDOCK:   -0.78 KCAL/MOL
REMARK 927      BINDING AFFINITY PREDICTED BY RF-SCORE:    0.00 PKD
ROOT
HETATM    1  O   UNL     1     -12.683  15.230  69.969  1.00  0.00    -0.585 OA 
HETATM    2  H   UNL     1     -13.026  15.413  70.836  1.00  0.00     0.000 HD 
HETATM    3  C   UNL     1     -11.276  15.378  69.868  1.00  0.00    -0.299 C  
ENDROOT
BRANCH   3   4
HETATM    4  C   UNL     1     -10.718  15.081  68.456  1.00  0.00    -0.244 C  
BRANCH   4   5
HETATM    5  O   UNL     1     -11.707  14.930  67.423  1.00  0.00    -0.356 OA 
BRANCH   5   6
HETATM    6  C   UNL     1     -11.662  13.689  66.722  1.00  0.00    -0.392 C  
HETATM    7  C   UNL     1     -10.181  11.950  65.980  1.00  0.00    -0.229 C  
HETATM    8  O   UNL     1     -10.303  13.229  66.630  1.00  0.00    -0.267 OA 
HETATM    9  H   UNL     1     -14.004  14.417  64.485  1.00  0.00     0.000 HD 
HETATM   10  C   UNL     1     -10.745  11.985  64.552  1.00  0.00    -0.312 C  
HETATM   11  O   UNL     1     -13.629  14.319  65.353  1.00  0.00    -0.516 OA 
HETATM   12  O   UNL     1     -10.031  12.874  63.679  1.00  0.00    -0.708 OA 
HETATM   13  C   UNL     1     -12.198  12.474  64.605  1.00  0.00    -0.453 C  
HETATM   14  H   UNL     1     -10.380  12.895  62.795  1.00  0.00     0.000 HD 
HETATM   15  H   UNL     1     -13.647  12.803  63.315  1.00  0.00     0.000 HD 
HETATM   16  O   UNL     1     -12.747  12.500  63.282  1.00  0.00    -0.678 OA 
HETATM   17  C   UNL     1     -12.275  13.850  65.302  1.00  0.00    -0.433 C  
BRANCH   7  18
HETATM   18  C   UNL     1      -8.704  11.547  65.998  1.00  0.00    -0.095 C  
HETATM   19  O   UNL     1      -8.350  10.948  64.754  1.00  0.00    -0.361 OA 
HETATM   20  H   UNL     1      -7.433  10.698  64.765  1.00  0.00     0.000 HD 
ENDBRANCH   7  18
ENDBRANCH   5   6
ENDBRANCH   4   5
BRANCH   4  21
HETATM   21  C   UNL     1      -9.678  16.162  68.031  1.00  0.00    -0.229 C  
HETATM   22  H   UNL     1      -8.036  17.009  68.785  1.00  0.00     0.000 HD 
HETATM   23  O   UNL     1      -8.669  16.350  69.044  1.00  0.00    -0.248 OA 
BRANCH  21  24
HETATM   24  C   UNL     1     -10.312  17.530  67.761  1.00  0.00    -0.367 C  
HETATM   25  H   UNL     1      -9.825  19.414  68.061  1.00  0.00     0.000 HD 
HETATM   26  C   UNL     1     -10.563  17.799  66.285  1.00  0.00    -0.220 C  
HETATM   27  O   UNL     1      -9.432  18.566  68.228  1.00  0.00    -0.308 OA 
HETATM   28  O   UNL     1     -10.102  17.138  65.360  1.00  0.00    -0.571 OA 
ENDBRANCH  21  24
ENDBRANCH   4  21
ENDBRANCH   3   4
TORSDOF 6
ENDMDL
MODEL       34
REMARK 921   NORMALIZED FREE ENERGY PREDICTED BY IDOCK:   -5.49 KCAL/MOL
REMARK 922        TOTAL FREE ENERGY PREDICTED BY IDOCK:   -8.62 KCAL/MOL
REMARK 923 INTER-LIGAND FREE ENERGY PREDICTED BY IDOCK:   -7.52 KCAL/MOL
REMARK 924 INTRA-LIGAND FREE ENERGY PREDICTED BY IDOCK:   -1.10 KCAL/MOL
REMARK 927      BINDING AFFINITY PREDICTED BY RF-SCORE:    0.00 PKD
ROOT
HETATM    1  O   UNL     1     -10.812  10.843  63.854  1.00  0.00    -0.509 OA 
HETATM    2  H   UNL     1     -10.319  10.525  63.107  1.00  0.00     0.000 HD 
HETATM    3  C   UNL     1     -10.091  11.755  64.667  1.00  0.00    -0.272 C  
ENDROOT
BRANCH   3   4
HETATM    4  C   UNL     1     -10.894  12.273  65.884  1.00  0.00    -0.271 C  
BRANCH   4   5
HETATM    5  O   UNL     1     -10.108  12.882  66.925  1.00  0.00    -0.234 OA 
BRANCH   5   6
HETATM    6  C   UNL     1     -10.245  12.284  68.211  1.00  0.00    -0.220 C  
HETATM    7  C   UNL     1     -10.436  10.173  69.342  1.00  0.00    -0.233 C  
HETATM    8  O   UNL     1     -10.349  10.856  68.077  1.00  0.00    -0.174 OA 
HETATM    9  H   UNL     1     -12.199  14.622  69.526  1.00  0.00     0.000 HD 
HETATM   10  C   UNL     1     -11.652  10.641  70.155  1.00  0.00    -0.330 C  
HETATM   11  O   UNL     1     -11.434  14.276  69.082  1.00  0.00    -0.257 OA 
HETATM   12  O   UNL     1     -12.908  10.343  69.526  1.00  0.00    -0.632 OA 
HETATM   13  C   UNL     1     -11.581  12.165  70.320  1.00  0.00    -0.017 C  
HETATM   14  H   UNL     1     -13.660  10.633  70.029  1.00  0.00     0.000 HD 
HETATM   15  H   UNL     1     -12.656  13.564  71.192  1.00  0.00     0.000 HD 
HETATM   16  O   UNL     1     -12.700  12.621  71.089  1.00  0.00    -0.358 OA 
HETATM   17  C   UNL     1     -11.497  12.850  68.939  1.00  0.00    -0.304 C  
BRANCH   7  18
HETATM   18  C   UNL     1     -10.482   8.667  69.067  1.00  0.00    -0.199 C  
HETATM   19  O   UNL     1     -11.158   8.419  67.837  1.00  0.00    -0.470 OA 
HETATM   20  H   UNL     1     -11.186   7.485  67.666  1.00  0.00     0.000 HD 
ENDBRANCH   7  18
ENDBRANCH   5   6
ENDBRANCH   4   5
BRANCH   4  21
HETATM   21  C   UNL     1     -12.015  13.256  65.432  1.00  0.00    -0.395 C  
HETATM   22  H   UNL     1     -13.824  13.149  64.595  1.00  0.00     0.000 HD 
HETATM   23  O   UNL     1     -13.140  12.550  64.871  1.00  0.00    -0.833 OA 
BRANCH  21  24
HETATM   24  C   UNL     1     -11.541  14.264  64.380  1.00  0.00    -0.344 C  
HETATM   25  H   UNL     1     -12.366  15.311  62.930  1.00  0.00     0.000 HD 
HETATM   26  C   UNL     1     -10.929  15.521  64.979  1.00  0.00    -0.440 C  
HETATM   27  O   UNL     1     -12.660  14.686  63.582  1.00  0.00    -0.773 OA 
HETATM   28  O   UNL     1     -11.010  15.850  66.158  1.00  0.00    -0.254 OA 
ENDBRANCH  21  24
ENDBRANCH   4  21
ENDBRANCH   3   4
TORSDOF 6
ENDMDL
MODEL       35
REMARK 921   NORMALIZED FREE ENERGY PREDICTED BY IDOCK:   -5.49 KCAL/MOL
REMARK 922        TOTAL FREE ENERGY PREDICTED BY IDOCK:   -8.62 KCAL/MOL
REMARK 923 INTER-LIGAND FREE ENERGY PREDICTED BY IDOCK:   -7.62 KCAL/MOL
REMARK 924 INTRA-LIGAND FREE ENERGY PREDICTED BY IDOCK:   -1.00 KCAL/MOL
REMARK 927      BINDING AFFINITY PREDICTED BY RF-SCORE:    0.00 PKD
ROOT
HETATM    1  O   UNL     1     -10.952   8.533  67.457  1.00  0.00    -0.495 OA 
HETATM    2  H   UNL     1     -10.374   8.043  66.883  1.00  0.00     0.000 HD 
HETATM    3  C   UNL     1     -10.542   9.875  67.668  1.00  0.00    -0.270 C  
ENDROOT
BRANCH   3   4
HETATM    4  C   UNL     1     -11.482  10.673  68.603  1.00  0.00    -0.263 C  
BRANCH   4   5
HETATM    5  O   UNL     1     -10.979  10.902  69.931  1.00  0.00    -0.257 OA 
BRANCH   5   6
HETATM    6  C   UNL     1     -11.303   9.889  70.881  1.00  0.00    -0.370 C  
HETATM    7  C   UNL     1     -11.356   7.511  71.218  1.00  0.00    -0.261 C  
HETATM    8  O   UNL     1     -11.100   8.590  70.298  1.00  0.00    -0.248 OA 
HETATM    9  H   UNL     1     -13.919  11.430  72.221  1.00  0.00     0.000 HD 
HETATM   10  C   UNL     1     -12.796   7.550  71.749  1.00  0.00    -0.327 C  
HETATM   11  O   UNL     1     -13.019  11.335  71.932  1.00  0.00    -0.456 OA 
HETATM   12  O   UNL     1     -13.786   7.361  70.727  1.00  0.00    -0.577 OA 
HETATM   13  C   UNL     1     -13.056   8.925  72.379  1.00  0.00    -0.418 C  
HETATM   14  H   UNL     1     -14.678   7.385  71.055  1.00  0.00     0.000 HD 
HETATM   15  H   UNL     1     -14.551   9.827  73.285  1.00  0.00     0.000 HD 
HETATM   16  O   UNL     1     -14.391   8.976  72.894  1.00  0.00    -0.550 OA 
HETATM   17  C   UNL     1     -12.776  10.045  71.354  1.00  0.00    -0.415 C  
BRANCH   7  18
HETATM   18  C   UNL     1     -11.050   6.194  70.500  1.00  0.00    -0.337 C  
HETATM   19  O   UNL     1     -11.759   6.138  69.265  1.00  0.00    -0.384 OA 
HETATM   20  H   UNL     1     -11.569   5.321  68.820  1.00  0.00     0.000 HD 
ENDBRANCH   7  18
ENDBRANCH   5   6
ENDBRANCH   4   5
BRANCH   4  21
HETATM   21  C   UNL     1     -11.887  12.032  67.956  1.00  0.00    -0.269 C  
HETATM   22  H   UNL     1     -12.235  12.751  66.127  1.00  0.00     0.000 HD 
HETATM   23  O   UNL     1     -11.988  11.923  66.521  1.00  0.00    -0.588 OA 
BRANCH  21  24
HETATM   24  C   UNL     1     -10.895  13.160  68.258  1.00  0.00    -0.253 C  
HETATM   25  H   UNL     1     -10.099  14.664  67.269  1.00  0.00     0.000 HD 
HETATM   26  C   UNL     1     -11.362  14.094  69.364  1.00  0.00    -0.272 C  
HETATM   27  O   UNL     1     -10.713  13.965  67.082  1.00  0.00    -0.279 OA 
HETATM   28  O   UNL     1     -12.500  14.134  69.819  1.00  0.00    -0.332 OA 
ENDBRANCH  21  24
ENDBRANCH   4  21
ENDBRANCH   3   4
TORSDOF 6
ENDMDL
MODEL       36
REMARK 921   NORMALIZED FREE ENERGY PREDICTED BY IDOCK:   -5.45 KCAL/MOL
REMARK 922        TOTAL FREE ENERGY PREDICTED BY IDOCK:   -8.56 KCAL/MOL
REMARK 923 INTER-LIGAND FREE ENERGY PREDICTED BY IDOCK:   -7.45 KCAL/MOL
REMARK 924 INTRA-LIGAND FREE ENERGY PREDICTED BY IDOCK:   -1.12 KCAL/MOL
REMARK 927      BINDING AFFINITY PREDICTED BY RF-SCORE:    0.00 PKD
ROOT
HETATM    1  O   UNL     1     -12.470  14.997  68.772  1.00  0.00    -0.586 OA 
HETATM    2  H   UNL     1     -12.675  15.717  69.357  1.00  0.00     0.000 HD 
HETATM    3  C   UNL     1     -11.757  13.941  69.395  1.00  0.00    -0.315 C  
ENDROOT
BRANCH   3   4
HETATM    4  C   UNL     1     -11.423  12.768  68.443  1.00  0.00    -0.311 C  
BRANCH   4   5
HETATM    5  O   UNL     1     -12.169  11.559  68.671  1.00  0.00    -0.492 OA 
BRANCH   5   6
HETATM    6  C   UNL     1     -11.529  10.606  69.516  1.00  0.00    -0.291 C  
HETATM    7  C   UNL     1     -10.511   8.430  69.540  1.00  0.00    -0.224 C  
HETATM    8  O   UNL     1     -11.211   9.422  68.764  1.00  0.00    -0.020 OA 
HETATM    9  H   UNL     1     -13.357  11.194  72.224  1.00  0.00     0.000 HD 
HETATM   10  C   UNL     1     -11.330   7.986  70.761  1.00  0.00    -0.272 C  
HETATM   11  O   UNL     1     -12.796  11.411  71.488  1.00  0.00    -0.419 OA 
HETATM   12  O   UNL     1     -12.561   7.333  70.414  1.00  0.00    -0.572 OA 
HETATM   13  C   UNL     1     -11.694   9.223  71.591  1.00  0.00    -0.392 C  
HETATM   14  H   UNL     1     -13.068   7.058  71.170  1.00  0.00     0.000 HD 
HETATM   15  H   UNL     1     -12.671   9.594  73.259  1.00  0.00     0.000 HD 
HETATM   16  O   UNL     1     -12.446   8.828  72.744  1.00  0.00    -0.308 OA 
HETATM   17  C   UNL     1     -12.448  10.250  70.720  1.00  0.00    -0.346 C  
BRANCH   7  18
HETATM   18  C   UNL     1     -10.181   7.253  68.618  1.00  0.00    -0.182 C  
HETATM   19  O   UNL     1     -11.288   6.979  67.764  1.00  0.00    -0.541 OA 
HETATM   20  H   UNL     1     -11.083   6.249  67.193  1.00  0.00     0.000 HD 
ENDBRANCH   7  18
ENDBRANCH   5   6
ENDBRANCH   4   5
BRANCH   4  21
HETATM   21  C   UNL     1     -11.572  13.202  66.953  1.00  0.00    -0.368 C  
HETATM   22  H   UNL     1     -12.222  12.407  65.242  1.00  0.00     0.000 HD 
HETATM   23  O   UNL     1     -12.132  12.143  66.150  1.00  0.00    -0.621 OA 
BRANCH  21  24
HETATM   24  C   UNL     1     -10.242  13.607  66.310  1.00  0.00    -0.296 C  
HETATM   25  H   UNL     1      -9.399  13.429  64.540  1.00  0.00     0.000 HD 
HETATM   26  C   UNL     1     -10.006  15.109  66.306  1.00  0.00    -0.288 C  
HETATM   27  O   UNL     1     -10.223  13.178  64.938  1.00  0.00    -0.316 OA 
HETATM   28  O   UNL     1     -10.858  15.957  66.547  1.00  0.00    -0.291 OA 
ENDBRANCH  21  24
ENDBRANCH   4  21
ENDBRANCH   3   4
TORSDOF 6
ENDMDL
MODEL       37
REMARK 921   NORMALIZED FREE ENERGY PREDICTED BY IDOCK:   -5.44 KCAL/MOL
REMARK 922        TOTAL FREE ENERGY PREDICTED BY IDOCK:   -8.55 KCAL/MOL
REMARK 923 INTER-LIGAND FREE ENERGY PREDICTED BY IDOCK:   -7.40 KCAL/MOL
REMARK 924 INTRA-LIGAND FREE ENERGY PREDICTED BY IDOCK:   -1.15 KCAL/MOL
REMARK 927      BINDING AFFINITY PREDICTED BY RF-SCORE:    0.00 PKD
ROOT
HETATM    1  O   UNL     1     -10.226   9.874  65.666  1.00  0.00    -0.269 OA 
HETATM    2  H   UNL     1     -10.202   9.098  65.117  1.00  0.00     0.000 HD 
HETATM    3  C   UNL     1     -10.584   9.608  67.013  1.00  0.00    -0.197 C  
ENDROOT
BRANCH   3   4
HETATM    4  C   UNL     1     -10.622  10.870  67.907  1.00  0.00    -0.207 C  
BRANCH   4   5
HETATM    5  O   UNL     1     -11.868  11.590  67.903  1.00  0.00    -0.565 OA 
BRANCH   5   6
HETATM    6  C   UNL     1     -11.973  12.606  66.909  1.00  0.00    -0.275 C  
HETATM    7  C   UNL     1     -12.279  12.974  64.555  1.00  0.00    -0.416 C  
HETATM    8  O   UNL     1     -12.113  12.007  65.610  1.00  0.00    -0.508 OA 
HETATM    9  H   UNL     1      -9.777  14.699  68.256  1.00  0.00     0.000 HD 
HETATM   10  C   UNL     1     -11.089  13.941  64.482  1.00  0.00    -0.366 C  
HETATM   11  O   UNL     1     -10.542  14.136  68.233  1.00  0.00    -0.239 OA 
HETATM   12  O   UNL     1      -9.849  13.296  64.153  1.00  0.00    -0.707 OA 
HETATM   13  C   UNL     1     -10.903  14.603  65.854  1.00  0.00    -0.312 C  
HETATM   14  H   UNL     1      -9.112  13.895  64.107  1.00  0.00     0.000 HD 
HETATM   15  H   UNL     1      -9.689  15.931  66.651  1.00  0.00     0.000 HD 
HETATM   16  O   UNL     1      -9.805  15.521  65.802  1.00  0.00    -0.318 OA 
HETATM   17  C   UNL     1     -10.721  13.528  66.946  1.00  0.00    -0.274 C  
BRANCH   7  18
HETATM   18  C   UNL     1     -12.475  12.214  63.241  1.00  0.00    -0.411 C  
HETATM   19  O   UNL     1     -11.454  11.231  63.091  1.00  0.00    -0.850 OA 
HETATM   20  H   UNL     1     -11.576  10.760  62.276  1.00  0.00     0.000 HD 
ENDBRANCH   7  18
ENDBRANCH   5   6
ENDBRANCH   4   5
BRANCH   4  21
HETATM   21  C   UNL     1     -10.223  10.524  69.374  1.00  0.00    -0.221 C  
HETATM   22  H   UNL     1      -8.580   9.980  70.368  1.00  0.00     0.000 HD 
HETATM   23  O   UNL     1      -8.823  10.192  69.474  1.00  0.00    -0.185 OA 
BRANCH  21  24
HETATM   24  C   UNL     1     -11.013   9.343  69.948  1.00  0.00    -0.229 C  
HETATM   25  H   UNL     1     -10.630   7.792  71.098  1.00  0.00     0.000 HD 
HETATM   26  C   UNL     1     -12.162   9.766  70.850  1.00  0.00    -0.302 C  
HETATM   27  O   UNL     1     -10.140   8.524  70.743  1.00  0.00    -0.188 OA 
HETATM   28  O   UNL     1     -12.325  10.896  71.300  1.00  0.00    -0.358 OA 
ENDBRANCH  21  24
ENDBRANCH   4  21
ENDBRANCH   3   4
TORSDOF 6
ENDMDL
MODEL       38
REMARK 921   NORMALIZED FREE ENERGY PREDICTED BY IDOCK:   -5.42 KCAL/MOL
REMARK 922        TOTAL FREE ENERGY PREDICTED BY IDOCK:   -8.53 KCAL/MOL
REMARK 923 INTER-LIGAND FREE ENERGY PREDICTED BY IDOCK:   -7.88 KCAL/MOL
REMARK 924 INTRA-LIGAND FREE ENERGY PREDICTED BY IDOCK:   -0.65 KCAL/MOL
REMARK 927      BINDING AFFINITY PREDICTED BY RF-SCORE:    0.00 PKD
ROOT
HETATM    1  O   UNL     1     -11.539  16.513  63.942  1.00  0.00    -1.598 OA 
HETATM    2  H   UNL     1     -11.988  16.279  63.137  1.00  0.00     0.000 HD 
HETATM    3  C   UNL     1     -11.079  15.395  64.684  1.00  0.00    -0.347 C  
ENDROOT
BRANCH   3   4
HETATM    4  C   UNL     1     -10.348  15.775  65.994  1.00  0.00    -0.340 C  
BRANCH   4   5
HETATM    5  O   UNL     1      -9.117  15.072  66.238  1.00  0.00    -0.286 OA 
BRANCH   5   6
HETATM    6  C   UNL     1      -9.266  13.783  66.828  1.00  0.00    -0.244 C  
HETATM    7  C   UNL     1      -9.799  11.492  66.341  1.00  0.00    -0.205 C  
HETATM    8  O   UNL     1      -9.678  12.833  65.830  1.00  0.00    -0.258 OA 
HETATM    9  H   UNL     1     -10.567  14.817  69.702  1.00  0.00     0.000 HD 
HETATM   10  C   UNL     1     -10.816  11.413  67.489  1.00  0.00    -0.244 C  
HETATM   11  O   UNL     1      -9.932  14.783  68.995  1.00  0.00    -0.228 OA 
HETATM   12  O   UNL     1     -12.155  11.741  67.089  1.00  0.00    -0.592 OA 
HETATM   13  C   UNL     1     -10.413  12.416  68.578  1.00  0.00    -0.228 C  
HETATM   14  H   UNL     1     -12.784  11.692  67.799  1.00  0.00     0.000 HD 
HETATM   15  H   UNL     1     -11.092  12.968  70.341  1.00  0.00     0.000 HD 
HETATM   16  O   UNL     1     -11.342  12.347  69.666  1.00  0.00    -0.217 OA 
HETATM   17  C   UNL     1     -10.305  13.836  67.984  1.00  0.00    -0.246 C  
BRANCH   7  18
HETATM   18  C   UNL     1     -10.184  10.574  65.178  1.00  0.00    -0.288 C  
HETATM   19  O   UNL     1     -11.061  11.259  64.288  1.00  0.00    -0.333 OA 
HETATM   20  H   UNL     1     -11.299  10.689  63.566  1.00  0.00     0.000 HD 
ENDBRANCH   7  18
ENDBRANCH   5   6
ENDBRANCH   4   5
BRANCH   4  21
HETATM   21  C   UNL     1     -10.095  17.311  66.063  1.00  0.00    -0.262 C  
HETATM   22  H   UNL     1      -8.582  18.575  65.749  1.00  0.00     0.000 HD 
HETATM   23  O   UNL     1      -8.736  17.638  65.707  1.00  0.00    -0.511 OA 
BRANCH  21  24
HETATM   24  C   UNL     1     -10.355  17.900  67.453  1.00  0.00    -0.378 C  
HETATM   25  H   UNL     1      -9.296  18.260  69.073  1.00  0.00     0.000 HD 
HETATM   26  C   UNL     1     -10.845  19.340  67.417  1.00  0.00    -0.446 C  
HETATM   27  O   UNL     1      -9.134  17.895  68.211  1.00  0.00    -0.264 OA 
HETATM   28  O   UNL     1     -10.813  20.071  66.433  1.00  0.00    -0.364 OA 
ENDBRANCH  21  24
ENDBRANCH   4  21
ENDBRANCH   3   4
TORSDOF 6
ENDMDL
MODEL       39
REMARK 921   NORMALIZED FREE ENERGY PREDICTED BY IDOCK:   -5.39 KCAL/MOL
REMARK 922        TOTAL FREE ENERGY PREDICTED BY IDOCK:   -8.49 KCAL/MOL
REMARK 923 INTER-LIGAND FREE ENERGY PREDICTED BY IDOCK:   -7.49 KCAL/MOL
REMARK 924 INTRA-LIGAND FREE ENERGY PREDICTED BY IDOCK:   -1.00 KCAL/MOL
REMARK 927      BINDING AFFINITY PREDICTED BY RF-SCORE:    0.00 PKD
ROOT
HETATM    1  O   UNL     1      -8.578  11.602  62.661  1.00  0.00    -0.640 OA 
HETATM    2  H   UNL     1      -8.441  11.362  61.752  1.00  0.00     0.000 HD 
HETATM    3  C   UNL     1      -9.576  10.830  63.310  1.00  0.00    -0.350 C  
ENDROOT
BRANCH   3   4
HETATM    4  C   UNL     1      -9.800  11.220  64.790  1.00  0.00    -0.266 C  
BRANCH   4   5
HETATM    5  O   UNL     1     -11.165  11.157  65.244  1.00  0.00    -0.081 OA 
BRANCH   5   6
HETATM    6  C   UNL     1     -11.677  12.372  65.785  1.00  0.00    -0.414 C  
HETATM    7  C   UNL     1     -11.527  14.764  65.626  1.00  0.00    -0.327 C  
HETATM    8  O   UNL     1     -11.023  13.495  65.168  1.00  0.00    -0.299 OA 
HETATM    9  H   UNL     1     -11.972  11.312  68.917  1.00  0.00     0.000 HD 
HETATM   10  C   UNL     1     -11.365  14.923  67.145  1.00  0.00    -0.343 C  
HETATM   11  O   UNL     1     -12.099  11.292  67.975  1.00  0.00    -0.638 OA 
HETATM   12  O   UNL     1      -9.994  14.932  67.574  1.00  0.00    -0.219 OA 
HETATM   13  C   UNL     1     -12.048  13.740  67.844  1.00  0.00    -0.287 C  
HETATM   14  H   UNL     1      -9.894  15.030  68.514  1.00  0.00     0.000 HD 
HETATM   15  H   UNL     1     -12.343  13.145  69.696  1.00  0.00     0.000 HD 
HETATM   16  O   UNL     1     -11.920  13.877  69.263  1.00  0.00    -0.321 OA 
HETATM   17  C   UNL     1     -11.469  12.406  67.326  1.00  0.00    -0.354 C  
BRANCH   7  18
HETATM   18  C   UNL     1     -10.798  15.870  64.858  1.00  0.00    -0.400 C  
HETATM   19  O   UNL     1     -11.550  16.237  63.705  1.00  0.00    -1.539 OA 
HETATM   20  H   UNL     1     -11.097  16.923  63.229  1.00  0.00     0.000 HD 
ENDBRANCH   7  18
ENDBRANCH   5   6
ENDBRANCH   4   5
BRANCH   4  21
HETATM   21  C   UNL     1      -8.896  10.369  65.732  1.00  0.00    -0.170 C  
HETATM   22  H   UNL     1      -7.050   9.612  65.719  1.00  0.00     0.000 HD 
HETATM   23  O   UNL     1      -7.601  10.131  65.145  1.00  0.00    -0.134 OA 
BRANCH  21  24
HETATM   24  C   UNL     1      -9.501   9.003  66.070  1.00  0.00    -0.256 C  
HETATM   25  H   UNL     1      -8.947   7.119  65.920  1.00  0.00     0.000 HD 
HETATM   26  C   UNL     1      -9.806   8.826  67.549  1.00  0.00    -0.179 C  
HETATM   27  O   UNL     1      -8.572   7.966  65.711  1.00  0.00    -0.141 OA 
HETATM   28  O   UNL     1      -9.404   9.562  68.444  1.00  0.00    -0.133 OA 
ENDBRANCH  21  24
ENDBRANCH   4  21
ENDBRANCH   3   4
TORSDOF 6
ENDMDL
MODEL       40
REMARK 921   NORMALIZED FREE ENERGY PREDICTED BY IDOCK:   -5.39 KCAL/MOL
REMARK 922        TOTAL FREE ENERGY PREDICTED BY IDOCK:   -8.49 KCAL/MOL
REMARK 923 INTER-LIGAND FREE ENERGY PREDICTED BY IDOCK:   -7.00 KCAL/MOL
REMARK 924 INTRA-LIGAND FREE ENERGY PREDICTED BY IDOCK:   -1.49 KCAL/MOL
REMARK 927      BINDING AFFINITY PREDICTED BY RF-SCORE:    0.00 PKD
ROOT
HETATM    1  O   UNL     1      -9.842  13.527  68.881  1.00  0.00    -0.413 OA 
HETATM    2  H   UNL     1      -9.296  13.926  69.548  1.00  0.00     0.000 HD 
HETATM    3  C   UNL     1      -9.191  12.502  68.147  1.00  0.00    -0.209 C  
ENDROOT
BRANCH   3   4
HETATM    4  C   UNL     1     -10.080  11.852  67.061  1.00  0.00    -0.205 C  
BRANCH   4   5
HETATM    5  O   UNL     1     -11.164  11.045  67.555  1.00  0.00    -0.293 OA 
BRANCH   5   6
HETATM    6  C   UNL     1     -10.977  10.524  68.869  1.00  0.00    -0.246 C  
HETATM    7  C   UNL     1     -10.610   8.495  70.102  1.00  0.00    -0.232 C  
HETATM    8  O   UNL     1     -10.856   9.092  68.814  1.00  0.00    -0.171 OA 
HETATM    9  H   UNL     1     -13.051  12.604  70.415  1.00  0.00     0.000 HD 
HETATM   10  C   UNL     1     -11.733   8.818  71.099  1.00  0.00    -0.291 C  
HETATM   11  O   UNL     1     -12.324  12.355  69.855  1.00  0.00    -0.175 OA 
HETATM   12  O   UNL     1     -13.007   8.278  70.717  1.00  0.00    -0.474 OA 
HETATM   13  C   UNL     1     -11.896  10.341  71.186  1.00  0.00    -0.362 C  
HETATM   14  H   UNL     1     -13.702   8.477  71.334  1.00  0.00     0.000 HD 
HETATM   15  H   UNL     1     -13.031  11.606  72.177  1.00  0.00     0.000 HD 
HETATM   16  O   UNL     1     -12.930  10.663  72.123  1.00  0.00    -0.427 OA 
HETATM   17  C   UNL     1     -12.166  10.931  69.785  1.00  0.00    -0.311 C  
BRANCH   7  18
HETATM   18  C   UNL     1     -10.444   6.987  69.902  1.00  0.00    -0.217 C  
HETATM   19  O   UNL     1     -11.602   6.451  69.266  1.00  0.00    -0.611 OA 
HETATM   20  H   UNL     1     -11.499   5.515  69.142  1.00  0.00     0.000 HD 
ENDBRANCH   7  18
ENDBRANCH   5   6
ENDBRANCH   4   5
BRANCH   4  21
HETATM   21  C   UNL     1     -10.635  12.928  66.079  1.00  0.00    -0.270 C  
HETATM   22  H   UNL     1     -10.170  14.781  65.503  1.00  0.00     0.000 HD 
HETATM   23  O   UNL     1      -9.831  14.125  66.101  1.00  0.00    -0.292 OA 
BRANCH  21  24
HETATM   24  C   UNL     1     -12.076  13.342  66.395  1.00  0.00    -0.394 C  
HETATM   25  H   UNL     1     -12.959  14.763  67.432  1.00  0.00     0.000 HD 
HETATM   26  C   UNL     1     -12.886  13.699  65.159  1.00  0.00    -0.329 C  
HETATM   27  O   UNL     1     -12.066  14.507  67.237  1.00  0.00    -0.392 OA 
HETATM   28  O   UNL     1     -12.419  13.892  64.041  1.00  0.00    -0.679 OA 
ENDBRANCH  21  24
ENDBRANCH   4  21
ENDBRANCH   3   4
TORSDOF 6
ENDMDL
MODEL       41
REMARK 921   NORMALIZED FREE ENERGY PREDICTED BY IDOCK:   -5.38 KCAL/MOL
REMARK 922        TOTAL FREE ENERGY PREDICTED BY IDOCK:   -8.47 KCAL/MOL
REMARK 923 INTER-LIGAND FREE ENERGY PREDICTED BY IDOCK:   -7.63 KCAL/MOL
REMARK 924 INTRA-LIGAND FREE ENERGY PREDICTED BY IDOCK:   -0.85 KCAL/MOL
REMARK 927      BINDING AFFINITY PREDICTED BY RF-SCORE:    0.00 PKD
ROOT
HETATM    1  O   UNL     1     -13.364  14.358  70.966  1.00  0.00    -0.361 OA 
HETATM    2  H   UNL     1     -13.578  14.705  71.824  1.00  0.00     0.000 HD 
HETATM    3  C   UNL     1     -12.313  13.406  70.980  1.00  0.00    -0.315 C  
ENDROOT
BRANCH   3   4
HETATM    4  C   UNL     1     -11.965  12.840  69.583  1.00  0.00    -0.288 C  
BRANCH   4   5
HETATM    5  O   UNL     1     -10.973  13.581  68.849  1.00  0.00    -0.251 OA 
BRANCH   5   6
HETATM    6  C   UNL     1     -11.459  14.256  67.691  1.00  0.00    -0.346 C  
HETATM    7  C   UNL     1     -12.200  13.913  65.432  1.00  0.00    -0.444 C  
HETATM    8  O   UNL     1     -11.657  13.313  66.623  1.00  0.00    -0.331 OA 
HETATM    9  H   UNL     1      -9.620  16.998  68.034  1.00  0.00     0.000 HD 
HETATM   10  C   UNL     1     -11.288  15.026  64.892  1.00  0.00    -0.417 C  
HETATM   11  O   UNL     1     -10.230  16.319  68.301  1.00  0.00    -0.239 OA 
HETATM   12  O   UNL     1      -9.999  14.553  64.472  1.00  0.00    -0.583 OA 
HETATM   13  C   UNL     1     -11.050  16.055  66.005  1.00  0.00     0.016 C  
HETATM   14  H   UNL     1      -9.435  15.241  64.138  1.00  0.00     0.000 HD 
HETATM   15  H   UNL     1     -10.065  17.747  66.206  1.00  0.00     0.000 HD 
HETATM   16  O   UNL     1     -10.212  17.109  65.517  1.00  0.00    -0.592 OA 
HETATM   17  C   UNL     1     -10.461  15.365  67.254  1.00  0.00    -0.282 C  
BRANCH   7  18
HETATM   18  C   UNL     1     -12.416  12.805  64.398  1.00  0.00    -0.399 C  
HETATM   19  O   UNL     1     -12.332  13.346  63.082  1.00  0.00    -0.861 OA 
HETATM   20  H   UNL     1     -12.466  12.658  62.441  1.00  0.00     0.000 HD 
ENDBRANCH   7  18
ENDBRANCH   5   6
ENDBRANCH   4   5
BRANCH   4  21
HETATM   21  C   UNL     1     -11.536  11.345  69.679  1.00  0.00    -0.330 C  
HETATM   22  H   UNL     1     -11.662   9.697  68.559  1.00  0.00     0.000 HD 
HETATM   23  O   UNL     1     -11.923  10.609  68.501  1.00  0.00    -0.425 OA 
BRANCH  21  24
HETATM   24  C   UNL     1     -12.143  10.623  70.886  1.00  0.00    -0.385 C  
HETATM   25  H   UNL     1     -13.747   9.538  71.243  1.00  0.00     0.000 HD 
HETATM   26  C   UNL     1     -11.245   9.537  71.455  1.00  0.00    -0.367 C  
HETATM   27  O   UNL     1     -13.371   9.985  70.495  1.00  0.00    -0.213 OA 
HETATM   28  O   UNL     1     -10.251   9.081  70.899  1.00  0.00    -0.215 OA 
ENDBRANCH  21  24
ENDBRANCH   4  21
ENDBRANCH   3   4
TORSDOF 6
ENDMDL
MODEL       42
REMARK 921   NORMALIZED FREE ENERGY PREDICTED BY IDOCK:   -5.37 KCAL/MOL
REMARK 922        TOTAL FREE ENERGY PREDICTED BY IDOCK:   -8.46 KCAL/MOL
REMARK 923 INTER-LIGAND FREE ENERGY PREDICTED BY IDOCK:   -7.23 KCAL/MOL
REMARK 924 INTRA-LIGAND FREE ENERGY PREDICTED BY IDOCK:   -1.23 KCAL/MOL
REMARK 927      BINDING AFFINITY PREDICTED BY RF-SCORE:    0.00 PKD
ROOT
HETATM    1  O   UNL     1      -8.041  13.335  66.929  1.00  0.00    -0.394 OA 
HETATM    2  H   UNL     1      -7.175  13.151  67.273  1.00  0.00     0.000 HD 
HETATM    3  C   UNL     1      -8.797  14.227  67.732  1.00  0.00    -0.185 C  
ENDROOT
BRANCH   3   4
HETATM    4  C   UNL     1     -10.208  14.527  67.172  1.00  0.00    -0.260 C  
BRANCH   4   5
HETATM    5  O   UNL     1     -11.202  13.521  67.439  1.00  0.00    -0.277 OA 
BRANCH   5   6
HETATM    6  C   UNL     1     -11.516  12.677  66.334  1.00  0.00    -0.356 C  
HETATM    7  C   UNL     1     -10.618  10.976  64.894  1.00  0.00    -0.258 C  
HETATM    8  O   UNL     1     -10.363  11.896  65.973  1.00  0.00    -0.220 OA 
HETATM    9  H   UNL     1     -13.427  14.851  64.710  1.00  0.00     0.000 HD 
HETATM   10  C   UNL     1     -11.088  11.706  63.627  1.00  0.00    -0.425 C  
HETATM   11  O   UNL     1     -13.136  14.330  65.450  1.00  0.00    -0.685 OA 
HETATM   12  O   UNL     1     -10.100  12.594  63.082  1.00  0.00    -0.449 OA 
HETATM   13  C   UNL     1     -12.318  12.555  63.970  1.00  0.00    -0.469 C  
HETATM   14  H   UNL     1     -10.390  13.046  62.298  1.00  0.00     0.000 HD 
HETATM   15  H   UNL     1     -13.543  13.758  63.009  1.00  0.00     0.000 HD 
HETATM   16  O   UNL     1     -12.780  13.233  62.797  1.00  0.00    -0.317 OA 
HETATM   17  C   UNL     1     -11.992  13.528  65.123  1.00  0.00    -0.368 C  
BRANCH   7  18
HETATM   18  C   UNL     1      -9.341  10.170  64.646  1.00  0.00    -0.277 C  
HETATM   19  O   UNL     1      -8.220  11.046  64.576  1.00  0.00    -0.370 OA 
HETATM   20  H   UNL     1      -7.427  10.546  64.421  1.00  0.00     0.000 HD 
ENDBRANCH   7  18
ENDBRANCH   5   6
ENDBRANCH   4   5
BRANCH   4  21
HETATM   21  C   UNL     1     -10.720  15.913  67.668  1.00  0.00    -0.312 C  
HETATM   22  H   UNL     1     -10.676  17.811  67.052  1.00  0.00     0.000 HD 
HETATM   23  O   UNL     1     -10.364  16.966  66.750  1.00  0.00    -0.304 OA 
BRANCH  21  24
HETATM   24  C   UNL     1     -10.164  16.301  69.043  1.00  0.00    -0.261 C  
HETATM   25  H   UNL     1      -9.701  17.971  69.976  1.00  0.00     0.000 HD 
HETATM   26  C   UNL     1     -11.053  15.867  70.198  1.00  0.00    -0.365 C  
HETATM   27  O   UNL     1     -10.045  17.731  69.124  1.00  0.00    -0.322 OA 
HETATM   28  O   UNL     1     -12.209  15.472  70.088  1.00  0.00    -0.357 OA 
ENDBRANCH  21  24
ENDBRANCH   4  21
ENDBRANCH   3   4
TORSDOF 6
ENDMDL
MODEL       43
REMARK 921   NORMALIZED FREE ENERGY PREDICTED BY IDOCK:   -5.36 KCAL/MOL
REMARK 922        TOTAL FREE ENERGY PREDICTED BY IDOCK:   -8.44 KCAL/MOL
REMARK 923 INTER-LIGAND FREE ENERGY PREDICTED BY IDOCK:   -7.59 KCAL/MOL
REMARK 924 INTRA-LIGAND FREE ENERGY PREDICTED BY IDOCK:   -0.85 KCAL/MOL
REMARK 927      BINDING AFFINITY PREDICTED BY RF-SCORE:    0.00 PKD
ROOT
HETATM    1  O   UNL     1      -8.460  16.817  67.654  1.00  0.00    -0.187 OA 
HETATM    2  H   UNL     1      -8.050  17.656  67.829  1.00  0.00     0.000 HD 
HETATM    3  C   UNL     1      -9.463  16.871  66.652  1.00  0.00    -0.265 C  
ENDROOT
BRANCH   3   4
HETATM    4  C   UNL     1     -10.132  15.505  66.366  1.00  0.00    -0.288 C  
BRANCH   4   5
HETATM    5  O   UNL     1     -11.181  15.131  67.277  1.00  0.00    -0.329 OA 
BRANCH   5   6
HETATM    6  C   UNL     1     -10.849  14.078  68.179  1.00  0.00    -0.248 C  
HETATM    7  C   UNL     1     -10.080  11.805  68.285  1.00  0.00    -0.197 C  
HETATM    8  O   UNL     1     -10.482  12.900  67.440  1.00  0.00    -0.231 OA 
HETATM    9  H   UNL     1     -13.186  14.746  70.440  1.00  0.00     0.000 HD 
HETATM   10  C   UNL     1     -11.197  11.401  69.258  1.00  0.00    -0.277 C  
HETATM   11  O   UNL     1     -12.452  14.931  69.865  1.00  0.00    -0.299 OA 
HETATM   12  O   UNL     1     -12.373  10.903  68.601  1.00  0.00    -0.805 OA 
HETATM   13  C   UNL     1     -11.621  12.633  70.067  1.00  0.00    -0.123 C  
HETATM   14  H   UNL     1     -13.064  10.652  69.203  1.00  0.00     0.000 HD 
HETATM   15  H   UNL     1     -12.916  13.037  71.493  1.00  0.00     0.000 HD 
HETATM   16  O   UNL     1     -12.654  12.274  70.991  1.00  0.00    -0.361 OA 
HETATM   17  C   UNL     1     -12.050  13.774  69.119  1.00  0.00    -0.333 C  
BRANCH   7  18
HETATM   18  C   UNL     1      -9.661  10.639  67.385  1.00  0.00    -0.167 C  
HETATM   19  O   UNL     1     -10.200   9.420  67.888  1.00  0.00    -0.186 OA 
HETATM   20  H   UNL     1      -9.940   8.697  67.329  1.00  0.00     0.000 HD 
ENDBRANCH   7  18
ENDBRANCH   5   6
ENDBRANCH   4   5
BRANCH   4  21
HETATM   21  C   UNL     1     -10.664  15.442  64.902  1.00  0.00    -0.393 C  
HETATM   22  H   UNL     1     -11.420  16.700  63.550  1.00  0.00     0.000 HD 
HETATM   23  O   UNL     1     -11.095  16.739  64.442  1.00  0.00    -1.072 OA 
BRANCH  21  24
HETATM   24  C   UNL     1     -11.847  14.483  64.735  1.00  0.00    -0.441 C  
HETATM   25  H   UNL     1     -13.558  14.482  63.760  1.00  0.00     0.000 HD 
HETATM   26  C   UNL     1     -11.460  13.148  64.117  1.00  0.00    -0.403 C  
HETATM   27  O   UNL     1     -12.825  15.077  63.864  1.00  0.00    -0.679 OA 
HETATM   28  O   UNL     1     -10.389  12.910  63.569  1.00  0.00    -0.304 OA 
ENDBRANCH  21  24
ENDBRANCH   4  21
ENDBRANCH   3   4
TORSDOF 6
ENDMDL
MODEL       44
REMARK 921   NORMALIZED FREE ENERGY PREDICTED BY IDOCK:   -5.35 KCAL/MOL
REMARK 922        TOTAL FREE ENERGY PREDICTED BY IDOCK:   -8.43 KCAL/MOL
REMARK 923 INTER-LIGAND FREE ENERGY PREDICTED BY IDOCK:   -7.22 KCAL/MOL
REMARK 924 INTRA-LIGAND FREE ENERGY PREDICTED BY IDOCK:   -1.21 KCAL/MOL
REMARK 927      BINDING AFFINITY PREDICTED BY RF-SCORE:    0.00 PKD
ROOT
HETATM    1  O   UNL     1     -12.654  14.279  63.298  1.00  0.00    -1.069 OA 
HETATM    2  H   UNL     1     -13.373  14.870  63.109  1.00  0.00     0.000 HD 
HETATM    3  C   UNL     1     -11.889  14.656  64.433  1.00  0.00    -0.390 C  
ENDROOT
BRANCH   3   4
HETATM    4  C   UNL     1     -10.717  13.694  64.741  1.00  0.00    -0.410 C  
BRANCH   4   5
HETATM    5  O   UNL     1     -10.253  13.706  66.103  1.00  0.00    -0.289 OA 
BRANCH   5   6
HETATM    6  C   UNL     1     -11.042  14.484  67.001  1.00  0.00    -0.322 C  
HETATM    7  C   UNL     1     -11.075  16.532  68.256  1.00  0.00    -0.321 C  
HETATM    8  O   UNL     1     -10.320  15.665  67.388  1.00  0.00    -0.264 OA 
HETATM    9  H   UNL     1     -12.357  11.936  68.674  1.00  0.00     0.000 HD 
HETATM   10  C   UNL     1     -11.494  15.813  69.547  1.00  0.00    -0.353 C  
HETATM   11  O   UNL     1     -12.128  12.449  67.908  1.00  0.00    -0.428 OA 
HETATM   12  O   UNL     1     -10.383  15.410  70.362  1.00  0.00    -0.431 OA 
HETATM   13  C   UNL     1     -12.268  14.541  69.178  1.00  0.00    -0.199 C  
HETATM   14  H   UNL     1     -10.642  14.965  71.161  1.00  0.00     0.000 HD 
HETATM   15  H   UNL     1     -13.161  13.076  70.142  1.00  0.00     0.000 HD 
HETATM   16  O   UNL     1     -12.681  13.863  70.371  1.00  0.00    -0.305 OA 
HETATM   17  C   UNL     1     -11.415  13.644  68.256  1.00  0.00    -0.313 C  
BRANCH   7  18
HETATM   18  C   UNL     1     -10.226  17.772  68.546  1.00  0.00    -0.382 C  
HETATM   19  O   UNL     1      -8.852  17.406  68.649  1.00  0.00    -0.271 OA 
HETATM   20  H   UNL     1      -8.325  18.175  68.828  1.00  0.00     0.000 HD 
ENDBRANCH   7  18
ENDBRANCH   5   6
ENDBRANCH   4   5
BRANCH   4  21
HETATM   21  C   UNL     1     -11.071  12.235  64.322  1.00  0.00    -0.348 C  
HETATM   22  H   UNL     1     -12.615  10.982  64.493  1.00  0.00     0.000 HD 
HETATM   23  O   UNL     1     -12.400  11.872  64.748  1.00  0.00    -0.279 OA 
BRANCH  21  24
HETATM   24  C   UNL     1     -10.107  11.194  64.902  1.00  0.00    -0.289 C  
HETATM   25  H   UNL     1     -10.234   9.653  66.121  1.00  0.00     0.000 HD 
HETATM   26  C   UNL     1      -9.432  10.339  63.842  1.00  0.00    -0.302 C  
HETATM   27  O   UNL     1     -10.831  10.298  65.761  1.00  0.00     0.032 OA 
HETATM   28  O   UNL     1      -9.772  10.278  62.664  1.00  0.00    -0.288 OA 
ENDBRANCH  21  24
ENDBRANCH   4  21
ENDBRANCH   3   4
TORSDOF 6
ENDMDL
MODEL       45
REMARK 921   NORMALIZED FREE ENERGY PREDICTED BY IDOCK:   -5.34 KCAL/MOL
REMARK 922        TOTAL FREE ENERGY PREDICTED BY IDOCK:   -8.42 KCAL/MOL
REMARK 923 INTER-LIGAND FREE ENERGY PREDICTED BY IDOCK:   -7.60 KCAL/MOL
REMARK 924 INTRA-LIGAND FREE ENERGY PREDICTED BY IDOCK:   -0.82 KCAL/MOL
REMARK 927      BINDING AFFINITY PREDICTED BY RF-SCORE:    0.00 PKD
ROOT
HETATM    1  O   UNL     1      -7.064  17.415  66.546  1.00  0.00    -0.209 OA 
HETATM    2  H   UNL     1      -6.264  17.128  66.971  1.00  0.00     0.000 HD 
HETATM    3  C   UNL     1      -8.141  16.502  66.681  1.00  0.00    -0.278 C  
ENDROOT
BRANCH   3   4
HETATM    4  C   UNL     1      -9.444  16.970  65.989  1.00  0.00    -0.164 C  
BRANCH   4   5
HETATM    5  O   UNL     1     -10.041  16.017  65.092  1.00  0.00    -0.485 OA 
BRANCH   5   6
HETATM    6  C   UNL     1     -10.825  15.006  65.721  1.00  0.00    -0.350 C  
HETATM    7  C   UNL     1     -10.692  13.057  67.119  1.00  0.00    -0.254 C  
HETATM    8  O   UNL     1      -9.967  14.081  66.411  1.00  0.00    -0.276 OA 
HETATM    9  H   UNL     1     -13.077  14.696  63.302  1.00  0.00     0.000 HD 
HETATM   10  C   UNL     1     -11.579  12.235  66.172  1.00  0.00    -0.390 C  
HETATM   11  O   UNL     1     -12.550  15.153  63.947  1.00  0.00    -0.794 OA 
HETATM   12  O   UNL     1     -10.835  11.499  65.190  1.00  0.00    -0.291 OA 
HETATM   13  C   UNL     1     -12.511  13.187  65.412  1.00  0.00    -0.481 C  
HETATM   14  H   UNL     1     -11.383  10.990  64.604  1.00  0.00     0.000 HD 
HETATM   15  H   UNL     1     -13.935  13.027  64.063  1.00  0.00     0.000 HD 
HETATM   16  O   UNL     1     -13.357  12.437  64.534  1.00  0.00    -0.800 OA 
HETATM   17  C   UNL     1     -11.688  14.258  64.665  1.00  0.00    -0.430 C  
BRANCH   7  18
HETATM   18  C   UNL     1      -9.677  12.178  67.854  1.00  0.00    -0.200 C  
HETATM   19  O   UNL     1      -8.706  11.686  66.934  1.00  0.00    -0.172 OA 
HETATM   20  H   UNL     1      -8.076  11.141  67.390  1.00  0.00     0.000 HD 
ENDBRANCH   7  18
ENDBRANCH   5   6
ENDBRANCH   4   5
BRANCH   4  21
HETATM   21  C   UNL     1     -10.498  17.429  67.042  1.00  0.00    -0.284 C  
HETATM   22  H   UNL     1     -11.500  19.093  67.501  1.00  0.00     0.000 HD 
HETATM   23  O   UNL     1     -10.857  18.813  66.859  1.00  0.00    -0.379 OA 
BRANCH  21  24
HETATM   24  C   UNL     1     -10.011  17.272  68.486  1.00  0.00    -0.320 C  
HETATM   25  H   UNL     1      -9.766  18.448  70.046  1.00  0.00     0.000 HD 
HETATM   26  C   UNL     1     -10.854  16.309  69.306  1.00  0.00    -0.318 C  
HETATM   27  O   UNL     1     -10.068  18.545  69.151  1.00  0.00    -0.347 OA 
HETATM   28  O   UNL     1     -11.952  15.874  68.974  1.00  0.00    -0.378 OA 
ENDBRANCH  21  24
ENDBRANCH   4  21
ENDBRANCH   3   4
TORSDOF 6
ENDMDL
MODEL       46
REMARK 921   NORMALIZED FREE ENERGY PREDICTED BY IDOCK:   -5.33 KCAL/MOL
REMARK 922        TOTAL FREE ENERGY PREDICTED BY IDOCK:   -8.41 KCAL/MOL
REMARK 923 INTER-LIGAND FREE ENERGY PREDICTED BY IDOCK:   -7.49 KCAL/MOL
REMARK 924 INTRA-LIGAND FREE ENERGY PREDICTED BY IDOCK:   -0.92 KCAL/MOL
REMARK 927      BINDING AFFINITY PREDICTED BY RF-SCORE:    0.00 PKD
ROOT
HETATM    1  O   UNL     1     -11.519  12.548  70.373  1.00  0.00    -0.495 OA 
HETATM    2  H   UNL     1     -11.975  13.013  71.066  1.00  0.00     0.000 HD 
HETATM    3  C   UNL     1     -12.171  11.358  69.959  1.00  0.00    -0.301 C  
ENDROOT
BRANCH   3   4
HETATM    4  C   UNL     1     -11.429  10.602  68.831  1.00  0.00    -0.265 C  
BRANCH   4   5
HETATM    5  O   UNL     1     -10.572  11.413  68.007  1.00  0.00    -0.178 OA 
BRANCH   5   6
HETATM    6  C   UNL     1     -11.248  12.363  67.186  1.00  0.00    -0.298 C  
HETATM    7  C   UNL     1     -12.198  12.691  65.005  1.00  0.00    -0.476 C  
HETATM    8  O   UNL     1     -11.470  11.808  65.878  1.00  0.00    -0.314 OA 
HETATM    9  H   UNL     1      -9.661  15.053  68.310  1.00  0.00     0.000 HD 
HETATM   10  C   UNL     1     -11.466  14.028  64.812  1.00  0.00    -0.369 C  
HETATM   11  O   UNL     1     -10.168  14.252  68.372  1.00  0.00    -0.232 OA 
HETATM   12  O   UNL     1     -10.192  13.892  64.164  1.00  0.00    -0.671 OA 
HETATM   13  C   UNL     1     -11.208  14.654  66.189  1.00  0.00    -0.341 C  
HETATM   14  H   UNL     1      -9.739  14.719  64.045  1.00  0.00     0.000 HD 
HETATM   15  H   UNL     1     -10.378  16.298  66.882  1.00  0.00     0.000 HD 
HETATM   16  O   UNL     1     -10.538  15.910  66.030  1.00  0.00    -0.317 OA 
HETATM   17  C   UNL     1     -10.419  13.674  67.083  1.00  0.00    -0.264 C  
BRANCH   7  18
HETATM   18  C   UNL     1     -12.419  11.968  63.674  1.00  0.00    -0.525 C  
HETATM   19  O   UNL     1     -11.211  11.334  63.260  1.00  0.00    -0.795 OA 
HETATM   20  H   UNL     1     -11.348  10.885  62.435  1.00  0.00     0.000 HD 
ENDBRANCH   7  18
ENDBRANCH   5   6
ENDBRANCH   4   5
BRANCH   4  21
HETATM   21  C   UNL     1     -10.618   9.403  69.407  1.00  0.00    -0.221 C  
HETATM   22  H   UNL     1      -9.960   7.626  68.777  1.00  0.00     0.000 HD 
HETATM   23  O   UNL     1     -10.455   8.358  68.426  1.00  0.00    -0.208 OA 
BRANCH  21  24
HETATM   24  C   UNL     1     -11.274   8.771  70.639  1.00  0.00    -0.257 C  
HETATM   25  H   UNL     1     -11.979   7.001  71.132  1.00  0.00     0.000 HD 
HETATM   26  C   UNL     1     -10.387   8.795  71.874  1.00  0.00    -0.344 C  
HETATM   27  O   UNL     1     -11.572   7.391  70.368  1.00  0.00    -0.264 OA 
HETATM   28  O   UNL     1      -9.187   9.051  71.876  1.00  0.00    -0.353 OA 
ENDBRANCH  21  24
ENDBRANCH   4  21
ENDBRANCH   3   4
TORSDOF 6
ENDMDL
MODEL       47
REMARK 921   NORMALIZED FREE ENERGY PREDICTED BY IDOCK:   -5.31 KCAL/MOL
REMARK 922        TOTAL FREE ENERGY PREDICTED BY IDOCK:   -8.38 KCAL/MOL
REMARK 923 INTER-LIGAND FREE ENERGY PREDICTED BY IDOCK:   -7.40 KCAL/MOL
REMARK 924 INTRA-LIGAND FREE ENERGY PREDICTED BY IDOCK:   -0.98 KCAL/MOL
REMARK 927      BINDING AFFINITY PREDICTED BY RF-SCORE:    0.00 PKD
ROOT
HETATM    1  O   UNL     1     -10.855  13.707  69.505  1.00  0.00    -0.439 OA 
HETATM    2  H   UNL     1     -10.134  14.315  69.622  1.00  0.00     0.000 HD 
HETATM    3  C   UNL     1     -10.448  12.418  69.074  1.00  0.00     0.001 C  
ENDROOT
BRANCH   3   4
HETATM    4  C   UNL     1     -11.621  11.427  68.882  1.00  0.00    -0.323 C  
BRANCH   4   5
HETATM    5  O   UNL     1     -11.677  10.781  67.598  1.00  0.00    -0.538 OA 
BRANCH   5   6
HETATM    6  C   UNL     1     -11.079  11.512  66.529  1.00  0.00    -0.282 C  
HETATM    7  C   UNL     1     -11.503  13.207  64.882  1.00  0.00    -0.309 C  
HETATM    8  O   UNL     1     -12.048  12.393  65.937  1.00  0.00    -0.580 OA 
HETATM    9  H   UNL     1      -9.202   9.034  65.364  1.00  0.00     0.000 HD 
HETATM   10  C   UNL     1     -10.919  12.349  63.750  1.00  0.00    -0.447 C  
HETATM   11  O   UNL     1      -9.548   9.631  66.017  1.00  0.00    -0.201 OA 
HETATM   12  O   UNL     1     -11.902  11.545  63.079  1.00  0.00    -0.898 OA 
HETATM   13  C   UNL     1      -9.878  11.389  64.341  1.00  0.00    -0.261 C  
HETATM   14  H   UNL     1     -11.541  11.014  62.378  1.00  0.00     0.000 HD 
HETATM   15  H   UNL     1      -8.666   9.995  63.663  1.00  0.00     0.000 HD 
HETATM   16  O   UNL     1      -9.311  10.589  63.297  1.00  0.00    -0.254 OA 
HETATM   17  C   UNL     1     -10.512  10.535  65.459  1.00  0.00    -0.150 C  
BRANCH   7  18
HETATM   18  C   UNL     1     -12.610  14.136  64.377  1.00  0.00    -0.164 C  
HETATM   19  O   UNL     1     -12.488  14.317  62.969  1.00  0.00    -0.986 OA 
HETATM   20  H   UNL     1     -13.176  14.893  62.656  1.00  0.00     0.000 HD 
ENDBRANCH   7  18
ENDBRANCH   5   6
ENDBRANCH   4   5
BRANCH   4  21
HETATM   21  C   UNL     1     -11.629  10.351  70.009  1.00  0.00    -0.301 C  
HETATM   22  H   UNL     1     -12.163  10.225  71.928  1.00  0.00     0.000 HD 
HETATM   23  O   UNL     1     -12.158  10.882  71.241  1.00  0.00    -0.311 OA 
BRANCH  21  24
HETATM   24  C   UNL     1     -10.235   9.793  70.316  1.00  0.00    -0.289 C  
HETATM   25  H   UNL     1      -9.315   9.030  71.881  1.00  0.00     0.000 HD 
HETATM   26  C   UNL     1      -9.870   8.581  69.473  1.00  0.00    -0.187 C  
HETATM   27  O   UNL     1     -10.178   9.376  71.691  1.00  0.00    -0.283 OA 
HETATM   28  O   UNL     1     -10.658   7.934  68.792  1.00  0.00    -0.200 OA 
ENDBRANCH  21  24
ENDBRANCH   4  21
ENDBRANCH   3   4
TORSDOF 6
ENDMDL
MODEL       48
REMARK 921   NORMALIZED FREE ENERGY PREDICTED BY IDOCK:   -5.31 KCAL/MOL
REMARK 922        TOTAL FREE ENERGY PREDICTED BY IDOCK:   -8.37 KCAL/MOL
REMARK 923 INTER-LIGAND FREE ENERGY PREDICTED BY IDOCK:   -7.50 KCAL/MOL
REMARK 924 INTRA-LIGAND FREE ENERGY PREDICTED BY IDOCK:   -0.87 KCAL/MOL
REMARK 927      BINDING AFFINITY PREDICTED BY RF-SCORE:    0.00 PKD
ROOT
HETATM    1  O   UNL     1     -10.940  14.669  70.669  1.00  0.00    -0.490 OA 
HETATM    2  H   UNL     1     -11.200  14.754  71.579  1.00  0.00     0.000 HD 
HETATM    3  C   UNL     1     -10.875  15.905  69.977  1.00  0.00    -0.353 C  
ENDROOT
BRANCH   3   4
HETATM    4  C   UNL     1     -10.452  15.767  68.495  1.00  0.00    -0.236 C  
BRANCH   4   5
HETATM    5  O   UNL     1     -11.535  15.686  67.551  1.00  0.00    -0.256 OA 
BRANCH   5   6
HETATM    6  C   UNL     1     -11.683  14.420  66.911  1.00  0.00    -0.402 C  
HETATM    7  C   UNL     1     -11.601  12.050  67.291  1.00  0.00    -0.313 C  
HETATM    8  O   UNL     1     -11.419  13.364  67.851  1.00  0.00    -0.279 OA 
HETATM    9  H   UNL     1     -10.356  15.297  63.998  1.00  0.00     0.000 HD 
HETATM   10  C   UNL     1     -10.685  11.819  66.080  1.00  0.00    -0.277 C  
HETATM   11  O   UNL     1     -10.945  15.361  64.741  1.00  0.00    -0.420 OA 
HETATM   12  O   UNL     1      -9.288  11.852  66.408  1.00  0.00    -0.217 OA 
HETATM   13  C   UNL     1     -10.934  12.929  65.051  1.00  0.00    -0.297 C  
HETATM   14  H   UNL     1      -8.721  11.709  65.659  1.00  0.00     0.000 HD 
HETATM   15  H   UNL     1     -10.252  13.410  63.269  1.00  0.00     0.000 HD 
HETATM   16  O   UNL     1     -10.098  12.723  63.906  1.00  0.00    -0.358 OA 
HETATM   17  C   UNL     1     -10.718  14.315  65.696  1.00  0.00    -0.316 C  
BRANCH   7  18
HETATM   18  C   UNL     1     -11.350  11.023  68.398  1.00  0.00    -0.295 C  
HETATM   19  O   UNL     1     -12.533  10.842  69.171  1.00  0.00    -0.724 OA 
HETATM   20  H   UNL     1     -12.377  10.205  69.857  1.00  0.00     0.000 HD 
ENDBRANCH   7  18
ENDBRANCH   5   6
ENDBRANCH   4   5
BRANCH   4  21
HETATM   21  C   UNL     1      -9.486  16.918  68.083  1.00  0.00    -0.251 C  
HETATM   22  H   UNL     1      -7.690  17.604  68.622  1.00  0.00     0.000 HD 
HETATM   23  O   UNL     1      -8.280  16.902  68.873  1.00  0.00    -0.254 OA 
BRANCH  21  24
HETATM   24  C   UNL     1     -10.110  18.309  68.234  1.00  0.00    -0.386 C  
HETATM   25  H   UNL     1      -9.511  20.086  68.835  1.00  0.00     0.000 HD 
HETATM   26  C   UNL     1     -10.617  18.890  66.924  1.00  0.00    -0.421 C  
HETATM   27  O   UNL     1      -9.124  19.224  68.741  1.00  0.00    -0.365 OA 
HETATM   28  O   UNL     1     -10.356  18.448  65.809  1.00  0.00    -0.588 OA 
ENDBRANCH  21  24
ENDBRANCH   4  21
ENDBRANCH   3   4
TORSDOF 6
ENDMDL
MODEL       49
REMARK 921   NORMALIZED FREE ENERGY PREDICTED BY IDOCK:   -5.30 KCAL/MOL
REMARK 922        TOTAL FREE ENERGY PREDICTED BY IDOCK:   -8.36 KCAL/MOL
REMARK 923 INTER-LIGAND FREE ENERGY PREDICTED BY IDOCK:   -7.62 KCAL/MOL
REMARK 924 INTRA-LIGAND FREE ENERGY PREDICTED BY IDOCK:   -0.74 KCAL/MOL
REMARK 927      BINDING AFFINITY PREDICTED BY RF-SCORE:    0.00 PKD
ROOT
HETATM    1  O   UNL     1     -11.788  10.783  67.538  1.00  0.00    -0.573 OA 
HETATM    2  H   UNL     1     -11.218  10.022  67.543  1.00  0.00     0.000 HD 
HETATM    3  C   UNL     1     -11.224  11.914  66.892  1.00  0.00    -0.325 C  
ENDROOT
BRANCH   3   4
HETATM    4  C   UNL     1     -12.152  13.152  66.884  1.00  0.00    -0.316 C  
BRANCH   4   5
HETATM    5  O   UNL     1     -11.660  14.294  67.609  1.00  0.00    -0.328 OA 
BRANCH   5   6
HETATM    6  C   UNL     1     -11.554  14.113  69.019  1.00  0.00    -0.304 C  
HETATM    7  C   UNL     1     -12.222  12.685  70.832  1.00  0.00    -0.185 C  
HETATM    8  O   UNL     1     -12.322  12.966  69.423  1.00  0.00    -0.145 OA 
HETATM    9  H   UNL     1     -11.615  17.330  69.833  1.00  0.00     0.000 HD 
HETATM   10  C   UNL     1     -12.699  13.873  71.681  1.00  0.00    -0.330 C  
HETATM   11  O   UNL     1     -11.312  16.553  69.378  1.00  0.00    -0.248 OA 
HETATM   12  O   UNL     1     -14.089  14.182  71.499  1.00  0.00    -0.352 OA 
HETATM   13  C   UNL     1     -11.904  15.122  71.279  1.00  0.00    -0.350 C  
HETATM   14  H   UNL     1     -14.385  14.916  72.024  1.00  0.00     0.000 HD 
HETATM   15  H   UNL     1     -11.831  17.012  71.822  1.00  0.00     0.000 HD 
HETATM   16  O   UNL     1     -12.324  16.239  72.070  1.00  0.00    -0.440 OA 
HETATM   17  C   UNL     1     -12.050  15.384  69.764  1.00  0.00    -0.347 C  
BRANCH   7  18
HETATM   18  C   UNL     1     -13.030  11.418  71.123  1.00  0.00    -0.253 C  
HETATM   19  O   UNL     1     -13.308  11.329  72.518  1.00  0.00    -0.506 OA 
HETATM   20  H   UNL     1     -13.810  10.543  72.698  1.00  0.00     0.000 HD 
ENDBRANCH   7  18
ENDBRANCH   5   6
ENDBRANCH   4   5
BRANCH   4  21
HETATM   21  C   UNL     1     -12.506  13.572  65.425  1.00  0.00    -0.497 C  
HETATM   22  H   UNL     1     -13.423  12.777  63.841  1.00  0.00     0.000 HD 
HETATM   23  O   UNL     1     -13.208  12.521  64.731  1.00  0.00    -0.839 OA 
BRANCH  21  24
HETATM   24  C   UNL     1     -11.273  13.927  64.587  1.00  0.00    -0.378 C  
HETATM   25  H   UNL     1     -10.445  13.282  62.921  1.00  0.00     0.000 HD 
HETATM   26  C   UNL     1     -11.290  15.354  64.062  1.00  0.00     0.270 C  
HETATM   27  O   UNL     1     -11.209  13.062  63.440  1.00  0.00    -0.321 OA 
HETATM   28  O   UNL     1     -12.267  16.095  64.069  1.00  0.00    -0.855 OA 
ENDBRANCH  21  24
ENDBRANCH   4  21
ENDBRANCH   3   4
TORSDOF 6
ENDMDL
MODEL       50
REMARK 921   NORMALIZED FREE ENERGY PREDICTED BY IDOCK:   -5.25 KCAL/MOL
REMARK 922        TOTAL FREE ENERGY PREDICTED BY IDOCK:   -8.30 KCAL/MOL
REMARK 923 INTER-LIGAND FREE ENERGY PREDICTED BY IDOCK:   -7.73 KCAL/MOL
REMARK 924 INTRA-LIGAND FREE ENERGY PREDICTED BY IDOCK:   -0.57 KCAL/MOL
REMARK 927      BINDING AFFINITY PREDICTED BY RF-SCORE:    0.00 PKD
ROOT
HETATM    1  O   UNL     1     -10.986  11.676  62.836  1.00  0.00    -0.641 OA 
HETATM    2  H   UNL     1     -10.177  11.448  62.393  1.00  0.00     0.000 HD 
HETATM    3  C   UNL     1     -10.816  12.617  63.885  1.00  0.00    -0.429 C  
ENDROOT
BRANCH   3   4
HETATM    4  C   UNL     1     -12.133  12.989  64.607  1.00  0.00    -0.409 C  
BRANCH   4   5
HETATM    5  O   UNL     1     -12.342  12.343  65.876  1.00  0.00    -0.638 OA 
BRANCH   5   6
HETATM    6  C   UNL     1     -11.176  11.766  66.458  1.00  0.00    -0.321 C  
HETATM    7  C   UNL     1      -9.521  10.051  66.159  1.00  0.00    -0.190 C  
HETATM    8  O   UNL     1     -10.731  10.655  65.662  1.00  0.00    -0.160 OA 
HETATM    9  H   UNL     1     -12.112  12.105  69.625  1.00  0.00     0.000 HD 
HETATM   10  C   UNL     1      -9.694   9.539  67.597  1.00  0.00    -0.154 C  
HETATM   11  O   UNL     1     -11.931  12.387  68.736  1.00  0.00    -0.302 OA 
HETATM   12  O   UNL     1     -10.665   8.489  67.715  1.00  0.00    -0.422 OA 
HETATM   13  C   UNL     1     -10.172  10.698  68.482  1.00  0.00    -0.175 C  
HETATM   14  H   UNL     1     -10.772   8.172  68.605  1.00  0.00     0.000 HD 
HETATM   15  H   UNL     1     -10.620  10.961  70.380  1.00  0.00     0.000 HD 
HETATM   16  O   UNL     1     -10.325  10.244  69.832  1.00  0.00    -0.255 OA 
HETATM   17  C   UNL     1     -11.472  11.304  67.913  1.00  0.00    -0.288 C  
BRANCH   7  18
HETATM   18  C   UNL     1      -9.122   8.927  65.200  1.00  0.00    -0.097 C  
HETATM   19  O   UNL     1      -9.356   9.332  63.854  1.00  0.00    -0.391 OA 
HETATM   20  H   UNL     1      -9.108   8.634  63.259  1.00  0.00     0.000 HD 
ENDBRANCH   7  18
ENDBRANCH   5   6
ENDBRANCH   4   5
BRANCH   4  21
HETATM   21  C   UNL     1     -12.255  14.533  64.780  1.00  0.00    -0.431 C  
HETATM   22  H   UNL     1     -12.952  16.085  63.737  1.00  0.00     0.000 HD 
HETATM   23  O   UNL     1     -12.878  15.144  63.631  1.00  0.00    -0.473 OA 
BRANCH  21  24
HETATM   24  C   UNL     1     -10.902  15.222  64.984  1.00  0.00    -0.439 C  
HETATM   25  H   UNL     1     -10.086  16.943  64.484  1.00  0.00     0.000 HD 
HETATM   26  C   UNL     1     -10.553  15.448  66.447  1.00  0.00    -0.307 C  
HETATM   27  O   UNL     1     -10.924  16.516  64.357  1.00  0.00    -0.872 OA 
HETATM   28  O   UNL     1     -11.338  15.338  67.383  1.00  0.00    -0.333 OA 
ENDBRANCH  21  24
ENDBRANCH   4  21
ENDBRANCH   3   4
TORSDOF 6
ENDMDL
MODEL       51
REMARK 921   NORMALIZED FREE ENERGY PREDICTED BY IDOCK:   -5.25 KCAL/MOL
REMARK 922        TOTAL FREE ENERGY PREDICTED BY IDOCK:   -8.29 KCAL/MOL
REMARK 923 INTER-LIGAND FREE ENERGY PREDICTED BY IDOCK:   -7.14 KCAL/MOL
REMARK 924 INTRA-LIGAND FREE ENERGY PREDICTED BY IDOCK:   -1.15 KCAL/MOL
REMARK 927      BINDING AFFINITY PREDICTED BY RF-SCORE:    0.00 PKD
ROOT
HETATM    1  O   UNL     1     -10.949   8.046  67.716  1.00  0.00    -0.493 OA 
HETATM    2  H   UNL     1     -10.920   7.166  67.358  1.00  0.00     0.000 HD 
HETATM    3  C   UNL     1     -10.499   8.130  69.059  1.00  0.00    -0.198 C  
ENDROOT
BRANCH   3   4
HETATM    4  C   UNL     1     -10.545   9.562  69.643  1.00  0.00    -0.228 C  
BRANCH   4   5
HETATM    5  O   UNL     1     -11.478  10.455  69.008  1.00  0.00    -0.244 OA 
BRANCH   5   6
HETATM    6  C   UNL     1     -10.922  11.689  68.561  1.00  0.00    -0.220 C  
HETATM    7  C   UNL     1     -10.939  14.060  68.944  1.00  0.00    -0.259 C  
HETATM    8  O   UNL     1     -11.493  12.780  69.303  1.00  0.00    -0.274 OA 
HETATM    9  H   UNL     1     -10.793  10.914  65.336  1.00  0.00     0.000 HD 
HETATM   10  C   UNL     1     -11.146  14.368  67.453  1.00  0.00    -0.308 C  
HETATM   11  O   UNL     1     -10.635  10.799  66.266  1.00  0.00    -0.246 OA 
HETATM   12  O   UNL     1     -12.528  14.485  67.082  1.00  0.00    -0.567 OA 
HETATM   13  C   UNL     1     -10.551  13.223  66.623  1.00  0.00    -0.281 C  
HETATM   14  H   UNL     1     -12.656  14.675  66.160  1.00  0.00     0.000 HD 
HETATM   15  H   UNL     1     -10.352  12.790  64.714  1.00  0.00     0.000 HD 
HETATM   16  O   UNL     1     -10.721  13.499  65.228  1.00  0.00    -0.298 OA 
HETATM   17  C   UNL     1     -11.181  11.877  67.039  1.00  0.00    -0.323 C  
BRANCH   7  18
HETATM   18  C   UNL     1     -11.582  15.124  69.838  1.00  0.00    -0.300 C  
HETATM   19  O   UNL     1     -12.996  14.954  69.854  1.00  0.00    -0.600 OA 
HETATM   20  H   UNL     1     -13.395  15.614  70.409  1.00  0.00     0.000 HD 
ENDBRANCH   7  18
ENDBRANCH   5   6
ENDBRANCH   4   5
BRANCH   4  21
HETATM   21  C   UNL     1     -10.815   9.528  71.178  1.00  0.00    -0.355 C  
HETATM   22  H   UNL     1      -9.899   8.870  72.825  1.00  0.00     0.000 HD 
HETATM   23  O   UNL     1      -9.734   8.891  71.889  1.00  0.00    -0.307 OA 
BRANCH  21  24
HETATM   24  C   UNL     1     -12.103   8.782  71.544  1.00  0.00    -0.329 C  
HETATM   25  H   UNL     1     -12.672   7.516  72.940  1.00  0.00     0.000 HD 
HETATM   26  C   UNL     1     -13.266   9.707  71.867  1.00  0.00    -0.446 C  
HETATM   27  O   UNL     1     -11.874   7.978  72.713  1.00  0.00    -0.372 OA 
HETATM   28  O   UNL     1     -13.172  10.913  72.070  1.00  0.00    -0.492 OA 
ENDBRANCH  21  24
ENDBRANCH   4  21
ENDBRANCH   3   4
TORSDOF 6
ENDMDL
MODEL       52
REMARK 921   NORMALIZED FREE ENERGY PREDICTED BY IDOCK:   -5.21 KCAL/MOL
REMARK 922        TOTAL FREE ENERGY PREDICTED BY IDOCK:   -8.25 KCAL/MOL
REMARK 923 INTER-LIGAND FREE ENERGY PREDICTED BY IDOCK:   -6.74 KCAL/MOL
REMARK 924 INTRA-LIGAND FREE ENERGY PREDICTED BY IDOCK:   -1.51 KCAL/MOL
REMARK 927      BINDING AFFINITY PREDICTED BY RF-SCORE:    0.00 PKD
ROOT
HETATM    1  O   UNL     1      -7.935  10.251  67.978  1.00  0.00    -0.100 OA 
HETATM    2  H   UNL     1      -7.075  10.651  67.920  1.00  0.00     0.000 HD 
HETATM    3  C   UNL     1      -8.918  11.092  68.561  1.00  0.00    -0.168 C  
ENDROOT
BRANCH   3   4
HETATM    4  C   UNL     1     -10.318  10.441  68.656  1.00  0.00    -0.184 C  
BRANCH   4   5
HETATM    5  O   UNL     1     -10.969  10.196  67.396  1.00  0.00    -0.292 OA 
BRANCH   5   6
HETATM    6  C   UNL     1     -10.550  11.041  66.327  1.00  0.00    -0.237 C  
HETATM    7  C   UNL     1     -11.253  12.856  64.919  1.00  0.00    -0.300 C  
HETATM    8  O   UNL     1     -11.619  11.931  65.961  1.00  0.00    -0.391 OA 
HETATM    9  H   UNL     1      -8.794   8.752  64.685  1.00  0.00     0.000 HD 
HETATM   10  C   UNL     1     -10.814  12.124  63.642  1.00  0.00    -0.464 C  
HETATM   11  O   UNL     1      -9.059   9.275  65.433  1.00  0.00    -0.200 OA 
HETATM   12  O   UNL     1     -11.861  11.343  63.044  1.00  0.00    -0.903 OA 
HETATM   13  C   UNL     1      -9.674  11.159  63.989  1.00  0.00    -0.283 C  
HETATM   14  H   UNL     1     -11.590  10.891  62.254  1.00  0.00     0.000 HD 
HETATM   15  H   UNL     1      -8.534   9.879  63.022  1.00  0.00     0.000 HD 
HETATM   16  O   UNL     1      -9.240  10.477  62.807  1.00  0.00    -0.243 OA 
HETATM   17  C   UNL     1     -10.117  10.185  65.102  1.00  0.00    -0.259 C  
BRANCH   7  18
HETATM   18  C   UNL     1     -12.446  13.780  64.663  1.00  0.00    -0.315 C  
HETATM   19  O   UNL     1     -12.383  14.298  63.338  1.00  0.00    -1.113 OA 
HETATM   20  H   UNL     1     -13.123  14.872  63.179  1.00  0.00     0.000 HD 
ENDBRANCH   7  18
ENDBRANCH   5   6
ENDBRANCH   4   5
BRANCH   4  21
HETATM   21  C   UNL     1     -10.261   9.120  69.481  1.00  0.00    -0.203 C  
HETATM   22  H   UNL     1      -9.023   8.238  70.775  1.00  0.00     0.000 HD 
HETATM   23  O   UNL     1      -9.057   9.044  70.272  1.00  0.00    -0.169 OA 
BRANCH  21  24
HETATM   24  C   UNL     1     -10.311   7.863  68.606  1.00  0.00    -0.201 C  
HETATM   25  H   UNL     1      -9.003   6.676  67.736  1.00  0.00     0.000 HD 
HETATM   26  C   UNL     1     -10.978   6.679  69.287  1.00  0.00    -0.295 C  
HETATM   27  O   UNL     1      -8.972   7.455  68.279  1.00  0.00    -0.131 OA 
HETATM   28  O   UNL     1     -11.238   6.609  70.484  1.00  0.00    -0.285 OA 
ENDBRANCH  21  24
ENDBRANCH   4  21
ENDBRANCH   3   4
TORSDOF 6
ENDMDL
MODEL       53
REMARK 921   NORMALIZED FREE ENERGY PREDICTED BY IDOCK:   -5.16 KCAL/MOL
REMARK 922        TOTAL FREE ENERGY PREDICTED BY IDOCK:   -8.18 KCAL/MOL
REMARK 923 INTER-LIGAND FREE ENERGY PREDICTED BY IDOCK:   -6.96 KCAL/MOL
REMARK 924 INTRA-LIGAND FREE ENERGY PREDICTED BY IDOCK:   -1.21 KCAL/MOL
REMARK 927      BINDING AFFINITY PREDICTED BY RF-SCORE:    0.00 PKD
ROOT
HETATM    1  O   UNL     1     -10.929  13.480  69.053  1.00  0.00    -0.252 OA 
HETATM    2  H   UNL     1     -11.144  13.633  69.966  1.00  0.00     0.000 HD 
HETATM    3  C   UNL     1     -11.998  13.752  68.161  1.00  0.00    -0.358 C  
ENDROOT
BRANCH   3   4
HETATM    4  C   UNL     1     -11.648  13.503  66.674  1.00  0.00    -0.363 C  
BRANCH   4   5
HETATM    5  O   UNL     1     -12.171  12.286  66.114  1.00  0.00    -0.647 OA 
BRANCH   5   6
HETATM    6  C   UNL     1     -11.226  11.227  65.983  1.00  0.00    -0.041 C  
HETATM    7  C   UNL     1      -9.412  10.117  67.100  1.00  0.00    -0.158 C  
HETATM    8  O   UNL     1     -10.363  11.198  67.133  1.00  0.00    -0.197 OA 
HETATM    9  H   UNL     1     -10.708  11.564  62.722  1.00  0.00     0.000 HD 
HETATM   10  C   UNL     1      -8.511  10.195  65.859  1.00  0.00    -0.141 C  
HETATM   11  O   UNL     1     -11.219  11.453  63.515  1.00  0.00    -0.391 OA 
HETATM   12  O   UNL     1      -7.685  11.369  65.827  1.00  0.00    -0.369 OA 
HETATM   13  C   UNL     1      -9.394  10.231  64.605  1.00  0.00    -0.266 C  
HETATM   14  H   UNL     1      -7.127  11.418  65.059  1.00  0.00     0.000 HD 
HETATM   15  H   UNL     1      -9.118  10.310  62.659  1.00  0.00     0.000 HD 
HETATM   16  O   UNL     1      -8.571  10.289  63.435  1.00  0.00    -0.169 OA 
HETATM   17  C   UNL     1     -10.389  11.408  64.685  1.00  0.00    -0.307 C  
BRANCH   7  18
HETATM   18  C   UNL     1      -8.599  10.160  68.396  1.00  0.00    -0.119 C  
HETATM   19  O   UNL     1      -8.545  11.495  68.891  1.00  0.00    -0.332 OA 
HETATM   20  H   UNL     1      -8.040  11.522  69.696  1.00  0.00     0.000 HD 
ENDBRANCH   7  18
ENDBRANCH   5   6
ENDBRANCH   4   5
BRANCH   4  21
HETATM   21  C   UNL     1     -12.079  14.714  65.792  1.00  0.00    -0.197 C  
HETATM   22  H   UNL     1     -13.143  15.027  64.133  1.00  0.00     0.000 HD 
HETATM   23  O   UNL     1     -12.880  14.289  64.671  1.00  0.00    -0.658 OA 
BRANCH  21  24
HETATM   24  C   UNL     1     -10.890  15.500  65.230  1.00  0.00    -0.411 C  
HETATM   25  H   UNL     1     -10.603  16.836  63.813  1.00  0.00     0.000 HD 
HETATM   26  C   UNL     1     -10.221  16.400  66.256  1.00  0.00    -0.330 C  
HETATM   27  O   UNL     1     -11.340  16.349  64.161  1.00  0.00    -0.941 OA 
HETATM   28  O   UNL     1     -10.692  16.691  67.351  1.00  0.00    -0.316 OA 
ENDBRANCH  21  24
ENDBRANCH   4  21
ENDBRANCH   3   4
TORSDOF 6
ENDMDL
MODEL       54
REMARK 921   NORMALIZED FREE ENERGY PREDICTED BY IDOCK:   -5.16 KCAL/MOL
REMARK 922        TOTAL FREE ENERGY PREDICTED BY IDOCK:   -8.17 KCAL/MOL
REMARK 923 INTER-LIGAND FREE ENERGY PREDICTED BY IDOCK:   -7.29 KCAL/MOL
REMARK 924 INTRA-LIGAND FREE ENERGY PREDICTED BY IDOCK:   -0.88 KCAL/MOL
REMARK 927      BINDING AFFINITY PREDICTED BY RF-SCORE:    0.00 PKD
ROOT
HETATM    1  O   UNL     1      -7.126  18.814  65.226  1.00  0.00    -0.503 OA 
HETATM    2  H   UNL     1      -6.270  19.225  65.194  1.00  0.00     0.000 HD 
HETATM    3  C   UNL     1      -7.275  17.888  66.291  1.00  0.00    -0.289 C  
ENDROOT
BRANCH   3   4
HETATM    4  C   UNL     1      -8.668  17.218  66.343  1.00  0.00    -0.250 C  
BRANCH   4   5
HETATM    5  O   UNL     1      -8.773  16.083  67.221  1.00  0.00    -0.175 OA 
BRANCH   5   6
HETATM    6  C   UNL     1     -10.104  15.654  67.496  1.00  0.00    -0.253 C  
HETATM    7  C   UNL     1     -11.676  15.270  69.271  1.00  0.00    -0.338 C  
HETATM    8  O   UNL     1     -10.331  15.643  68.916  1.00  0.00    -0.203 OA 
HETATM    9  H   UNL     1     -10.269  13.343  65.118  1.00  0.00     0.000 HD 
HETATM   10  C   UNL     1     -12.034  13.873  68.744  1.00  0.00    -0.358 C  
HETATM   11  O   UNL     1     -10.120  14.208  65.483  1.00  0.00    -0.329 OA 
HETATM   12  O   UNL     1     -11.235  12.826  69.315  1.00  0.00    -0.331 OA 
HETATM   13  C   UNL     1     -11.803  13.840  67.227  1.00  0.00    -0.401 C  
HETATM   14  H   UNL     1     -11.456  11.961  68.989  1.00  0.00     0.000 HD 
HETATM   15  H   UNL     1     -12.004  12.528  65.775  1.00  0.00     0.000 HD 
HETATM   16  O   UNL     1     -12.146  12.548  66.714  1.00  0.00    -0.546 OA 
HETATM   17  C   UNL     1     -10.348  14.238  66.899  1.00  0.00    -0.268 C  
BRANCH   7  18
HETATM   18  C   UNL     1     -11.805  15.353  70.794  1.00  0.00    -0.353 C  
HETATM   19  O   UNL     1     -11.560  16.687  71.230  1.00  0.00    -0.605 OA 
HETATM   20  H   UNL     1     -11.640  16.738  72.175  1.00  0.00     0.000 HD 
ENDBRANCH   7  18
ENDBRANCH   5   6
ENDBRANCH   4   5
BRANCH   4  21
HETATM   21  C   UNL     1      -9.772  18.259  66.701  1.00  0.00    -0.339 C  
HETATM   22  H   UNL     1     -11.098  19.396  65.736  1.00  0.00     0.000 HD 
HETATM   23  O   UNL     1     -10.426  18.761  65.518  1.00  0.00    -0.569 OA 
BRANCH  21  24
HETATM   24  C   UNL     1      -9.229  19.468  67.469  1.00  0.00    -0.315 C  
HETATM   25  H   UNL     1      -9.583  21.404  67.519  1.00  0.00     0.000 HD 
HETATM   26  C   UNL     1      -9.422  19.364  68.974  1.00  0.00    -0.340 C  
HETATM   27  O   UNL     1      -9.920  20.655  67.043  1.00  0.00    -0.441 OA 
HETATM   28  O   UNL     1     -10.144  18.547  69.537  1.00  0.00    -0.086 OA 
ENDBRANCH  21  24
ENDBRANCH   4  21
ENDBRANCH   3   4
TORSDOF 6
ENDMDL
MODEL       55
REMARK 921   NORMALIZED FREE ENERGY PREDICTED BY IDOCK:   -5.15 KCAL/MOL
REMARK 922        TOTAL FREE ENERGY PREDICTED BY IDOCK:   -8.16 KCAL/MOL
REMARK 923 INTER-LIGAND FREE ENERGY PREDICTED BY IDOCK:   -7.24 KCAL/MOL
REMARK 924 INTRA-LIGAND FREE ENERGY PREDICTED BY IDOCK:   -0.92 KCAL/MOL
REMARK 927      BINDING AFFINITY PREDICTED BY RF-SCORE:    0.00 PKD
ROOT
HETATM    1  O   UNL     1     -11.219  15.556  69.314  1.00  0.00    -0.268 OA 
HETATM    2  H   UNL     1     -11.709  15.764  70.101  1.00  0.00     0.000 HD 
HETATM    3  C   UNL     1     -10.987  16.677  68.475  1.00  0.00    -0.339 C  
ENDROOT
BRANCH   3   4
HETATM    4  C   UNL     1     -10.190  16.340  67.192  1.00  0.00    -0.276 C  
BRANCH   4   5
HETATM    5  O   UNL     1     -10.987  16.000  66.044  1.00  0.00    -0.233 OA 
BRANCH   5   6
HETATM    6  C   UNL     1     -11.603  14.715  66.097  1.00  0.00    -0.332 C  
HETATM    7  C   UNL     1     -11.346  12.492  66.970  1.00  0.00    -0.328 C  
HETATM    8  O   UNL     1     -10.765  13.802  66.827  1.00  0.00    -0.275 OA 
HETATM    9  H   UNL     1     -12.840  14.746  63.017  1.00  0.00     0.000 HD 
HETATM   10  C   UNL     1     -11.636  11.850  65.606  1.00  0.00    -0.210 C  
HETATM   11  O   UNL     1     -12.683  15.073  63.896  1.00  0.00    -0.775 OA 
HETATM   12  O   UNL     1     -10.454  11.608  64.827  1.00  0.00    -0.265 OA 
HETATM   13  C   UNL     1     -12.528  12.796  64.791  1.00  0.00    -0.472 C  
HETATM   14  H   UNL     1     -10.634  11.211  63.982  1.00  0.00     0.000 HD 
HETATM   15  H   UNL     1     -13.375  12.792  63.015  1.00  0.00     0.000 HD 
HETATM   16  O   UNL     1     -12.822  12.207  63.519  1.00  0.00    -0.768 OA 
HETATM   17  C   UNL     1     -11.859  14.180  64.659  1.00  0.00    -0.431 C  
BRANCH   7  18
HETATM   18  C   UNL     1     -10.392  11.638  67.809  1.00  0.00    -0.182 C  
HETATM   19  O   UNL     1      -9.055  11.807  67.346  1.00  0.00    -0.168 OA 
HETATM   20  H   UNL     1      -8.463  11.277  67.866  1.00  0.00     0.000 HD 
ENDBRANCH   7  18
ENDBRANCH   5   6
ENDBRANCH   4   5
BRANCH   4  21
HETATM   21  C   UNL     1      -9.212  17.498  66.826  1.00  0.00    -0.265 C  
HETATM   22  H   UNL     1      -9.245  19.170  65.737  1.00  0.00     0.000 HD 
HETATM   23  O   UNL     1      -9.841  18.464  65.960  1.00  0.00    -0.489 OA 
BRANCH  21  24
HETATM   24  C   UNL     1      -7.944  17.010  66.118  1.00  0.00    -0.264 C  
HETATM   25  H   UNL     1      -6.510  17.819  65.039  1.00  0.00     0.000 HD 
HETATM   26  C   UNL     1      -6.925  16.390  67.061  1.00  0.00    -0.219 C  
HETATM   27  O   UNL     1      -7.295  18.122  65.478  1.00  0.00    -0.543 OA 
HETATM   28  O   UNL     1      -6.957  16.473  68.285  1.00  0.00    -0.136 OA 
ENDBRANCH  21  24
ENDBRANCH   4  21
ENDBRANCH   3   4
TORSDOF 6
ENDMDL
MODEL       56
REMARK 921   NORMALIZED FREE ENERGY PREDICTED BY IDOCK:   -5.13 KCAL/MOL
REMARK 922        TOTAL FREE ENERGY PREDICTED BY IDOCK:   -8.13 KCAL/MOL
REMARK 923 INTER-LIGAND FREE ENERGY PREDICTED BY IDOCK:   -7.42 KCAL/MOL
REMARK 924 INTRA-LIGAND FREE ENERGY PREDICTED BY IDOCK:   -0.71 KCAL/MOL
REMARK 927      BINDING AFFINITY PREDICTED BY RF-SCORE:    0.00 PKD
ROOT
HETATM    1  O   UNL     1     -10.829   7.423  66.994  1.00  0.00    -0.422 OA 
HETATM    2  H   UNL     1     -10.844   6.473  67.011  1.00  0.00     0.000 HD 
HETATM    3  C   UNL     1     -10.168   8.003  68.108  1.00  0.00    -0.207 C  
ENDROOT
BRANCH   3   4
HETATM    4  C   UNL     1     -10.144   9.550  68.081  1.00  0.00    -0.182 C  
BRANCH   4   5
HETATM    5  O   UNL     1     -11.179  10.168  67.296  1.00  0.00    -0.218 OA 
BRANCH   5   6
HETATM    6  C   UNL     1     -10.717  11.068  66.291  1.00  0.00    -0.212 C  
HETATM    7  C   UNL     1     -11.295  13.057  65.075  1.00  0.00    -0.296 C  
HETATM    8  O   UNL     1     -11.712  12.076  66.043  1.00  0.00    -0.460 OA 
HETATM    9  H   UNL     1      -9.217   8.796  64.392  1.00  0.00     0.000 HD 
HETATM   10  C   UNL     1     -10.959  12.410  63.723  1.00  0.00    -0.447 C  
HETATM   11  O   UNL     1      -9.414   9.269  65.192  1.00  0.00    -0.235 OA 
HETATM   12  O   UNL     1     -12.087  11.779  63.097  1.00  0.00    -0.855 OA 
HETATM   13  C   UNL     1      -9.899  11.322  63.943  1.00  0.00    -0.300 C  
HETATM   14  H   UNL     1     -11.879  11.379  62.261  1.00  0.00     0.000 HD 
HETATM   15  H   UNL     1      -8.905  10.043  62.827  1.00  0.00     0.000 HD 
HETATM   16  O   UNL     1      -9.562  10.716  62.691  1.00  0.00    -0.292 OA 
HETATM   17  C   UNL     1     -10.396  10.293  64.981  1.00  0.00    -0.104 C  
BRANCH   7  18
HETATM   18  C   UNL     1     -12.408  14.099  64.944  1.00  0.00    -0.430 C  
HETATM   19  O   UNL     1     -12.432  14.621  63.618  1.00  0.00    -1.070 OA 
HETATM   20  H   UNL     1     -13.123  15.268  63.538  1.00  0.00     0.000 HD 
ENDBRANCH   7  18
ENDBRANCH   5   6
ENDBRANCH   4   5
BRANCH   4  21
HETATM   21  C   UNL     1     -10.166  10.131  69.527  1.00  0.00    -0.236 C  
HETATM   22  H   UNL     1      -8.874  10.432  71.018  1.00  0.00     0.000 HD 
HETATM   23  O   UNL     1      -8.860  10.078  70.137  1.00  0.00    -0.165 OA 
BRANCH  21  24
HETATM   24  C   UNL     1     -11.133   9.390  70.457  1.00  0.00    -0.273 C  
HETATM   25  H   UNL     1     -11.048   8.567  72.243  1.00  0.00     0.000 HD 
HETATM   26  C   UNL     1     -12.337  10.224  70.865  1.00  0.00    -0.373 C  
HETATM   27  O   UNL     1     -10.448   9.026  71.668  1.00  0.00    -0.310 OA 
HETATM   28  O   UNL     1     -12.444  11.435  70.702  1.00  0.00    -0.338 OA 
ENDBRANCH  21  24
ENDBRANCH   4  21
ENDBRANCH   3   4
TORSDOF 6
ENDMDL
MODEL       57
REMARK 921   NORMALIZED FREE ENERGY PREDICTED BY IDOCK:   -5.11 KCAL/MOL
REMARK 922        TOTAL FREE ENERGY PREDICTED BY IDOCK:   -8.10 KCAL/MOL
REMARK 923 INTER-LIGAND FREE ENERGY PREDICTED BY IDOCK:   -6.99 KCAL/MOL
REMARK 924 INTRA-LIGAND FREE ENERGY PREDICTED BY IDOCK:   -1.12 KCAL/MOL
REMARK 927      BINDING AFFINITY PREDICTED BY RF-SCORE:    0.00 PKD
ROOT
HETATM    1  O   UNL     1     -12.408  14.287  68.331  1.00  0.00    -0.584 OA 
HETATM    2  H   UNL     1     -12.817  14.976  68.842  1.00  0.00     0.000 HD 
HETATM    3  C   UNL     1     -11.641  14.767  67.238  1.00  0.00    -0.369 C  
ENDROOT
BRANCH   3   4
HETATM    4  C   UNL     1     -10.973  13.646  66.407  1.00  0.00    -0.297 C  
BRANCH   4   5
HETATM    5  O   UNL     1     -11.519  12.328  66.601  1.00  0.00    -0.335 OA 
BRANCH   5   6
HETATM    6  C   UNL     1     -10.598  11.363  67.105  1.00  0.00    -0.243 C  
HETATM    7  C   UNL     1      -8.890   9.806  66.450  1.00  0.00    -0.146 C  
HETATM    8  O   UNL     1      -9.881  10.757  66.015  1.00  0.00    -0.215 OA 
HETATM    9  H   UNL     1     -12.547  10.185  69.519  1.00  0.00     0.000 HD 
HETATM   10  C   UNL     1      -9.518   8.669  67.268  1.00  0.00    -0.156 C  
HETATM   11  O   UNL     1     -12.087  10.847  69.017  1.00  0.00    -0.417 OA 
HETATM   12  O   UNL     1     -10.443   7.868  66.515  1.00  0.00    -0.475 OA 
HETATM   13  C   UNL     1     -10.297   9.274  68.443  1.00  0.00    -0.209 C  
HETATM   14  H   UNL     1     -10.831   7.164  67.022  1.00  0.00     0.000 HD 
HETATM   15  H   UNL     1     -11.361   8.601  69.955  1.00  0.00     0.000 HD 
HETATM   16  O   UNL     1     -10.879   8.227  69.227  1.00  0.00    -0.171 OA 
HETATM   17  C   UNL     1     -11.350  10.278  67.926  1.00  0.00    -0.105 C  
BRANCH   7  18
HETATM   18  C   UNL     1      -8.161   9.280  65.210  1.00  0.00    -0.134 C  
HETATM   19  O   UNL     1      -9.069   9.190  64.116  1.00  0.00    -0.427 OA 
HETATM   20  H   UNL     1      -8.617   8.863  63.347  1.00  0.00     0.000 HD 
ENDBRANCH   7  18
ENDBRANCH   5   6
ENDBRANCH   4   5
BRANCH   4  21
HETATM   21  C   UNL     1     -10.985  13.998  64.888  1.00  0.00    -0.392 C  
HETATM   22  H   UNL     1     -11.414  15.573  63.741  1.00  0.00     0.000 HD 
HETATM   23  O   UNL     1     -11.406  15.359  64.667  1.00  0.00    -0.407 OA 
BRANCH  21  24
HETATM   24  C   UNL     1     -11.915  13.095  64.071  1.00  0.00    -0.460 C  
HETATM   25  H   UNL     1     -13.228  13.334  62.624  1.00  0.00     0.000 HD 
HETATM   26  C   UNL     1     -11.176  12.038  63.265  1.00  0.00    -0.318 C  
HETATM   27  O   UNL     1     -12.652  13.894  63.130  1.00  0.00    -0.775 OA 
HETATM   28  O   UNL     1      -9.966  12.025  63.062  1.00  0.00    -0.351 OA 
ENDBRANCH  21  24
ENDBRANCH   4  21
ENDBRANCH   3   4
TORSDOF 6
ENDMDL
MODEL       58
REMARK 921   NORMALIZED FREE ENERGY PREDICTED BY IDOCK:   -5.09 KCAL/MOL
REMARK 922        TOTAL FREE ENERGY PREDICTED BY IDOCK:   -8.07 KCAL/MOL
REMARK 923 INTER-LIGAND FREE ENERGY PREDICTED BY IDOCK:   -7.33 KCAL/MOL
REMARK 924 INTRA-LIGAND FREE ENERGY PREDICTED BY IDOCK:   -0.75 KCAL/MOL
REMARK 927      BINDING AFFINITY PREDICTED BY RF-SCORE:    0.00 PKD
ROOT
HETATM    1  O   UNL     1      -6.124  16.002  69.092  1.00  0.00    -0.124 OA 
HETATM    2  H   UNL     1      -5.552  16.058  69.849  1.00  0.00     0.000 HD 
HETATM    3  C   UNL     1      -7.191  16.937  69.112  1.00  0.00    -0.209 C  
ENDROOT
BRANCH   3   4
HETATM    4  C   UNL     1      -8.122  16.846  67.881  1.00  0.00    -0.188 C  
BRANCH   4   5
HETATM    5  O   UNL     1      -9.252  15.967  68.027  1.00  0.00    -0.191 OA 
BRANCH   5   6
HETATM    6  C   UNL     1      -9.433  15.035  66.964  1.00  0.00    -0.229 C  
HETATM    7  C   UNL     1     -10.771  14.562  65.026  1.00  0.00    -0.427 C  
HETATM    8  O   UNL     1     -10.556  15.428  66.156  1.00  0.00    -0.298 OA 
HETATM    9  H   UNL     1      -8.684  12.307  68.700  1.00  0.00     0.000 HD 
HETATM   10  C   UNL     1     -11.012  13.109  65.463  1.00  0.00    -0.277 C  
HETATM   11  O   UNL     1      -8.552  13.182  68.353  1.00  0.00    -0.172 OA 
HETATM   12  O   UNL     1     -12.204  12.940  66.245  1.00  0.00    -0.454 OA 
HETATM   13  C   UNL     1      -9.833  12.651  66.331  1.00  0.00    -0.259 C  
HETATM   14  H   UNL     1     -12.353  12.041  66.516  1.00  0.00     0.000 HD 
HETATM   15  H   UNL     1      -9.302  11.007  67.275  1.00  0.00     0.000 HD 
HETATM   16  O   UNL     1     -10.032  11.292  66.738  1.00  0.00    -0.199 OA 
HETATM   17  C   UNL     1      -9.650  13.604  67.532  1.00  0.00    -0.220 C  
BRANCH   7  18
HETATM   18  C   UNL     1     -11.949  15.115  64.220  1.00  0.00    -0.262 C  
HETATM   19  O   UNL     1     -11.644  16.427  63.753  1.00  0.00    -1.605 OA 
HETATM   20  H   UNL     1     -12.375  16.770  63.253  1.00  0.00     0.000 HD 
ENDBRANCH   7  18
ENDBRANCH   5   6
ENDBRANCH   4   5
BRANCH   4  21
HETATM   21  C   UNL     1      -8.613  18.261  67.449  1.00  0.00    -0.249 C  
HETATM   22  H   UNL     1      -7.985  20.150  67.593  1.00  0.00     0.000 HD 
HETATM   23  O   UNL     1      -7.685  19.287  67.856  1.00  0.00    -0.268 OA 
BRANCH  21  24
HETATM   24  C   UNL     1      -9.981  18.625  68.035  1.00  0.00    -0.351 C  
HETATM   25  H   UNL     1     -10.647  19.676  69.560  1.00  0.00     0.000 HD 
HETATM   26  C   UNL     1     -10.860  19.409  67.073  1.00  0.00    -0.432 C  
HETATM   27  O   UNL     1      -9.799  19.451  69.198  1.00  0.00    -0.426 OA 
HETATM   28  O   UNL     1     -10.475  19.930  66.031  1.00  0.00    -0.484 OA 
ENDBRANCH  21  24
ENDBRANCH   4  21
ENDBRANCH   3   4
TORSDOF 6
ENDMDL
MODEL       59
REMARK 921   NORMALIZED FREE ENERGY PREDICTED BY IDOCK:   -5.08 KCAL/MOL
REMARK 922        TOTAL FREE ENERGY PREDICTED BY IDOCK:   -8.07 KCAL/MOL
REMARK 923 INTER-LIGAND FREE ENERGY PREDICTED BY IDOCK:   -7.04 KCAL/MOL
REMARK 924 INTRA-LIGAND FREE ENERGY PREDICTED BY IDOCK:   -1.03 KCAL/MOL
REMARK 927      BINDING AFFINITY PREDICTED BY RF-SCORE:    0.00 PKD
ROOT
HETATM    1  O   UNL     1      -9.251  12.160  68.925  1.00  0.00    -0.390 OA 
HETATM    2  H   UNL     1      -8.721  11.380  69.038  1.00  0.00     0.000 HD 
HETATM    3  C   UNL     1      -8.884  12.941  67.799  1.00  0.00    -0.188 C  
ENDROOT
BRANCH   3   4
HETATM    4  C   UNL     1      -9.747  14.211  67.614  1.00  0.00    -0.228 C  
BRANCH   4   5
HETATM    5  O   UNL     1      -9.265  15.145  66.631  1.00  0.00    -0.234 OA 
BRANCH   5   6
HETATM    6  C   UNL     1      -8.778  16.377  67.158  1.00  0.00    -0.186 C  
HETATM    7  C   UNL     1      -9.285  18.715  67.370  1.00  0.00    -0.279 C  
HETATM    8  O   UNL     1      -9.683  17.443  66.824  1.00  0.00    -0.266 OA 
HETATM    9  H   UNL     1      -5.561  15.814  66.562  1.00  0.00     0.000 HD 
HETATM   10  C   UNL     1      -7.892  19.132  66.876  1.00  0.00    -0.252 C  
HETATM   11  O   UNL     1      -6.429  15.630  66.903  1.00  0.00    -0.254 OA 
HETATM   12  O   UNL     1      -7.829  19.342  65.457  1.00  0.00    -0.401 OA 
HETATM   13  C   UNL     1      -6.893  18.017  67.212  1.00  0.00    -0.186 C  
HETATM   14  H   UNL     1      -6.967  19.600  65.152  1.00  0.00     0.000 HD 
HETATM   15  H   UNL     1      -4.964  17.704  66.980  1.00  0.00     0.000 HD 
HETATM   16  O   UNL     1      -5.583  18.394  66.772  1.00  0.00    -0.136 OA 
HETATM   17  C   UNL     1      -7.358  16.679  66.599  1.00  0.00    -0.255 C  
BRANCH   7  18
HETATM   18  C   UNL     1     -10.352  19.747  66.996  1.00  0.00    -0.465 C  
HETATM   19  O   UNL     1      -9.791  21.057  67.020  1.00  0.00    -0.610 OA 
HETATM   20  H   UNL     1     -10.453  21.697  66.788  1.00  0.00     0.000 HD 
ENDBRANCH   7  18
ENDBRANCH   5   6
ENDBRANCH   4   5
BRANCH   4  21
HETATM   21  C   UNL     1     -11.227  13.837  67.297  1.00  0.00    -0.311 C  
HETATM   22  H   UNL     1     -12.782  13.028  68.251  1.00  0.00     0.000 HD 
HETATM   23  O   UNL     1     -11.880  13.256  68.444  1.00  0.00    -0.336 OA 
BRANCH  21  24
HETATM   24  C   UNL     1     -11.359  12.837  66.144  1.00  0.00    -0.328 C  
HETATM   25  H   UNL     1     -11.812  10.931  65.951  1.00  0.00     0.000 HD 
HETATM   26  C   UNL     1     -12.422  13.223  65.128  1.00  0.00    -0.470 C  
HETATM   27  O   UNL     1     -11.730  11.550  66.666  1.00  0.00    -0.486 OA 
HETATM   28  O   UNL     1     -13.275  14.090  65.295  1.00  0.00    -0.782 OA 
ENDBRANCH  21  24
ENDBRANCH   4  21
ENDBRANCH   3   4
TORSDOF 6
ENDMDL
MODEL       60
REMARK 921   NORMALIZED FREE ENERGY PREDICTED BY IDOCK:   -5.08 KCAL/MOL
REMARK 922        TOTAL FREE ENERGY PREDICTED BY IDOCK:   -8.06 KCAL/MOL
REMARK 923 INTER-LIGAND FREE ENERGY PREDICTED BY IDOCK:   -7.01 KCAL/MOL
REMARK 924 INTRA-LIGAND FREE ENERGY PREDICTED BY IDOCK:   -1.05 KCAL/MOL
REMARK 927      BINDING AFFINITY PREDICTED BY RF-SCORE:    0.00 PKD
ROOT
HETATM    1  O   UNL     1     -13.358  10.028  70.423  1.00  0.00    -0.595 OA 
HETATM    2  H   UNL     1     -13.871  10.404  71.129  1.00  0.00     0.000 HD 
HETATM    3  C   UNL     1     -12.244  10.819  70.043  1.00  0.00    -0.334 C  
ENDROOT
BRANCH   3   4
HETATM    4  C   UNL     1     -11.408  10.206  68.894  1.00  0.00    -0.120 C  
BRANCH   4   5
HETATM    5  O   UNL     1     -10.613  11.143  68.145  1.00  0.00    -0.176 OA 
BRANCH   5   6
HETATM    6  C   UNL     1     -11.348  12.189  67.514  1.00  0.00    -0.326 C  
HETATM    7  C   UNL     1     -12.193  12.942  65.395  1.00  0.00    -0.478 C  
HETATM    8  O   UNL     1     -11.417  11.952  66.097  1.00  0.00    -0.343 OA 
HETATM    9  H   UNL     1     -10.175  14.671  69.379  1.00  0.00     0.000 HD 
HETATM   10  C   UNL     1     -11.620  14.353  65.591  1.00  0.00    -0.347 C  
HETATM   11  O   UNL     1     -10.583  13.831  69.205  1.00  0.00    -0.185 OA 
HETATM   12  O   UNL     1     -10.301  14.513  65.047  1.00  0.00    -0.404 OA 
HETATM   13  C   UNL     1     -11.526  14.646  67.094  1.00  0.00    -0.368 C  
HETATM   14  H   UNL     1      -9.946  15.386  65.168  1.00  0.00     0.000 HD 
HETATM   15  H   UNL     1     -10.949  16.147  68.228  1.00  0.00     0.000 HD 
HETATM   16  O   UNL     1     -11.006  15.965  67.298  1.00  0.00    -0.310 OA 
HETATM   17  C   UNL     1     -10.680  13.564  67.799  1.00  0.00    -0.252 C  
BRANCH   7  18
HETATM   18  C   UNL     1     -12.240  12.547  63.917  1.00  0.00    -0.503 C  
HETATM   19  O   UNL     1     -12.252  13.717  63.103  1.00  0.00    -1.048 OA 
HETATM   20  H   UNL     1     -12.281  13.473  62.185  1.00  0.00     0.000 HD 
ENDBRANCH   7  18
ENDBRANCH   5   6
ENDBRANCH   4   5
BRANCH   4  21
HETATM   21  C   UNL     1     -10.502   9.053  69.420  1.00  0.00    -0.222 C  
HETATM   22  H   UNL     1     -10.605   7.597  70.781  1.00  0.00     0.000 HD 
HETATM   23  O   UNL     1     -11.158   8.300  70.460  1.00  0.00    -0.250 OA 
BRANCH  21  24
HETATM   24  C   UNL     1      -9.169   9.550  69.990  1.00  0.00    -0.234 C  
HETATM   25  H   UNL     1      -8.295   9.585  71.754  1.00  0.00     0.000 HD 
HETATM   26  C   UNL     1      -7.957   8.875  69.369  1.00  0.00    -0.100 C  
HETATM   27  O   UNL     1      -9.121   9.277  71.401  1.00  0.00    -0.299 OA 
HETATM   28  O   UNL     1      -7.992   7.867  68.671  1.00  0.00    -0.120 OA 
ENDBRANCH  21  24
ENDBRANCH   4  21
ENDBRANCH   3   4
TORSDOF 6
ENDMDL
MODEL       61
REMARK 921   NORMALIZED FREE ENERGY PREDICTED BY IDOCK:   -5.07 KCAL/MOL
REMARK 922        TOTAL FREE ENERGY PREDICTED BY IDOCK:   -8.05 KCAL/MOL
REMARK 923 INTER-LIGAND FREE ENERGY PREDICTED BY IDOCK:   -7.36 KCAL/MOL
REMARK 924 INTRA-LIGAND FREE ENERGY PREDICTED BY IDOCK:   -0.70 KCAL/MOL
REMARK 927      BINDING AFFINITY PREDICTED BY RF-SCORE:    0.00 PKD
ROOT
HETATM    1  O   UNL     1     -10.637  19.603  65.717  1.00  0.00    -0.522 OA 
HETATM    2  H   UNL     1     -11.094  20.392  65.449  1.00  0.00     0.000 HD 
HETATM    3  C   UNL     1     -10.766  19.310  67.100  1.00  0.00    -0.480 C  
ENDROOT
BRANCH   3   4
HETATM    4  C   UNL     1     -10.023  18.026  67.536  1.00  0.00    -0.327 C  
BRANCH   4   5
HETATM    5  O   UNL     1     -10.307  16.854  66.751  1.00  0.00    -0.304 OA 
BRANCH   5   6
HETATM    6  C   UNL     1     -11.219  15.935  67.348  1.00  0.00    -0.134 C  
HETATM    7  C   UNL     1     -11.968  15.062  69.457  1.00  0.00    -0.313 C  
HETATM    8  O   UNL     1     -11.042  15.929  68.775  1.00  0.00    -0.286 OA 
HETATM    9  H   UNL     1     -11.025  13.604  64.993  1.00  0.00     0.000 HD 
HETATM   10  C   UNL     1     -11.839  13.608  68.978  1.00  0.00    -0.352 C  
HETATM   11  O   UNL     1     -11.158  14.476  65.346  1.00  0.00    -0.315 OA 
HETATM   12  O   UNL     1     -10.559  13.024  69.266  1.00  0.00    -0.441 OA 
HETATM   13  C   UNL     1     -12.019  13.570  67.455  1.00  0.00    -0.357 C  
HETATM   14  H   UNL     1     -10.479  12.125  68.970  1.00  0.00     0.000 HD 
HETATM   15  H   UNL     1     -12.029  12.195  66.047  1.00  0.00     0.000 HD 
HETATM   16  O   UNL     1     -11.916  12.219  66.990  1.00  0.00    -0.576 OA 
HETATM   17  C   UNL     1     -11.001  14.507  66.772  1.00  0.00    -0.316 C  
BRANCH   7  18
HETATM   18  C   UNL     1     -11.718  15.188  70.962  1.00  0.00    -0.340 C  
HETATM   19  O   UNL     1     -11.703  16.563  71.338  1.00  0.00    -0.648 OA 
HETATM   20  H   UNL     1     -11.548  16.641  72.271  1.00  0.00     0.000 HD 
ENDBRANCH   7  18
ENDBRANCH   5   6
ENDBRANCH   4   5
BRANCH   4  21
HETATM   21  C   UNL     1      -8.483  18.263  67.583  1.00  0.00    -0.255 C  
HETATM   22  H   UNL     1      -6.885  17.430  68.441  1.00  0.00     0.000 HD 
HETATM   23  O   UNL     1      -7.824  17.285  68.412  1.00  0.00    -0.233 OA 
BRANCH  21  24
HETATM   24  C   UNL     1      -8.106  19.646  68.124  1.00  0.00    -0.318 C  
HETATM   25  H   UNL     1      -7.105  20.353  69.665  1.00  0.00     0.000 HD 
HETATM   26  C   UNL     1      -7.256  20.460  67.161  1.00  0.00    -0.301 C  
HETATM   27  O   UNL     1      -7.338  19.496  69.330  1.00  0.00    -0.332 OA 
HETATM   28  O   UNL     1      -6.700  20.014  66.162  1.00  0.00    -0.210 OA 
ENDBRANCH  21  24
ENDBRANCH   4  21
ENDBRANCH   3   4
TORSDOF 6
ENDMDL
MODEL       62
REMARK 921   NORMALIZED FREE ENERGY PREDICTED BY IDOCK:   -5.06 KCAL/MOL
REMARK 922        TOTAL FREE ENERGY PREDICTED BY IDOCK:   -8.03 KCAL/MOL
REMARK 923 INTER-LIGAND FREE ENERGY PREDICTED BY IDOCK:   -7.33 KCAL/MOL
REMARK 924 INTRA-LIGAND FREE ENERGY PREDICTED BY IDOCK:   -0.70 KCAL/MOL
REMARK 927      BINDING AFFINITY PREDICTED BY RF-SCORE:    0.00 PKD
ROOT
HETATM    1  O   UNL     1     -11.854  12.963  63.109  1.00  0.00    -0.783 OA 
HETATM    2  H   UNL     1     -12.121  13.051  62.201  1.00  0.00     0.000 HD 
HETATM    3  C   UNL     1     -11.224  11.726  63.401  1.00  0.00    -0.352 C  
ENDROOT
BRANCH   3   4
HETATM    4  C   UNL     1     -10.789  11.582  64.879  1.00  0.00    -0.283 C  
BRANCH   4   5
HETATM    5  O   UNL     1     -11.845  11.719  65.847  1.00  0.00    -0.414 OA 
BRANCH   5   6
HETATM    6  C   UNL     1     -11.988  13.024  66.403  1.00  0.00    -0.402 C  
HETATM    7  C   UNL     1     -11.472  15.341  66.035  1.00  0.00    -0.085 C  
HETATM    8  O   UNL     1     -11.326  13.987  65.565  1.00  0.00    -0.305 OA 
HETATM    9  H   UNL     1     -11.668  12.131  69.584  1.00  0.00     0.000 HD 
HETATM   10  C   UNL     1     -10.910  15.511  67.453  1.00  0.00    -0.312 C  
HETATM   11  O   UNL     1     -12.028  12.106  68.705  1.00  0.00    -0.318 OA 
HETATM   12  O   UNL     1      -9.495  15.278  67.538  1.00  0.00    -0.200 OA 
HETATM   13  C   UNL     1     -11.590  14.497  68.382  1.00  0.00    -0.326 C  
HETATM   14  H   UNL     1      -9.147  15.384  68.416  1.00  0.00     0.000 HD 
HETATM   15  H   UNL     1     -11.510  14.023  70.290  1.00  0.00     0.000 HD 
HETATM   16  O   UNL     1     -11.089  14.650  69.715  1.00  0.00    -0.260 OA 
HETATM   17  C   UNL     1     -11.398  13.064  67.841  1.00  0.00    -0.288 C  
BRANCH   7  18
HETATM   18  C   UNL     1     -10.778  16.268  65.033  1.00  0.00    -0.298 C  
HETATM   19  O   UNL     1     -11.543  16.346  63.833  1.00  0.00    -1.564 OA 
HETATM   20  H   UNL     1     -11.113  16.921  63.212  1.00  0.00     0.000 HD 
ENDBRANCH   7  18
ENDBRANCH   5   6
ENDBRANCH   4   5
BRANCH   4  21
HETATM   21  C   UNL     1     -10.039  10.236  65.109  1.00  0.00    -0.285 C  
HETATM   22  H   UNL     1      -9.829   8.894  66.571  1.00  0.00     0.000 HD 
HETATM   23  O   UNL     1     -10.286   9.715  66.431  1.00  0.00    -0.237 OA 
BRANCH  21  24
HETATM   24  C   UNL     1      -8.521  10.359  64.945  1.00  0.00    -0.175 C  
HETATM   25  H   UNL     1      -6.926   9.818  65.964  1.00  0.00     0.000 HD 
HETATM   26  C   UNL     1      -7.991   9.674  63.695  1.00  0.00    -0.142 C  
HETATM   27  O   UNL     1      -7.866   9.742  66.066  1.00  0.00    -0.104 OA 
HETATM   28  O   UNL     1      -8.626   8.889  62.999  1.00  0.00    -0.197 OA 
ENDBRANCH  21  24
ENDBRANCH   4  21
ENDBRANCH   3   4
TORSDOF 6
ENDMDL
MODEL       63
REMARK 921   NORMALIZED FREE ENERGY PREDICTED BY IDOCK:   -5.05 KCAL/MOL
REMARK 922        TOTAL FREE ENERGY PREDICTED BY IDOCK:   -8.03 KCAL/MOL
REMARK 923 INTER-LIGAND FREE ENERGY PREDICTED BY IDOCK:   -6.73 KCAL/MOL
REMARK 924 INTRA-LIGAND FREE ENERGY PREDICTED BY IDOCK:   -1.30 KCAL/MOL
REMARK 927      BINDING AFFINITY PREDICTED BY RF-SCORE:    0.00 PKD
ROOT
HETATM    1  O   UNL     1      -9.528   8.049  65.478  1.00  0.00    -0.410 OA 
HETATM    2  H   UNL     1      -9.204   7.408  64.856  1.00  0.00     0.000 HD 
HETATM    3  C   UNL     1      -8.692   9.188  65.610  1.00  0.00    -0.174 C  
ENDROOT
BRANCH   3   4
HETATM    4  C   UNL     1      -9.218  10.232  66.624  1.00  0.00    -0.155 C  
BRANCH   4   5
HETATM    5  O   UNL     1     -10.555  10.706  66.380  1.00  0.00    -0.233 OA 
BRANCH   5   6
HETATM    6  C   UNL     1     -10.645  12.068  65.966  1.00  0.00    -0.268 C  
HETATM    7  C   UNL     1     -11.174  14.282  66.731  1.00  0.00    -0.332 C  
HETATM    8  O   UNL     1     -11.109  12.881  67.057  1.00  0.00    -0.260 OA 
HETATM    9  H   UNL     1     -11.764  11.471  62.899  1.00  0.00     0.000 HD 
HETATM   10  C   UNL     1     -12.110  14.543  65.541  1.00  0.00    -0.299 C  
HETATM   11  O   UNL     1     -11.178  11.391  63.642  1.00  0.00    -0.402 OA 
HETATM   12  O   UNL     1     -13.478  14.196  65.805  1.00  0.00    -0.670 OA 
HETATM   13  C   UNL     1     -11.650  13.690  64.352  1.00  0.00    -0.393 C  
HETATM   14  H   UNL     1     -14.057  14.357  65.069  1.00  0.00     0.000 HD 
HETATM   15  H   UNL     1     -12.217  13.402  62.490  1.00  0.00     0.000 HD 
HETATM   16  O   UNL     1     -12.502  13.930  63.226  1.00  0.00    -0.817 OA 
HETATM   17  C   UNL     1     -11.604  12.199  64.749  1.00  0.00    -0.321 C  
BRANCH   7  18
HETATM   18  C   UNL     1     -11.622  15.041  67.983  1.00  0.00    -0.338 C  
HETATM   19  O   UNL     1     -12.506  14.230  68.752  1.00  0.00    -0.568 OA 
HETATM   20  H   UNL     1     -12.784  14.700  69.528  1.00  0.00     0.000 HD 
ENDBRANCH   7  18
ENDBRANCH   5   6
ENDBRANCH   4   5
BRANCH   4  21
HETATM   21  C   UNL     1      -9.113   9.692  68.082  1.00  0.00    -0.122 C  
HETATM   22  H   UNL     1      -8.143   8.245  69.055  1.00  0.00     0.000 HD 
HETATM   23  O   UNL     1      -8.207   8.574  68.166  1.00  0.00    -0.117 OA 
BRANCH  21  24
HETATM   24  C   UNL     1     -10.459   9.231  68.650  1.00  0.00    -0.209 C  
HETATM   25  H   UNL     1     -11.528   7.577  68.627  1.00  0.00     0.000 HD 
HETATM   26  C   UNL     1     -10.527   9.290  70.168  1.00  0.00    -0.230 C  
HETATM   27  O   UNL     1     -10.693   7.863  68.276  1.00  0.00    -0.147 OA 
HETATM   28  O   UNL     1      -9.563   9.442  70.911  1.00  0.00    -0.267 OA 
ENDBRANCH  21  24
ENDBRANCH   4  21
ENDBRANCH   3   4
TORSDOF 6
ENDMDL
MODEL       64
REMARK 921   NORMALIZED FREE ENERGY PREDICTED BY IDOCK:   -5.01 KCAL/MOL
REMARK 922        TOTAL FREE ENERGY PREDICTED BY IDOCK:   -7.97 KCAL/MOL
REMARK 923 INTER-LIGAND FREE ENERGY PREDICTED BY IDOCK:   -6.84 KCAL/MOL
REMARK 924 INTRA-LIGAND FREE ENERGY PREDICTED BY IDOCK:   -1.13 KCAL/MOL
REMARK 927      BINDING AFFINITY PREDICTED BY RF-SCORE:    0.00 PKD
ROOT
HETATM    1  O   UNL     1     -10.899   8.012  67.681  1.00  0.00    -0.477 OA 
HETATM    2  H   UNL     1     -10.538   7.196  67.352  1.00  0.00     0.000 HD 
HETATM    3  C   UNL     1     -10.482   9.155  66.952  1.00  0.00    -0.217 C  
ENDROOT
BRANCH   3   4
HETATM    4  C   UNL     1     -11.070  10.483  67.486  1.00  0.00    -0.290 C  
BRANCH   4   5
HETATM    5  O   UNL     1     -10.278  11.149  68.486  1.00  0.00    -0.183 OA 
BRANCH   5   6
HETATM    6  C   UNL     1     -10.688  10.920  69.832  1.00  0.00    -0.075 C  
HETATM    7  C   UNL     1     -11.176   9.192  71.428  1.00  0.00    -0.349 C  
HETATM    8  O   UNL     1     -10.816   9.507  70.069  1.00  0.00    -0.227 OA 
HETATM    9  H   UNL     1     -12.776  13.491  70.048  1.00  0.00     0.000 HD 
HETATM   10  C   UNL     1     -12.511   9.841  71.824  1.00  0.00    -0.398 C  
HETATM   11  O   UNL     1     -11.952  13.051  69.876  1.00  0.00    -0.320 OA 
HETATM   12  O   UNL     1     -13.628   9.360  71.060  1.00  0.00    -0.567 OA 
HETATM   13  C   UNL     1     -12.418  11.353  71.582  1.00  0.00    -0.114 C  
HETATM   14  H   UNL     1     -14.453   9.761  71.305  1.00  0.00     0.000 HD 
HETATM   15  H   UNL     1     -13.592  12.916  71.811  1.00  0.00     0.000 HD 
HETATM   16  O   UNL     1     -13.649  11.980  71.960  1.00  0.00    -0.362 OA 
HETATM   17  C   UNL     1     -12.038  11.639  70.114  1.00  0.00    -0.333 C  
BRANCH   7  18
HETATM   18  C   UNL     1     -11.223   7.668  71.566  1.00  0.00    -0.246 C  
HETATM   19  O   UNL     1     -11.930   7.103  70.465  1.00  0.00    -0.488 OA 
HETATM   20  H   UNL     1     -11.959   6.157  70.551  1.00  0.00     0.000 HD 
ENDBRANCH   7  18
ENDBRANCH   5   6
ENDBRANCH   4   5
BRANCH   4  21
HETATM   21  C   UNL     1     -11.372  11.467  66.317  1.00  0.00    -0.153 C  
HETATM   22  H   UNL     1     -10.649  11.869  64.500  1.00  0.00     0.000 HD 
HETATM   23  O   UNL     1     -10.465  11.269  65.213  1.00  0.00    -0.270 OA 
BRANCH  21  24
HETATM   24  C   UNL     1     -11.270  12.939  66.730  1.00  0.00    -0.298 C  
HETATM   25  H   UNL     1      -9.944  14.384  66.553  1.00  0.00     0.000 HD 
HETATM   26  C   UNL     1     -12.351  13.815  66.117  1.00  0.00    -0.452 C  
HETATM   27  O   UNL     1     -10.007  13.472  66.296  1.00  0.00    -0.285 OA 
HETATM   28  O   UNL     1     -13.090  13.482  65.196  1.00  0.00    -0.737 OA 
ENDBRANCH  21  24
ENDBRANCH   4  21
ENDBRANCH   3   4
TORSDOF 6
ENDMDL
MODEL       65
REMARK 921   NORMALIZED FREE ENERGY PREDICTED BY IDOCK:   -5.01 KCAL/MOL
REMARK 922        TOTAL FREE ENERGY PREDICTED BY IDOCK:   -7.97 KCAL/MOL
REMARK 923 INTER-LIGAND FREE ENERGY PREDICTED BY IDOCK:   -7.00 KCAL/MOL
REMARK 924 INTRA-LIGAND FREE ENERGY PREDICTED BY IDOCK:   -0.97 KCAL/MOL
REMARK 927      BINDING AFFINITY PREDICTED BY RF-SCORE:    0.00 PKD
ROOT
HETATM    1  O   UNL     1     -11.076  19.543  66.725  1.00  0.00    -0.374 OA 
HETATM    2  H   UNL     1     -11.394  19.510  65.830  1.00  0.00     0.000 HD 
HETATM    3  C   UNL     1     -10.491  18.329  67.168  1.00  0.00    -0.395 C  
ENDROOT
BRANCH   3   4
HETATM    4  C   UNL     1      -9.974  18.382  68.625  1.00  0.00    -0.387 C  
BRANCH   4   5
HETATM    5  O   UNL     1      -9.861  17.108  69.285  1.00  0.00    -0.207 OA 
BRANCH   5   6
HETATM    6  C   UNL     1     -11.062  16.340  69.321  1.00  0.00    -0.325 C  
HETATM    7  C   UNL     1     -12.770  15.505  70.789  1.00  0.00    -0.457 C  
HETATM    8  O   UNL     1     -11.527  16.224  70.677  1.00  0.00    -0.377 OA 
HETATM    9  H   UNL     1     -10.193  14.145  66.987  1.00  0.00     0.000 HD 
HETATM   10  C   UNL     1     -12.652  14.080  70.227  1.00  0.00    -0.291 C  
HETATM   11  O   UNL     1     -10.342  15.007  67.360  1.00  0.00    -0.235 OA 
HETATM   12  O   UNL     1     -11.722  13.258  70.948  1.00  0.00    -0.433 OA 
HETATM   13  C   UNL     1     -12.154  14.159  68.777  1.00  0.00    -0.291 C  
HETATM   14  H   UNL     1     -11.649  12.376  70.600  1.00  0.00     0.000 HD 
HETATM   15  H   UNL     1     -11.744  12.888  67.332  1.00  0.00     0.000 HD 
HETATM   16  O   UNL     1     -12.051  12.840  68.230  1.00  0.00    -0.282 OA 
HETATM   17  C   UNL     1     -10.819  14.930  68.711  1.00  0.00    -0.252 C  
BRANCH   7  18
HETATM   18  C   UNL     1     -13.185  15.501  72.263  1.00  0.00    -0.448 C  
HETATM   19  O   UNL     1     -13.797  14.256  72.591  1.00  0.00    -0.558 OA 
HETATM   20  H   UNL     1     -14.054  14.254  73.505  1.00  0.00     0.000 HD 
ENDBRANCH   7  18
ENDBRANCH   5   6
ENDBRANCH   4   5
BRANCH   4  21
HETATM   21  C   UNL     1      -8.611  19.133  68.704  1.00  0.00    -0.361 C  
HETATM   22  H   UNL     1      -7.659  20.575  67.704  1.00  0.00     0.000 HD 
HETATM   23  O   UNL     1      -8.490  20.117  67.656  1.00  0.00    -0.319 OA 
BRANCH  21  24
HETATM   24  C   UNL     1      -7.402  18.198  68.591  1.00  0.00    -0.286 C  
HETATM   25  H   UNL     1      -6.179  17.610  67.164  1.00  0.00     0.000 HD 
HETATM   26  C   UNL     1      -6.230  18.617  69.464  1.00  0.00    -0.263 C  
HETATM   27  O   UNL     1      -6.928  18.190  67.234  1.00  0.00    -0.189 OA 
HETATM   28  O   UNL     1      -6.119  19.704  70.021  1.00  0.00    -0.270 OA 
ENDBRANCH  21  24
ENDBRANCH   4  21
ENDBRANCH   3   4
TORSDOF 6
ENDMDL
MODEL       66
REMARK 921   NORMALIZED FREE ENERGY PREDICTED BY IDOCK:   -5.00 KCAL/MOL
REMARK 922        TOTAL FREE ENERGY PREDICTED BY IDOCK:   -7.96 KCAL/MOL
REMARK 923 INTER-LIGAND FREE ENERGY PREDICTED BY IDOCK:   -7.08 KCAL/MOL
REMARK 924 INTRA-LIGAND FREE ENERGY PREDICTED BY IDOCK:   -0.88 KCAL/MOL
REMARK 927      BINDING AFFINITY PREDICTED BY RF-SCORE:    0.00 PKD
ROOT
HETATM    1  O   UNL     1     -10.738  10.795  64.918  1.00  0.00    -0.250 OA 
HETATM    2  H   UNL     1     -10.429  10.065  64.394  1.00  0.00     0.000 HD 
HETATM    3  C   UNL     1      -9.828  11.883  64.970  1.00  0.00    -0.209 C  
ENDROOT
BRANCH   3   4
HETATM    4  C   UNL     1     -10.330  13.073  65.823  1.00  0.00    -0.286 C  
BRANCH   4   5
HETATM    5  O   UNL     1     -10.603  14.282  65.091  1.00  0.00    -0.354 OA 
BRANCH   5   6
HETATM    6  C   UNL     1      -9.911  15.438  65.559  1.00  0.00    -0.344 C  
HETATM    7  C   UNL     1      -8.713  16.337  67.437  1.00  0.00    -0.182 C  
HETATM    8  O   UNL     1      -9.469  15.229  66.911  1.00  0.00    -0.217 OA 
HETATM    9  H   UNL     1     -11.868  17.684  64.094  1.00  0.00     0.000 HD 
HETATM   10  C   UNL     1      -9.530  17.637  67.422  1.00  0.00    -0.256 C  
HETATM   11  O   UNL     1     -11.305  16.920  64.144  1.00  0.00    -1.208 OA 
HETATM   12  O   UNL     1     -10.690  17.592  68.268  1.00  0.00    -0.371 OA 
HETATM   13  C   UNL     1     -10.024  17.897  65.993  1.00  0.00    -0.210 C  
HETATM   14  H   UNL     1     -11.195  18.397  68.259  1.00  0.00     0.000 HD 
HETATM   15  H   UNL     1     -11.083  19.275  65.070  1.00  0.00     0.000 HD 
HETATM   16  O   UNL     1     -10.777  19.114  65.955  1.00  0.00    -0.454 OA 
HETATM   17  C   UNL     1     -10.834  16.687  65.479  1.00  0.00    -0.163 C  
BRANCH   7  18
HETATM   18  C   UNL     1      -8.255  15.970  68.850  1.00  0.00    -0.223 C  
HETATM   19  O   UNL     1      -9.374  15.567  69.635  1.00  0.00    -0.275 OA 
HETATM   20  H   UNL     1      -9.089  15.340  70.512  1.00  0.00     0.000 HD 
ENDBRANCH   7  18
ENDBRANCH   5   6
ENDBRANCH   4   5
BRANCH   4  21
HETATM   21  C   UNL     1     -11.585  12.671  66.655  1.00  0.00    -0.381 C  
HETATM   22  H   UNL     1     -13.544  13.055  66.652  1.00  0.00     0.000 HD 
HETATM   23  O   UNL     1     -12.778  13.300  66.145  1.00  0.00    -0.336 OA 
BRANCH  21  24
HETATM   24  C   UNL     1     -11.469  13.047  68.135  1.00  0.00    -0.319 C  
HETATM   25  H   UNL     1     -12.313  14.348  69.348  1.00  0.00     0.000 HD 
HETATM   26  C   UNL     1     -11.808  11.903  69.078  1.00  0.00    -0.308 C  
HETATM   27  O   UNL     1     -12.385  14.115  68.431  1.00  0.00    -0.237 OA 
HETATM   28  O   UNL     1     -12.358  10.858  68.748  1.00  0.00    -0.495 OA 
ENDBRANCH  21  24
ENDBRANCH   4  21
ENDBRANCH   3   4
TORSDOF 6
ENDMDL
MODEL       67
REMARK 921   NORMALIZED FREE ENERGY PREDICTED BY IDOCK:   -4.94 KCAL/MOL
REMARK 922        TOTAL FREE ENERGY PREDICTED BY IDOCK:   -7.88 KCAL/MOL
REMARK 923 INTER-LIGAND FREE ENERGY PREDICTED BY IDOCK:   -6.96 KCAL/MOL
REMARK 924 INTRA-LIGAND FREE ENERGY PREDICTED BY IDOCK:   -0.91 KCAL/MOL
REMARK 927      BINDING AFFINITY PREDICTED BY RF-SCORE:    0.00 PKD
ROOT
HETATM    1  O   UNL     1      -9.885  14.815  69.548  1.00  0.00    -0.400 OA 
HETATM    2  H   UNL     1      -9.886  15.095  70.456  1.00  0.00     0.000 HD 
HETATM    3  C   UNL     1     -10.673  15.634  68.698  1.00  0.00    -0.256 C  
ENDROOT
BRANCH   3   4
HETATM    4  C   UNL     1     -10.673  15.178  67.220  1.00  0.00    -0.305 C  
BRANCH   4   5
HETATM    5  O   UNL     1     -11.806  14.388  66.819  1.00  0.00    -0.396 OA 
BRANCH   5   6
HETATM    6  C   UNL     1     -11.718  13.002  67.140  1.00  0.00    -0.382 C  
HETATM    7  C   UNL     1     -11.845  11.434  68.956  1.00  0.00    -0.348 C  
HETATM    8  O   UNL     1     -11.869  12.818  68.558  1.00  0.00    -0.307 OA 
HETATM    9  H   UNL     1      -9.333  12.245  64.960  1.00  0.00     0.000 HD 
HETATM   10  C   UNL     1     -10.532  10.751  68.547  1.00  0.00    -0.187 C  
HETATM   11  O   UNL     1     -10.165  12.599  65.252  1.00  0.00    -0.286 OA 
HETATM   12  O   UNL     1      -9.375  11.305  69.194  1.00  0.00    -0.396 OA 
HETATM   13  C   UNL     1     -10.330  10.926  67.036  1.00  0.00    -0.231 C  
HETATM   14  H   UNL     1      -8.563  10.883  68.941  1.00  0.00     0.000 HD 
HETATM   15  H   UNL     1      -8.992  10.390  65.697  1.00  0.00     0.000 HD 
HETATM   16  O   UNL     1      -9.116  10.282  66.633  1.00  0.00    -0.142 OA 
HETATM   17  C   UNL     1     -10.356  12.423  66.663  1.00  0.00    -0.226 C  
BRANCH   7  18
HETATM   18  C   UNL     1     -12.072  11.371  70.468  1.00  0.00    -0.394 C  
HETATM   19  O   UNL     1     -11.503  10.174  70.994  1.00  0.00    -0.354 OA 
HETATM   20  H   UNL     1     -11.644  10.135  71.933  1.00  0.00     0.000 HD 
ENDBRANCH   7  18
ENDBRANCH   5   6
ENDBRANCH   4   5
BRANCH   4  21
HETATM   21  C   UNL     1     -10.521  16.399  66.262  1.00  0.00    -0.293 C  
HETATM   22  H   UNL     1     -10.083  16.725  64.343  1.00  0.00     0.000 HD 
HETATM   23  O   UNL     1     -10.175  15.981  64.926  1.00  0.00    -0.483 OA 
BRANCH  21  24
HETATM   24  C   UNL     1      -9.448  17.391  66.721  1.00  0.00    -0.273 C  
HETATM   25  H   UNL     1      -7.587  17.810  66.231  1.00  0.00     0.000 HD 
HETATM   26  C   UNL     1      -9.854  18.846  66.542  1.00  0.00    -0.368 C  
HETATM   27  O   UNL     1      -8.253  17.195  65.947  1.00  0.00    -0.526 OA 
HETATM   28  O   UNL     1     -10.813  19.234  65.883  1.00  0.00    -0.411 OA 
ENDBRANCH  21  24
ENDBRANCH   4  21
ENDBRANCH   3   4
TORSDOF 6
ENDMDL
MODEL       68
REMARK 921   NORMALIZED FREE ENERGY PREDICTED BY IDOCK:   -4.93 KCAL/MOL
REMARK 922        TOTAL FREE ENERGY PREDICTED BY IDOCK:   -7.87 KCAL/MOL
REMARK 923 INTER-LIGAND FREE ENERGY PREDICTED BY IDOCK:   -6.99 KCAL/MOL
REMARK 924 INTRA-LIGAND FREE ENERGY PREDICTED BY IDOCK:   -0.88 KCAL/MOL
REMARK 927      BINDING AFFINITY PREDICTED BY RF-SCORE:    0.00 PKD
ROOT
HETATM    1  O   UNL     1      -9.819   9.655  68.517  1.00  0.00    -0.151 OA 
HETATM    2  H   UNL     1      -9.591   9.089  67.789  1.00  0.00     0.000 HD 
HETATM    3  C   UNL     1     -10.950   9.213  69.252  1.00  0.00    -0.061 C  
ENDROOT
BRANCH   3   4
HETATM    4  C   UNL     1     -11.321  10.135  70.438  1.00  0.00    -0.326 C  
BRANCH   4   5
HETATM    5  O   UNL     1     -12.341  11.112  70.162  1.00  0.00    -0.304 OA 
BRANCH   5   6
HETATM    6  C   UNL     1     -11.970  12.462  70.430  1.00  0.00    -0.257 C  
HETATM    7  C   UNL     1     -12.417  14.332  71.869  1.00  0.00    -0.282 C  
HETATM    8  O   UNL     1     -12.771  12.985  71.503  1.00  0.00    -0.330 OA 
HETATM    9  H   UNL     1     -11.472  13.364  67.275  1.00  0.00     0.000 HD 
HETATM   10  C   UNL     1     -12.562  15.297  70.683  1.00  0.00    -0.417 C  
HETATM   11  O   UNL     1     -11.366  12.833  68.055  1.00  0.00    -0.254 OA 
HETATM   12  O   UNL     1     -13.912  15.422  70.212  1.00  0.00    -0.414 OA 
HETATM   13  C   UNL     1     -11.722  14.773  69.511  1.00  0.00    -0.321 C  
HETATM   14  H   UNL     1     -14.002  16.019  69.478  1.00  0.00     0.000 HD 
HETATM   15  H   UNL     1     -11.312  15.344  67.673  1.00  0.00     0.000 HD 
HETATM   16  O   UNL     1     -11.832  15.668  68.399  1.00  0.00    -0.346 OA 
HETATM   17  C   UNL     1     -12.144  13.332  69.153  1.00  0.00    -0.238 C  
BRANCH   7  18
HETATM   18  C   UNL     1     -13.295  14.750  73.052  1.00  0.00    -0.440 C  
HETATM   19  O   UNL     1     -13.330  16.171  73.152  1.00  0.00    -0.534 OA 
HETATM   20  H   UNL     1     -13.875  16.430  73.886  1.00  0.00     0.000 HD 
ENDBRANCH   7  18
ENDBRANCH   5   6
ENDBRANCH   4   5
BRANCH   4  21
HETATM   21  C   UNL     1     -11.724   9.296  71.688  1.00  0.00    -0.392 C  
HETATM   22  H   UNL     1     -10.812   8.245  73.119  1.00  0.00     0.000 HD 
HETATM   23  O   UNL     1     -10.566   8.757  72.356  1.00  0.00    -0.307 OA 
BRANCH  21  24
HETATM   24  C   UNL     1     -12.644   8.118  71.349  1.00  0.00    -0.283 C  
HETATM   25  H   UNL     1     -12.661   6.178  71.683  1.00  0.00     0.000 HD 
HETATM   26  C   UNL     1     -14.044   8.260  71.924  1.00  0.00    -0.424 C  
HETATM   27  O   UNL     1     -12.091   6.908  71.894  1.00  0.00    -0.311 OA 
HETATM   28  O   UNL     1     -14.377   9.079  72.775  1.00  0.00    -0.596 OA 
ENDBRANCH  21  24
ENDBRANCH   4  21
ENDBRANCH   3   4
TORSDOF 6
ENDMDL
MODEL       69
REMARK 921   NORMALIZED FREE ENERGY PREDICTED BY IDOCK:   -4.92 KCAL/MOL
REMARK 922        TOTAL FREE ENERGY PREDICTED BY IDOCK:   -7.85 KCAL/MOL
REMARK 923 INTER-LIGAND FREE ENERGY PREDICTED BY IDOCK:   -6.71 KCAL/MOL
REMARK 924 INTRA-LIGAND FREE ENERGY PREDICTED BY IDOCK:   -1.15 KCAL/MOL
REMARK 927      BINDING AFFINITY PREDICTED BY RF-SCORE:    0.00 PKD
ROOT
HETATM    1  O   UNL     1     -11.559  12.678  62.979  1.00  0.00    -0.765 OA 
HETATM    2  H   UNL     1     -11.723  12.299  62.123  1.00  0.00     0.000 HD 
HETATM    3  C   UNL     1     -12.368  12.133  64.010  1.00  0.00    -0.451 C  
ENDROOT
BRANCH   3   4
HETATM    4  C   UNL     1     -12.101  12.749  65.403  1.00  0.00    -0.462 C  
BRANCH   4   5
HETATM    5  O   UNL     1     -10.821  12.435  65.980  1.00  0.00    -0.260 OA 
BRANCH   5   6
HETATM    6  C   UNL     1     -10.572  11.045  66.174  1.00  0.00    -0.228 C  
HETATM    7  C   UNL     1     -10.263   9.361  67.859  1.00  0.00    -0.211 C  
HETATM    8  O   UNL     1     -10.461  10.760  67.579  1.00  0.00    -0.195 OA 
HETATM    9  H   UNL     1      -8.548  10.642  63.575  1.00  0.00     0.000 HD 
HETATM   10  C   UNL     1      -8.991   8.824  67.186  1.00  0.00    -0.131 C  
HETATM   11  O   UNL     1      -9.342  10.901  64.028  1.00  0.00    -0.217 OA 
HETATM   12  O   UNL     1      -7.787   9.437  67.671  1.00  0.00    -0.095 OA 
HETATM   13  C   UNL     1      -9.068   9.111  65.681  1.00  0.00    -0.219 C  
HETATM   14  H   UNL     1      -7.000   9.105  67.255  1.00  0.00     0.000 HD 
HETATM   15  H   UNL     1      -7.944   8.781  64.100  1.00  0.00     0.000 HD 
HETATM   16  O   UNL     1      -7.896   8.604  65.032  1.00  0.00    -0.104 OA 
HETATM   17  C   UNL     1      -9.272  10.621  65.433  1.00  0.00    -0.193 C  
BRANCH   7  18
HETATM   18  C   UNL     1     -10.220   9.183  69.379  1.00  0.00    -0.210 C  
HETATM   19  O   UNL     1      -9.420  10.206  69.966  1.00  0.00    -0.375 OA 
HETATM   20  H   UNL     1      -9.393  10.095  70.909  1.00  0.00     0.000 HD 
ENDBRANCH   7  18
ENDBRANCH   5   6
ENDBRANCH   4   5
BRANCH   4  21
HETATM   21  C   UNL     1     -12.296  14.295  65.373  1.00  0.00    -0.415 C  
HETATM   22  H   UNL     1     -13.051  15.665  64.133  1.00  0.00     0.000 HD 
HETATM   23  O   UNL     1     -12.932  14.723  64.152  1.00  0.00    -0.550 OA 
BRANCH  21  24
HETATM   24  C   UNL     1     -10.978  15.068  65.494  1.00  0.00    -0.358 C  
HETATM   25  H   UNL     1     -10.198  16.694  64.703  1.00  0.00     0.000 HD 
HETATM   26  C   UNL     1     -10.708  15.586  66.898  1.00  0.00    -0.317 C  
HETATM   27  O   UNL     1     -11.015  16.215  64.628  1.00  0.00    -0.642 OA 
HETATM   28  O   UNL     1     -11.532  15.624  67.806  1.00  0.00    -0.307 OA 
ENDBRANCH  21  24
ENDBRANCH   4  21
ENDBRANCH   3   4
TORSDOF 6
ENDMDL
MODEL       70
REMARK 921   NORMALIZED FREE ENERGY PREDICTED BY IDOCK:   -4.92 KCAL/MOL
REMARK 922        TOTAL FREE ENERGY PREDICTED BY IDOCK:   -7.84 KCAL/MOL
REMARK 923 INTER-LIGAND FREE ENERGY PREDICTED BY IDOCK:   -6.53 KCAL/MOL
REMARK 924 INTRA-LIGAND FREE ENERGY PREDICTED BY IDOCK:   -1.31 KCAL/MOL
REMARK 927      BINDING AFFINITY PREDICTED BY RF-SCORE:    0.00 PKD
ROOT
HETATM    1  O   UNL     1     -10.368   7.918  66.314  1.00  0.00    -0.461 OA 
HETATM    2  H   UNL     1     -10.656   7.025  66.466  1.00  0.00     0.000 HD 
HETATM    3  C   UNL     1     -10.672   8.805  67.379  1.00  0.00    -0.146 C  
ENDROOT
BRANCH   3   4
HETATM    4  C   UNL     1     -10.203  10.258  67.132  1.00  0.00    -0.225 C  
BRANCH   4   5
HETATM    5  O   UNL     1     -10.932  11.270  67.850  1.00  0.00    -0.213 OA 
BRANCH   5   6
HETATM    6  C   UNL     1     -11.531  12.275  67.034  1.00  0.00    -0.354 C  
HETATM    7  C   UNL     1     -12.384  12.710  64.831  1.00  0.00    -0.498 C  
HETATM    8  O   UNL     1     -11.732  11.768  65.703  1.00  0.00    -0.321 OA 
HETATM    9  H   UNL     1      -9.855  14.850  68.290  1.00  0.00     0.000 HD 
HETATM   10  C   UNL     1     -11.581  14.013  64.704  1.00  0.00    -0.392 C  
HETATM   11  O   UNL     1     -10.402  14.074  68.312  1.00  0.00    -0.234 OA 
HETATM   12  O   UNL     1     -10.293  13.831  64.097  1.00  0.00    -0.639 OA 
HETATM   13  C   UNL     1     -11.342  14.588  66.106  1.00  0.00    -0.348 C  
HETATM   14  H   UNL     1      -9.796  14.637  64.018  1.00  0.00     0.000 HD 
HETATM   15  H   UNL     1     -10.458  16.168  66.876  1.00  0.00     0.000 HD 
HETATM   16  O   UNL     1     -10.606  15.812  66.008  1.00  0.00    -0.310 OA 
HETATM   17  C   UNL     1     -10.634  13.545  66.998  1.00  0.00    -0.269 C  
BRANCH   7  18
HETATM   18  C   UNL     1     -12.592  12.035  63.473  1.00  0.00    -0.507 C  
HETATM   19  O   UNL     1     -11.410  11.335  63.094  1.00  0.00    -0.837 OA 
HETATM   20  H   UNL     1     -11.539  10.916  62.251  1.00  0.00     0.000 HD 
ENDBRANCH   7  18
ENDBRANCH   5   6
ENDBRANCH   4   5
BRANCH   4  21
HETATM   21  C   UNL     1      -8.679  10.407  67.420  1.00  0.00    -0.125 C  
HETATM   22  H   UNL     1      -7.508  11.382  68.710  1.00  0.00     0.000 HD 
HETATM   23  O   UNL     1      -8.438  11.291  68.534  1.00  0.00    -0.146 OA 
BRANCH  21  24
HETATM   24  C   UNL     1      -7.893  10.956  66.225  1.00  0.00    -0.158 C  
HETATM   25  H   UNL     1      -6.193  11.910  65.951  1.00  0.00     0.000 HD 
HETATM   26  C   UNL     1      -7.488   9.885  65.225  1.00  0.00    -0.131 C  
HETATM   27  O   UNL     1      -6.680  11.570  66.691  1.00  0.00    -0.133 OA 
HETATM   28  O   UNL     1      -7.540   8.676  65.427  1.00  0.00    -0.084 OA 
ENDBRANCH  21  24
ENDBRANCH   4  21
ENDBRANCH   3   4
TORSDOF 6
ENDMDL
MODEL       71
REMARK 921   NORMALIZED FREE ENERGY PREDICTED BY IDOCK:   -4.90 KCAL/MOL
REMARK 922        TOTAL FREE ENERGY PREDICTED BY IDOCK:   -7.82 KCAL/MOL
REMARK 923 INTER-LIGAND FREE ENERGY PREDICTED BY IDOCK:   -6.72 KCAL/MOL
REMARK 924 INTRA-LIGAND FREE ENERGY PREDICTED BY IDOCK:   -1.10 KCAL/MOL
REMARK 927      BINDING AFFINITY PREDICTED BY RF-SCORE:    0.00 PKD
ROOT
HETATM    1  O   UNL     1     -11.848  12.852  69.415  1.00  0.00    -0.303 OA 
HETATM    2  H   UNL     1     -12.084  13.143  70.289  1.00  0.00     0.000 HD 
HETATM    3  C   UNL     1     -12.030  13.842  68.415  1.00  0.00    -0.356 C  
ENDROOT
BRANCH   3   4
HETATM    4  C   UNL     1     -11.646  13.369  66.994  1.00  0.00    -0.356 C  
BRANCH   4   5
HETATM    5  O   UNL     1     -11.694  11.946  66.784  1.00  0.00    -0.548 OA 
BRANCH   5   6
HETATM    6  C   UNL     1     -10.423  11.306  66.703  1.00  0.00    -0.247 C  
HETATM    7  C   UNL     1      -8.824  10.390  65.162  1.00  0.00    -0.189 C  
HETATM    8  O   UNL     1     -10.120  10.993  65.332  1.00  0.00    -0.243 OA 
HETATM    9  H   UNL     1     -10.718   9.495  69.469  1.00  0.00     0.000 HD 
HETATM   10  C   UNL     1      -8.696   9.087  65.964  1.00  0.00    -0.160 C  
HETATM   11  O   UNL     1     -10.724  10.285  68.941  1.00  0.00    -0.203 OA 
HETATM   12  O   UNL     1      -9.602   8.060  65.531  1.00  0.00    -0.378 OA 
HETATM   13  C   UNL     1      -9.014   9.377  67.436  1.00  0.00    -0.124 C  
HETATM   14  H   UNL     1      -9.523   7.253  66.027  1.00  0.00     0.000 HD 
HETATM   15  H   UNL     1      -9.082   8.354  69.116  1.00  0.00     0.000 HD 
HETATM   16  O   UNL     1      -8.886   8.175  68.204  1.00  0.00    -0.132 OA 
HETATM   17  C   UNL     1     -10.414  10.013  67.566  1.00  0.00    -0.254 C  
BRANCH   7  18
HETATM   18  C   UNL     1      -8.599  10.161  63.665  1.00  0.00    -0.197 C  
HETATM   19  O   UNL     1      -9.805   9.708  63.057  1.00  0.00    -0.428 OA 
HETATM   20  H   UNL     1      -9.666   9.565  62.129  1.00  0.00     0.000 HD 
ENDBRANCH   7  18
ENDBRANCH   5   6
ENDBRANCH   4   5
BRANCH   4  21
HETATM   21  C   UNL     1     -12.514  14.086  65.916  1.00  0.00    -0.481 C  
HETATM   22  H   UNL     1     -14.093  13.663  64.771  1.00  0.00     0.000 HD 
HETATM   23  O   UNL     1     -13.564  13.226  65.428  1.00  0.00    -0.299 OA 
BRANCH  21  24
HETATM   24  C   UNL     1     -11.702  14.547  64.701  1.00  0.00    -0.431 C  
HETATM   25  H   UNL     1     -12.095  15.214  62.891  1.00  0.00     0.000 HD 
HETATM   26  C   UNL     1     -10.819  15.752  64.986  1.00  0.00    -0.443 C  
HETATM   27  O   UNL     1     -12.598  14.929  63.643  1.00  0.00    -0.724 OA 
HETATM   28  O   UNL     1     -10.898  16.463  65.982  1.00  0.00    -0.225 OA 
ENDBRANCH  21  24
ENDBRANCH   4  21
ENDBRANCH   3   4
TORSDOF 6
ENDMDL
MODEL       72
REMARK 921   NORMALIZED FREE ENERGY PREDICTED BY IDOCK:   -4.87 KCAL/MOL
REMARK 922        TOTAL FREE ENERGY PREDICTED BY IDOCK:   -7.79 KCAL/MOL
REMARK 923 INTER-LIGAND FREE ENERGY PREDICTED BY IDOCK:   -6.77 KCAL/MOL
REMARK 924 INTRA-LIGAND FREE ENERGY PREDICTED BY IDOCK:   -1.02 KCAL/MOL
REMARK 927      BINDING AFFINITY PREDICTED BY RF-SCORE:    0.00 PKD
ROOT
HETATM    1  O   UNL     1     -11.408  13.145  69.945  1.00  0.00    -0.491 OA 
HETATM    2  H   UNL     1     -11.764  13.691  70.636  1.00  0.00     0.000 HD 
HETATM    3  C   UNL     1     -11.826  13.527  68.644  1.00  0.00    -0.369 C  
ENDROOT
BRANCH   3   4
HETATM    4  C   UNL     1     -11.246  12.638  67.518  1.00  0.00    -0.288 C  
BRANCH   4   5
HETATM    5  O   UNL     1     -11.904  11.372  67.334  1.00  0.00    -0.609 OA 
BRANCH   5   6
HETATM    6  C   UNL     1     -11.255  10.261  67.949  1.00  0.00    -0.220 C  
HETATM    7  C   UNL     1     -10.897   9.166  70.057  1.00  0.00    -0.234 C  
HETATM    8  O   UNL     1     -11.479  10.290  69.370  1.00  0.00    -0.234 OA 
HETATM    9  H   UNL     1      -8.536  10.291  66.045  1.00  0.00     0.000 HD 
HETATM   10  C   UNL     1      -9.378   9.093  69.839  1.00  0.00    -0.186 C  
HETATM   11  O   UNL     1      -9.468  10.274  66.232  1.00  0.00    -0.165 OA 
HETATM   12  O   UNL     1      -8.670  10.220  70.379  1.00  0.00    -0.303 OA 
HETATM   13  C   UNL     1      -9.095   9.063  68.332  1.00  0.00    -0.133 C  
HETATM   14  H   UNL     1      -7.731  10.175  70.244  1.00  0.00     0.000 HD 
HETATM   15  H   UNL     1      -7.507   8.962  67.174  1.00  0.00     0.000 HD 
HETATM   16  O   UNL     1      -7.683   8.981  68.107  1.00  0.00    -0.094 OA 
HETATM   17  C   UNL     1      -9.730  10.290  67.643  1.00  0.00    -0.164 C  
BRANCH   7  18
HETATM   18  C   UNL     1     -11.253   9.281  71.542  1.00  0.00    -0.386 C  
HETATM   19  O   UNL     1     -12.036  10.451  71.764  1.00  0.00    -0.268 OA 
HETATM   20  H   UNL     1     -12.257  10.522  72.685  1.00  0.00     0.000 HD 
ENDBRANCH   7  18
ENDBRANCH   5   6
ENDBRANCH   4   5
BRANCH   4  21
HETATM   21  C   UNL     1     -11.209  13.410  66.164  1.00  0.00    -0.295 C  
HETATM   22  H   UNL     1     -11.404  15.293  65.531  1.00  0.00     0.000 HD 
HETATM   23  O   UNL     1     -11.426  14.822  66.357  1.00  0.00    -0.350 OA 
BRANCH  21  24
HETATM   24  C   UNL     1     -12.263  12.919  65.166  1.00  0.00    -0.470 C  
HETATM   25  H   UNL     1     -13.709  13.729  64.102  1.00  0.00     0.000 HD 
HETATM   26  C   UNL     1     -11.666  12.280  63.923  1.00  0.00    -0.451 C  
HETATM   27  O   UNL     1     -13.056  14.033  64.721  1.00  0.00    -0.632 OA 
HETATM   28  O   UNL     1     -10.487  12.348  63.592  1.00  0.00    -0.425 OA 
ENDBRANCH  21  24
ENDBRANCH   4  21
ENDBRANCH   3   4
TORSDOF 6
ENDMDL
MODEL       73
REMARK 921   NORMALIZED FREE ENERGY PREDICTED BY IDOCK:   -4.87 KCAL/MOL
REMARK 922        TOTAL FREE ENERGY PREDICTED BY IDOCK:   -7.78 KCAL/MOL
REMARK 923 INTER-LIGAND FREE ENERGY PREDICTED BY IDOCK:   -7.23 KCAL/MOL
REMARK 924 INTRA-LIGAND FREE ENERGY PREDICTED BY IDOCK:   -0.55 KCAL/MOL
REMARK 927      BINDING AFFINITY PREDICTED BY RF-SCORE:    0.00 PKD
ROOT
HETATM    1  O   UNL     1      -8.578  11.602  62.661  1.00  0.00    -0.640 OA 
HETATM    2  H   UNL     1      -8.441  11.362  61.752  1.00  0.00     0.000 HD 
HETATM    3  C   UNL     1      -9.576  10.830  63.310  1.00  0.00    -0.350 C  
ENDROOT
BRANCH   3   4
HETATM    4  C   UNL     1      -9.800  11.220  64.790  1.00  0.00    -0.266 C  
BRANCH   4   5
HETATM    5  O   UNL     1     -11.165  11.157  65.244  1.00  0.00    -0.081 OA 
BRANCH   5   6
HETATM    6  C   UNL     1     -11.677  12.372  65.785  1.00  0.00    -0.414 C  
HETATM    7  C   UNL     1     -11.527  14.764  65.626  1.00  0.00    -0.327 C  
HETATM    8  O   UNL     1     -11.023  13.495  65.168  1.00  0.00    -0.299 OA 
HETATM    9  H   UNL     1     -11.972  11.312  68.917  1.00  0.00     0.000 HD 
HETATM   10  C   UNL     1     -11.365  14.923  67.145  1.00  0.00    -0.343 C  
HETATM   11  O   UNL     1     -12.099  11.292  67.975  1.00  0.00    -0.638 OA 
HETATM   12  O   UNL     1      -9.994  14.932  67.574  1.00  0.00    -0.219 OA 
HETATM   13  C   UNL     1     -12.048  13.740  67.844  1.00  0.00    -0.287 C  
HETATM   14  H   UNL     1      -9.894  15.030  68.514  1.00  0.00     0.000 HD 
HETATM   15  H   UNL     1     -12.343  13.145  69.696  1.00  0.00     0.000 HD 
HETATM   16  O   UNL     1     -11.920  13.877  69.263  1.00  0.00    -0.321 OA 
HETATM   17  C   UNL     1     -11.469  12.406  67.326  1.00  0.00    -0.354 C  
BRANCH   7  18
HETATM   18  C   UNL     1     -10.798  15.870  64.858  1.00  0.00    -0.400 C  
HETATM   19  O   UNL     1     -11.550  16.237  63.705  1.00  0.00    -1.539 OA 
HETATM   20  H   UNL     1     -11.097  16.923  63.229  1.00  0.00     0.000 HD 
ENDBRANCH   7  18
ENDBRANCH   5   6
ENDBRANCH   4   5
BRANCH   4  21
HETATM   21  C   UNL     1      -8.896  10.369  65.732  1.00  0.00    -0.170 C  
HETATM   22  H   UNL     1      -9.101   9.293  67.401  1.00  0.00     0.000 HD 
HETATM   23  O   UNL     1      -9.652   9.812  66.826  1.00  0.00    -0.162 OA 
BRANCH  21  24
HETATM   24  C   UNL     1      -7.740  11.171  66.340  1.00  0.00    -0.124 C  
HETATM   25  H   UNL     1      -7.077  11.573  68.149  1.00  0.00     0.000 HD 
HETATM   26  C   UNL     1      -6.369  10.670  65.916  1.00  0.00    -0.128 C  
HETATM   27  O   UNL     1      -7.793  11.076  67.773  1.00  0.00    -0.106 OA 
HETATM   28  O   UNL     1      -6.152   9.600  65.356  1.00  0.00    -0.063 OA 
ENDBRANCH  21  24
ENDBRANCH   4  21
ENDBRANCH   3   4
TORSDOF 6
ENDMDL
MODEL       74
REMARK 921   NORMALIZED FREE ENERGY PREDICTED BY IDOCK:   -4.87 KCAL/MOL
REMARK 922        TOTAL FREE ENERGY PREDICTED BY IDOCK:   -7.78 KCAL/MOL
REMARK 923 INTER-LIGAND FREE ENERGY PREDICTED BY IDOCK:   -7.12 KCAL/MOL
REMARK 924 INTRA-LIGAND FREE ENERGY PREDICTED BY IDOCK:   -0.65 KCAL/MOL
REMARK 927      BINDING AFFINITY PREDICTED BY RF-SCORE:    0.00 PKD
ROOT
HETATM    1  O   UNL     1      -6.294  16.996  69.537  1.00  0.00    -0.226 OA 
HETATM    2  H   UNL     1      -5.918  16.359  70.133  1.00  0.00     0.000 HD 
HETATM    3  C   UNL     1      -7.555  16.612  69.012  1.00  0.00    -0.226 C  
ENDROOT
BRANCH   3   4
HETATM    4  C   UNL     1      -8.168  17.650  68.041  1.00  0.00    -0.242 C  
BRANCH   4   5
HETATM    5  O   UNL     1      -9.560  17.946  68.256  1.00  0.00    -0.286 OA 
BRANCH   5   6
HETATM    6  C   UNL     1     -10.470  17.106  67.551  1.00  0.00    -0.348 C  
HETATM    7  C   UNL     1     -11.101  14.814  67.204  1.00  0.00    -0.333 C  
HETATM    8  O   UNL     1     -10.185  15.726  67.840  1.00  0.00    -0.235 OA 
HETATM    9  H   UNL     1     -10.580  18.900  64.761  1.00  0.00     0.000 HD 
HETATM   10  C   UNL     1     -11.085  14.970  65.677  1.00  0.00    -0.349 C  
HETATM   11  O   UNL     1     -10.640  18.740  65.696  1.00  0.00    -0.596 OA 
HETATM   12  O   UNL     1      -9.820  14.642  65.083  1.00  0.00    -0.480 OA 
HETATM   13  C   UNL     1     -11.383  16.433  65.324  1.00  0.00     0.158 C  
HETATM   14  H   UNL     1      -9.810  14.739  64.138  1.00  0.00     0.000 HD 
HETATM   15  H   UNL     1     -11.573  17.502  63.683  1.00  0.00     0.000 HD 
HETATM   16  O   UNL     1     -11.388  16.596  63.901  1.00  0.00    -1.104 OA 
HETATM   17  C   UNL     1     -10.372  17.368  66.021  1.00  0.00    -0.304 C  
BRANCH   7  18
HETATM   18  C   UNL     1     -10.730  13.392  67.634  1.00  0.00    -0.247 C  
HETATM   19  O   UNL     1     -10.658  12.543  66.492  1.00  0.00    -0.238 OA 
HETATM   20  H   UNL     1     -10.427  11.661  66.758  1.00  0.00     0.000 HD 
ENDBRANCH   7  18
ENDBRANCH   5   6
ENDBRANCH   4   5
BRANCH   4  21
HETATM   21  C   UNL     1      -7.344  18.973  68.050  1.00  0.00    -0.254 C  
HETATM   22  H   UNL     1      -6.837  20.389  69.362  1.00  0.00     0.000 HD 
HETATM   23  O   UNL     1      -7.339  19.582  69.357  1.00  0.00    -0.332 OA 
BRANCH  21  24
HETATM   24  C   UNL     1      -7.877  20.017  67.063  1.00  0.00    -0.310 C  
HETATM   25  H   UNL     1      -7.648  21.950  66.768  1.00  0.00     0.000 HD 
HETATM   26  C   UNL     1      -7.512  19.723  65.616  1.00  0.00    -0.251 C  
HETATM   27  O   UNL     1      -7.318  21.303  67.379  1.00  0.00    -0.484 OA 
HETATM   28  O   UNL     1      -6.680  18.898  65.254  1.00  0.00    -0.436 OA 
ENDBRANCH  21  24
ENDBRANCH   4  21
ENDBRANCH   3   4
TORSDOF 6
ENDMDL
MODEL       75
REMARK 921   NORMALIZED FREE ENERGY PREDICTED BY IDOCK:   -4.83 KCAL/MOL
REMARK 922        TOTAL FREE ENERGY PREDICTED BY IDOCK:   -7.73 KCAL/MOL
REMARK 923 INTER-LIGAND FREE ENERGY PREDICTED BY IDOCK:   -6.65 KCAL/MOL
REMARK 924 INTRA-LIGAND FREE ENERGY PREDICTED BY IDOCK:   -1.08 KCAL/MOL
REMARK 927      BINDING AFFINITY PREDICTED BY RF-SCORE:    0.00 PKD
ROOT
HETATM    1  O   UNL     1     -11.006  12.966  69.814  1.00  0.00    -0.459 OA 
HETATM    2  H   UNL     1     -11.279  13.079  70.718  1.00  0.00     0.000 HD 
HETATM    3  C   UNL     1     -12.025  13.254  68.870  1.00  0.00    -0.297 C  
ENDROOT
BRANCH   3   4
HETATM    4  C   UNL     1     -11.581  13.071  67.400  1.00  0.00    -0.356 C  
BRANCH   4   5
HETATM    5  O   UNL     1     -11.886  11.790  66.820  1.00  0.00    -0.586 OA 
BRANCH   5   6
HETATM    6  C   UNL     1     -11.026  10.726  67.222  1.00  0.00    -0.297 C  
HETATM    7  C   UNL     1     -10.508   9.256  69.050  1.00  0.00    -0.216 C  
HETATM    8  O   UNL     1     -11.303  10.364  68.586  1.00  0.00    -0.256 OA 
HETATM    9  H   UNL     1      -8.317  11.786  65.624  1.00  0.00     0.000 HD 
HETATM   10  C   UNL     1      -9.006   9.560  68.958  1.00  0.00    -0.144 C  
HETATM   11  O   UNL     1      -9.227  11.528  65.719  1.00  0.00    -0.223 OA 
HETATM   12  O   UNL     1      -8.590  10.646  69.800  1.00  0.00    -0.385 OA 
HETATM   13  C   UNL     1      -8.667   9.954  67.514  1.00  0.00    -0.121 C  
HETATM   14  H   UNL     1      -7.661  10.834  69.743  1.00  0.00     0.000 HD 
HETATM   15  H   UNL     1      -7.056  10.471  66.510  1.00  0.00     0.000 HD 
HETATM   16  O   UNL     1      -7.266  10.228  67.403  1.00  0.00    -0.090 OA 
HETATM   17  C   UNL     1      -9.538  11.148  67.067  1.00  0.00    -0.181 C  
BRANCH   7  18
HETATM   18  C   UNL     1     -10.935   8.933  70.485  1.00  0.00    -0.241 C  
HETATM   19  O   UNL     1     -11.318  10.129  71.158  1.00  0.00    -0.346 OA 
HETATM   20  H   UNL     1     -11.583   9.929  72.048  1.00  0.00     0.000 HD 
ENDBRANCH   7  18
ENDBRANCH   5   6
ENDBRANCH   4   5
BRANCH   4  21
HETATM   21  C   UNL     1     -12.160  14.204  66.499  1.00  0.00    -0.454 C  
HETATM   22  H   UNL     1     -13.500  14.384  65.031  1.00  0.00     0.000 HD 
HETATM   23  O   UNL     1     -13.147  13.693  65.580  1.00  0.00    -0.639 OA 
BRANCH  21  24
HETATM   24  C   UNL     1     -11.088  14.915  65.667  1.00  0.00    -0.348 C  
HETATM   25  H   UNL     1     -11.034  15.949  63.992  1.00  0.00     0.000 HD 
HETATM   26  C   UNL     1     -10.387  16.036  66.417  1.00  0.00    -0.305 C  
HETATM   27  O   UNL     1     -11.698  15.508  64.508  1.00  0.00    -0.382 OA 
HETATM   28  O   UNL     1     -10.767  16.520  67.478  1.00  0.00    -0.321 OA 
ENDBRANCH  21  24
ENDBRANCH   4  21
ENDBRANCH   3   4
TORSDOF 6
ENDMDL
MODEL       76
REMARK 921   NORMALIZED FREE ENERGY PREDICTED BY IDOCK:   -4.82 KCAL/MOL
REMARK 922        TOTAL FREE ENERGY PREDICTED BY IDOCK:   -7.71 KCAL/MOL
REMARK 923 INTER-LIGAND FREE ENERGY PREDICTED BY IDOCK:   -7.29 KCAL/MOL
REMARK 924 INTRA-LIGAND FREE ENERGY PREDICTED BY IDOCK:   -0.43 KCAL/MOL
REMARK 927      BINDING AFFINITY PREDICTED BY RF-SCORE:    0.00 PKD
ROOT
HETATM    1  O   UNL     1     -10.564  13.213  68.997  1.00  0.00    -0.392 OA 
HETATM    2  H   UNL     1     -11.041  13.624  69.708  1.00  0.00     0.000 HD 
HETATM    3  C   UNL     1     -10.924  11.858  68.776  1.00  0.00    -0.235 C  
ENDROOT
BRANCH   3   4
HETATM    4  C   UNL     1     -10.147  11.188  67.618  1.00  0.00    -0.179 C  
BRANCH   4   5
HETATM    5  O   UNL     1      -9.228  12.045  66.917  1.00  0.00    -0.185 OA 
BRANCH   5   6
HETATM    6  C   UNL     1      -9.727  12.599  65.702  1.00  0.00    -0.139 C  
HETATM    7  C   UNL     1     -10.671  14.586  64.737  1.00  0.00    -0.393 C  
HETATM    8  O   UNL     1     -10.198  13.938  65.933  1.00  0.00    -0.297 OA 
HETATM    9  H   UNL     1     -11.143   9.823  64.559  1.00  0.00     0.000 HD 
HETATM   10  C   UNL     1     -11.823  13.805  64.088  1.00  0.00    -0.401 C  
HETATM   11  O   UNL     1     -10.443  10.365  64.904  1.00  0.00    -0.263 OA 
HETATM   12  O   UNL     1     -12.996  13.729  64.912  1.00  0.00    -0.712 OA 
HETATM   13  C   UNL     1     -11.362  12.366  63.826  1.00  0.00    -0.464 C  
HETATM   14  H   UNL     1     -13.709  13.246  64.511  1.00  0.00     0.000 HD 
HETATM   15  H   UNL     1     -12.133  10.733  63.044  1.00  0.00     0.000 HD 
HETATM   16  O   UNL     1     -12.419  11.624  63.207  1.00  0.00    -0.471 OA 
HETATM   17  C   UNL     1     -10.874  11.713  65.137  1.00  0.00    -0.288 C  
BRANCH   7  18
HETATM   18  C   UNL     1     -11.086  16.013  65.102  1.00  0.00    -0.283 C  
HETATM   19  O   UNL     1     -11.571  16.689  63.945  1.00  0.00    -1.582 OA 
HETATM   20  H   UNL     1     -11.829  17.574  64.171  1.00  0.00     0.000 HD 
ENDBRANCH   7  18
ENDBRANCH   5   6
ENDBRANCH   4   5
BRANCH   4  21
HETATM   21  C   UNL     1      -9.400   9.913  68.114  1.00  0.00    -0.131 C  
HETATM   22  H   UNL     1      -7.751   8.892  67.644  1.00  0.00     0.000 HD 
HETATM   23  O   UNL     1      -8.206   9.670  67.342  1.00  0.00    -0.113 OA 
BRANCH  21  24
HETATM   24  C   UNL     1     -10.258   8.647  68.036  1.00  0.00    -0.210 C  
HETATM   25  H   UNL     1     -10.366   7.064  66.870  1.00  0.00     0.000 HD 
HETATM   26  C   UNL     1     -10.150   7.767  69.271  1.00  0.00    -0.199 C  
HETATM   27  O   UNL     1      -9.833   7.848  66.918  1.00  0.00    -0.195 OA 
HETATM   28  O   UNL     1      -9.300   7.884  70.147  1.00  0.00    -0.156 OA 
ENDBRANCH  21  24
ENDBRANCH   4  21
ENDBRANCH   3   4
TORSDOF 6
ENDMDL
MODEL       77
REMARK 921   NORMALIZED FREE ENERGY PREDICTED BY IDOCK:   -4.81 KCAL/MOL
REMARK 922        TOTAL FREE ENERGY PREDICTED BY IDOCK:   -7.70 KCAL/MOL
REMARK 923 INTER-LIGAND FREE ENERGY PREDICTED BY IDOCK:   -6.76 KCAL/MOL
REMARK 924 INTRA-LIGAND FREE ENERGY PREDICTED BY IDOCK:   -0.95 KCAL/MOL
REMARK 927      BINDING AFFINITY PREDICTED BY RF-SCORE:    0.00 PKD
ROOT
HETATM    1  O   UNL     1      -9.909  10.184  63.266  1.00  0.00    -0.473 OA 
HETATM    2  H   UNL     1      -9.623   9.824  62.434  1.00  0.00     0.000 HD 
HETATM    3  C   UNL     1     -10.199  11.572  63.218  1.00  0.00    -0.391 C  
ENDROOT
BRANCH   3   4
HETATM    4  C   UNL     1     -10.665  12.158  64.572  1.00  0.00    -0.310 C  
BRANCH   4   5
HETATM    5  O   UNL     1      -9.913  11.726  65.720  1.00  0.00    -0.224 OA 
BRANCH   5   6
HETATM    6  C   UNL     1     -10.682  11.096  66.742  1.00  0.00    -0.276 C  
HETATM    7  C   UNL     1     -11.765  11.481  68.851  1.00  0.00    -0.339 C  
HETATM    8  O   UNL     1     -10.944  12.030  67.803  1.00  0.00    -0.211 OA 
HETATM    9  H   UNL     1      -9.180   8.139  66.595  1.00  0.00     0.000 HD 
HETATM   10  C   UNL     1     -11.116  10.243  69.488  1.00  0.00    -0.262 C  
HETATM   11  O   UNL     1      -9.639   8.900  66.259  1.00  0.00    -0.219 OA 
HETATM   12  O   UNL     1      -9.873  10.527  70.149  1.00  0.00    -0.381 OA 
HETATM   13  C   UNL     1     -10.816   9.218  68.386  1.00  0.00    -0.076 C  
HETATM   14  H   UNL     1      -9.471   9.761  70.543  1.00  0.00     0.000 HD 
HETATM   15  H   UNL     1     -10.038   7.414  68.280  1.00  0.00     0.000 HD 
HETATM   16  O   UNL     1     -10.223   8.049  68.962  1.00  0.00    -0.201 OA 
HETATM   17  C   UNL     1      -9.929   9.851  67.293  1.00  0.00    -0.196 C  
BRANCH   7  18
HETATM   18  C   UNL     1     -12.018  12.583  69.883  1.00  0.00    -0.301 C  
HETATM   19  O   UNL     1     -11.927  13.861  69.260  1.00  0.00    -0.321 OA 
HETATM   20  H   UNL     1     -12.084  14.545  69.900  1.00  0.00     0.000 HD 
ENDBRANCH   7  18
ENDBRANCH   5   6
ENDBRANCH   4   5
BRANCH   4  21
HETATM   21  C   UNL     1     -10.696  13.715  64.523  1.00  0.00    -0.407 C  
HETATM   22  H   UNL     1      -9.845  15.241  65.487  1.00  0.00     0.000 HD 
HETATM   23  O   UNL     1      -9.825  14.291  65.517  1.00  0.00    -0.315 OA 
BRANCH  21  24
HETATM   24  C   UNL     1     -12.096  14.295  64.753  1.00  0.00    -0.446 C  
HETATM   25  H   UNL     1     -13.260  14.643  66.302  1.00  0.00     0.000 HD 
HETATM   26  C   UNL     1     -12.238  15.734  64.284  1.00  0.00     0.093 C  
HETATM   27  O   UNL     1     -12.393  14.284  66.159  1.00  0.00    -0.437 OA 
HETATM   28  O   UNL     1     -11.306  16.472  63.981  1.00  0.00    -1.064 OA 
ENDBRANCH  21  24
ENDBRANCH   4  21
ENDBRANCH   3   4
TORSDOF 6
ENDMDL
MODEL       78
REMARK 921   NORMALIZED FREE ENERGY PREDICTED BY IDOCK:   -4.80 KCAL/MOL
REMARK 922        TOTAL FREE ENERGY PREDICTED BY IDOCK:   -7.69 KCAL/MOL
REMARK 923 INTER-LIGAND FREE ENERGY PREDICTED BY IDOCK:   -6.84 KCAL/MOL
REMARK 924 INTRA-LIGAND FREE ENERGY PREDICTED BY IDOCK:   -0.85 KCAL/MOL
REMARK 927      BINDING AFFINITY PREDICTED BY RF-SCORE:    0.00 PKD
ROOT
HETATM    1  O   UNL     1     -13.254  12.175  71.707  1.00  0.00    -0.448 OA 
HETATM    2  H   UNL     1     -13.354  13.072  72.002  1.00  0.00     0.000 HD 
HETATM    3  C   UNL     1     -12.263  12.011  70.704  1.00  0.00    -0.316 C  
ENDROOT
BRANCH   3   4
HETATM    4  C   UNL     1     -12.099  10.550  70.223  1.00  0.00    -0.318 C  
BRANCH   4   5
HETATM    5  O   UNL     1     -11.243  10.371  69.080  1.00  0.00    -0.229 OA 
BRANCH   5   6
HETATM    6  C   UNL     1     -10.913  11.569  68.381  1.00  0.00    -0.221 C  
HETATM    7  C   UNL     1     -11.428  12.860  66.423  1.00  0.00    -0.341 C  
HETATM    8  O   UNL     1     -11.669  11.647  67.161  1.00  0.00    -0.566 OA 
HETATM    9  H   UNL     1      -7.669  11.549  69.084  1.00  0.00     0.000 HD 
HETATM   10  C   UNL     1      -9.946  13.010  66.048  1.00  0.00    -0.276 C  
HETATM   11  O   UNL     1      -8.600  11.523  69.271  1.00  0.00     0.156 OA 
HETATM   12  O   UNL     1      -9.475  11.981  65.165  1.00  0.00    -0.419 OA 
HETATM   13  C   UNL     1      -9.101  12.930  67.326  1.00  0.00    -0.208 C  
HETATM   14  H   UNL     1      -8.558  12.074  64.933  1.00  0.00     0.000 HD 
HETATM   15  H   UNL     1      -7.192  13.033  67.791  1.00  0.00     0.000 HD 
HETATM   16  O   UNL     1      -7.715  13.082  66.999  1.00  0.00    -0.082 OA 
HETATM   17  C   UNL     1      -9.388  11.611  68.075  1.00  0.00    -0.178 C  
BRANCH   7  18
HETATM   18  C   UNL     1     -12.329  12.849  65.185  1.00  0.00    -0.493 C  
HETATM   19  O   UNL     1     -13.259  13.927  65.252  1.00  0.00    -0.774 OA 
HETATM   20  H   UNL     1     -13.817  13.920  64.484  1.00  0.00     0.000 HD 
ENDBRANCH   7  18
ENDBRANCH   5   6
ENDBRANCH   4   5
BRANCH   4  21
HETATM   21  C   UNL     1     -11.616   9.633  71.387  1.00  0.00    -0.400 C  
HETATM   22  H   UNL     1      -9.904   8.820  72.014  1.00  0.00     0.000 HD 
HETATM   23  O   UNL     1     -10.199   9.380  71.305  1.00  0.00    -0.315 OA 
BRANCH  21  24
HETATM   24  C   UNL     1     -12.320   8.272  71.410  1.00  0.00    -0.299 C  
HETATM   25  H   UNL     1     -11.996   6.510  72.225  1.00  0.00     0.000 HD 
HETATM   26  C   UNL     1     -13.717   8.325  72.008  1.00  0.00    -0.337 C  
HETATM   27  O   UNL     1     -11.559   7.353  72.211  1.00  0.00    -0.276 OA 
HETATM   28  O   UNL     1     -14.178   9.269  72.641  1.00  0.00    -0.498 OA 
ENDBRANCH  21  24
ENDBRANCH   4  21
ENDBRANCH   3   4
TORSDOF 6
ENDMDL
MODEL       79
REMARK 921   NORMALIZED FREE ENERGY PREDICTED BY IDOCK:   -4.80 KCAL/MOL
REMARK 922        TOTAL FREE ENERGY PREDICTED BY IDOCK:   -7.69 KCAL/MOL
REMARK 923 INTER-LIGAND FREE ENERGY PREDICTED BY IDOCK:   -6.78 KCAL/MOL
REMARK 924 INTRA-LIGAND FREE ENERGY PREDICTED BY IDOCK:   -0.91 KCAL/MOL
REMARK 927      BINDING AFFINITY PREDICTED BY RF-SCORE:    0.00 PKD
ROOT
HETATM    1  O   UNL     1      -7.961  19.004  65.553  1.00  0.00    -0.370 OA 
HETATM    2  H   UNL     1      -7.567  19.862  65.450  1.00  0.00     0.000 HD 
HETATM    3  C   UNL     1      -8.100  18.598  66.905  1.00  0.00    -0.248 C  
ENDROOT
BRANCH   3   4
HETATM    4  C   UNL     1      -8.743  17.201  67.074  1.00  0.00    -0.225 C  
BRANCH   4   5
HETATM    5  O   UNL     1      -8.995  16.488  65.849  1.00  0.00    -0.461 OA 
BRANCH   5   6
HETATM    6  C   UNL     1     -10.061  15.544  65.911  1.00  0.00    -0.349 C  
HETATM    7  C   UNL     1     -10.558  13.224  66.289  1.00  0.00    -0.289 C  
HETATM    8  O   UNL     1      -9.534  14.229  66.159  1.00  0.00    -0.281 OA 
HETATM    9  H   UNL     1     -11.899  16.869  63.486  1.00  0.00     0.000 HD 
HETATM   10  C   UNL     1     -11.425  13.134  65.024  1.00  0.00    -0.308 C  
HETATM   11  O   UNL     1     -11.404  16.860  64.297  1.00  0.00    -1.202 OA 
HETATM   12  O   UNL     1     -10.694  12.719  63.860  1.00  0.00    -0.406 OA 
HETATM   13  C   UNL     1     -12.007  14.521  64.721  1.00  0.00    -0.442 C  
HETATM   14  H   UNL     1     -11.231  12.663  63.077  1.00  0.00     0.000 HD 
HETATM   15  H   UNL     1     -13.191  15.314  63.365  1.00  0.00     0.000 HD 
HETATM   16  O   UNL     1     -12.831  14.455  63.552  1.00  0.00    -0.587 OA 
HETATM   17  C   UNL     1     -10.871  15.559  64.584  1.00  0.00    -0.254 C  
BRANCH   7  18
HETATM   18  C   UNL     1      -9.878  11.890  66.607  1.00  0.00    -0.201 C  
HETATM   19  O   UNL     1      -8.786  11.678  65.716  1.00  0.00    -0.367 OA 
HETATM   20  H   UNL     1      -8.364  10.850  65.913  1.00  0.00     0.000 HD 
ENDBRANCH   7  18
ENDBRANCH   5   6
ENDBRANCH   4   5
BRANCH   4  21
HETATM   21  C   UNL     1      -7.895  16.311  68.032  1.00  0.00    -0.149 C  
HETATM   22  H   UNL     1      -7.124  16.435  69.869  1.00  0.00     0.000 HD 
HETATM   23  O   UNL     1      -7.642  16.978  69.285  1.00  0.00    -0.194 OA 
BRANCH  21  24
HETATM   24  C   UNL     1      -6.536  15.920  67.442  1.00  0.00    -0.175 C  
HETATM   25  H   UNL     1      -4.653  16.408  67.747  1.00  0.00     0.000 HD 
HETATM   26  C   UNL     1      -6.210  14.444  67.600  1.00  0.00    -0.079 C  
HETATM   27  O   UNL     1      -5.495  16.650  68.113  1.00  0.00    -0.110 OA 
HETATM   28  O   UNL     1      -6.815  13.663  68.328  1.00  0.00    -0.085 OA 
ENDBRANCH  21  24
ENDBRANCH   4  21
ENDBRANCH   3   4
TORSDOF 6
ENDMDL
MODEL       80
REMARK 921   NORMALIZED FREE ENERGY PREDICTED BY IDOCK:   -4.79 KCAL/MOL
REMARK 922        TOTAL FREE ENERGY PREDICTED BY IDOCK:   -7.67 KCAL/MOL
REMARK 923 INTER-LIGAND FREE ENERGY PREDICTED BY IDOCK:   -6.86 KCAL/MOL
REMARK 924 INTRA-LIGAND FREE ENERGY PREDICTED BY IDOCK:   -0.81 KCAL/MOL
REMARK 927      BINDING AFFINITY PREDICTED BY RF-SCORE:    0.00 PKD
ROOT
HETATM    1  O   UNL     1     -12.154   9.502  70.281  1.00  0.00    -0.462 OA 
HETATM    2  H   UNL     1     -12.389   9.747  71.168  1.00  0.00     0.000 HD 
HETATM    3  C   UNL     1     -11.366  10.474  69.611  1.00  0.00    -0.281 C  
ENDROOT
BRANCH   3   4
HETATM    4  C   UNL     1     -10.984  10.077  68.165  1.00  0.00    -0.235 C  
BRANCH   4   5
HETATM    5  O   UNL     1     -10.191  11.042  67.451  1.00  0.00    -0.185 OA 
BRANCH   5   6
HETATM    6  C   UNL     1     -10.922  12.140  66.909  1.00  0.00    -0.270 C  
HETATM    7  C   UNL     1     -11.990  12.944  64.913  1.00  0.00    -0.392 C  
HETATM    8  O   UNL     1     -11.204  11.900  65.519  1.00  0.00    -0.317 OA 
HETATM    9  H   UNL     1      -9.315  14.532  68.555  1.00  0.00     0.000 HD 
HETATM   10  C   UNL     1     -11.287  14.306  65.005  1.00  0.00    -0.365 C  
HETATM   11  O   UNL     1      -9.807  13.726  68.452  1.00  0.00    -0.224 OA 
HETATM   12  O   UNL     1     -10.047  14.358  64.283  1.00  0.00    -0.532 OA 
HETATM   13  C   UNL     1     -10.965  14.601  66.476  1.00  0.00    -0.318 C  
HETATM   14  H   UNL     1      -9.612  15.201  64.340  1.00  0.00     0.000 HD 
HETATM   15  H   UNL     1     -10.123  16.058  67.495  1.00  0.00     0.000 HD 
HETATM   16  O   UNL     1     -10.322  15.875  66.585  1.00  0.00    -0.287 OA 
HETATM   17  C   UNL     1     -10.117  13.459  67.077  1.00  0.00    -0.247 C  
BRANCH   7  18
HETATM   18  C   UNL     1     -12.270  12.546  63.462  1.00  0.00    -0.558 C  
HETATM   19  O   UNL     1     -12.333  13.710  62.643  1.00  0.00    -0.775 OA 
HETATM   20  H   UNL     1     -12.507  13.463  61.742  1.00  0.00     0.000 HD 
ENDBRANCH   7  18
ENDBRANCH   5   6
ENDBRANCH   4   5
BRANCH   4  21
HETATM   21  C   UNL     1     -10.269   8.692  68.140  1.00  0.00    -0.205 C  
HETATM   22  H   UNL     1      -8.402   7.992  68.214  1.00  0.00     0.000 HD 
HETATM   23  O   UNL     1      -8.837   8.836  68.230  1.00  0.00    -0.140 OA 
BRANCH  21  24
HETATM   24  C   UNL     1     -10.566   7.887  66.870  1.00  0.00    -0.263 C  
HETATM   25  H   UNL     1      -9.546   7.250  65.312  1.00  0.00     0.000 HD 
HETATM   26  C   UNL     1     -11.073   6.481  67.151  1.00  0.00    -0.360 C  
HETATM   27  O   UNL     1      -9.362   7.748  66.098  1.00  0.00    -0.169 OA 
HETATM   28  O   UNL     1     -11.029   5.921  68.242  1.00  0.00    -0.274 OA 
ENDBRANCH  21  24
ENDBRANCH   4  21
ENDBRANCH   3   4
TORSDOF 6
ENDMDL
MODEL       81
REMARK 921   NORMALIZED FREE ENERGY PREDICTED BY IDOCK:   -4.79 KCAL/MOL
REMARK 922        TOTAL FREE ENERGY PREDICTED BY IDOCK:   -7.67 KCAL/MOL
REMARK 923 INTER-LIGAND FREE ENERGY PREDICTED BY IDOCK:   -6.67 KCAL/MOL
REMARK 924 INTRA-LIGAND FREE ENERGY PREDICTED BY IDOCK:   -1.00 KCAL/MOL
REMARK 927      BINDING AFFINITY PREDICTED BY RF-SCORE:    0.00 PKD
ROOT
HETATM    1  O   UNL     1      -7.558  10.939  65.579  1.00  0.00    -0.337 OA 
HETATM    2  H   UNL     1      -6.619  11.003  65.447  1.00  0.00     0.000 HD 
HETATM    3  C   UNL     1      -8.183   9.956  64.770  1.00  0.00    -0.151 C  
ENDROOT
BRANCH   3   4
HETATM    4  C   UNL     1      -9.711   9.852  64.985  1.00  0.00    -0.288 C  
BRANCH   4   5
HETATM    5  O   UNL     1     -10.149   9.958  66.351  1.00  0.00    -0.228 OA 
BRANCH   5   6
HETATM    6  C   UNL     1      -9.728   8.896  67.203  1.00  0.00    -0.184 C  
HETATM    7  C   UNL     1      -9.738   6.506  67.449  1.00  0.00    -0.126 C  
HETATM    8  O   UNL     1     -10.172   7.636  66.669  1.00  0.00    -0.258 OA 
HETATM    9  H   UNL     1     -10.218  10.480  70.078  1.00  0.00     0.000 HD 
HETATM   10  C   UNL     1     -10.245   6.589  68.896  1.00  0.00    -0.181 C  
HETATM   11  O   UNL     1      -9.876  10.355  69.201  1.00  0.00    -0.203 OA 
HETATM   12  O   UNL     1     -11.676   6.539  69.003  1.00  0.00    -0.595 OA 
HETATM   13  C   UNL     1      -9.793   7.923  69.505  1.00  0.00    -0.176 C  
HETATM   14  H   UNL     1     -11.990   6.590  69.899  1.00  0.00     0.000 HD 
HETATM   15  H   UNL     1      -9.964   8.839  71.238  1.00  0.00     0.000 HD 
HETATM   16  O   UNL     1     -10.244   8.013  70.861  1.00  0.00    -0.191 OA 
HETATM   17  C   UNL     1     -10.289   9.101  68.639  1.00  0.00    -0.209 C  
BRANCH   7  18
HETATM   18  C   UNL     1     -10.221   5.233  66.750  1.00  0.00    -0.249 C  
HETATM   19  O   UNL     1     -11.409   5.506  66.011  1.00  0.00    -0.753 OA 
HETATM   20  H   UNL     1     -11.708   4.716  65.577  1.00  0.00     0.000 HD 
ENDBRANCH   7  18
ENDBRANCH   5   6
ENDBRANCH   4   5
BRANCH   4  21
HETATM   21  C   UNL     1     -10.468  10.898  64.111  1.00  0.00    -0.327 C  
HETATM   22  H   UNL     1     -10.055  12.136  62.601  1.00  0.00     0.000 HD 
HETATM   23  O   UNL     1      -9.594  11.498  63.133  1.00  0.00    -0.355 OA 
BRANCH  21  24
HETATM   24  C   UNL     1     -11.081  12.036  64.933  1.00  0.00    -0.316 C  
HETATM   25  H   UNL     1     -10.610  13.897  65.369  1.00  0.00     0.000 HD 
HETATM   26  C   UNL     1     -12.453  12.467  64.439  1.00  0.00    -0.446 C  
HETATM   27  O   UNL     1     -10.230  13.192  64.859  1.00  0.00    -0.316 OA 
HETATM   28  O   UNL     1     -12.947  12.147  63.363  1.00  0.00    -0.776 OA 
ENDBRANCH  21  24
ENDBRANCH   4  21
ENDBRANCH   3   4
TORSDOF 6
ENDMDL
MODEL       82
REMARK 921   NORMALIZED FREE ENERGY PREDICTED BY IDOCK:   -4.77 KCAL/MOL
REMARK 922        TOTAL FREE ENERGY PREDICTED BY IDOCK:   -7.64 KCAL/MOL
REMARK 923 INTER-LIGAND FREE ENERGY PREDICTED BY IDOCK:   -6.13 KCAL/MOL
REMARK 924 INTRA-LIGAND FREE ENERGY PREDICTED BY IDOCK:   -1.51 KCAL/MOL
REMARK 927      BINDING AFFINITY PREDICTED BY RF-SCORE:    0.00 PKD
ROOT
HETATM    1  O   UNL     1      -8.116  11.450  65.790  1.00  0.00    -0.369 OA 
HETATM    2  H   UNL     1      -7.198  11.355  65.562  1.00  0.00     0.000 HD 
HETATM    3  C   UNL     1      -8.932  10.384  65.331  1.00  0.00    -0.183 C  
ENDROOT
BRANCH   3   4
HETATM    4  C   UNL     1     -10.426  10.539  65.702  1.00  0.00    -0.143 C  
BRANCH   4   5
HETATM    5  O   UNL     1     -10.718  10.490  67.110  1.00  0.00    -0.256 OA 
BRANCH   5   6
HETATM    6  C   UNL     1      -9.949   9.547  67.853  1.00  0.00    -0.172 C  
HETATM    7  C   UNL     1     -10.066   7.429  68.980  1.00  0.00    -0.193 C  
HETATM    8  O   UNL     1     -10.785   8.453  68.268  1.00  0.00    -0.148 OA 
HETATM    9  H   UNL     1      -8.077  11.758  69.473  1.00  0.00     0.000 HD 
HETATM   10  C   UNL     1      -9.389   7.986  70.241  1.00  0.00    -0.159 C  
HETATM   11  O   UNL     1      -8.471  11.339  68.717  1.00  0.00    -0.155 OA 
HETATM   12  O   UNL     1     -10.320   8.481  71.216  1.00  0.00    -0.199 OA 
HETATM   13  C   UNL     1      -8.487   9.161  69.843  1.00  0.00    -0.147 C  
HETATM   14  H   UNL     1      -9.902   8.826  71.997  1.00  0.00     0.000 HD 
HETATM   15  H   UNL     1      -7.276  10.413  70.758  1.00  0.00     0.000 HD 
HETATM   16  O   UNL     1      -7.835   9.686  71.005  1.00  0.00    -0.310 OA 
HETATM   17  C   UNL     1      -9.305  10.233  69.091  1.00  0.00    -0.204 C  
BRANCH   7  18
HETATM   18  C   UNL     1     -11.047   6.302  69.312  1.00  0.00    -0.393 C  
HETATM   19  O   UNL     1     -12.177   6.830  70.001  1.00  0.00    -0.641 OA 
HETATM   20  H   UNL     1     -12.786   6.131  70.207  1.00  0.00     0.000 HD 
ENDBRANCH   7  18
ENDBRANCH   5   6
ENDBRANCH   4   5
BRANCH   4  21
HETATM   21  C   UNL     1     -11.018  11.845  65.090  1.00  0.00    -0.312 C  
HETATM   22  H   UNL     1     -10.563  13.132  63.635  1.00  0.00     0.000 HD 
HETATM   23  O   UNL     1     -10.202  12.336  64.007  1.00  0.00    -0.345 OA 
BRANCH  21  24
HETATM   24  C   UNL     1     -11.149  12.979  66.112  1.00  0.00    -0.287 C  
HETATM   25  H   UNL     1     -10.121  14.585  66.603  1.00  0.00     0.000 HD 
HETATM   26  C   UNL     1     -12.414  13.806  65.936  1.00  0.00    -0.468 C  
HETATM   27  O   UNL     1     -10.039  13.882  65.970  1.00  0.00    -0.295 OA 
HETATM   28  O   UNL     1     -13.149  13.769  64.955  1.00  0.00    -0.751 OA 
ENDBRANCH  21  24
ENDBRANCH   4  21
ENDBRANCH   3   4
TORSDOF 6
ENDMDL
MODEL       83
REMARK 921   NORMALIZED FREE ENERGY PREDICTED BY IDOCK:   -4.76 KCAL/MOL
REMARK 922        TOTAL FREE ENERGY PREDICTED BY IDOCK:   -7.63 KCAL/MOL
REMARK 923 INTER-LIGAND FREE ENERGY PREDICTED BY IDOCK:   -6.52 KCAL/MOL
REMARK 924 INTRA-LIGAND FREE ENERGY PREDICTED BY IDOCK:   -1.11 KCAL/MOL
REMARK 927      BINDING AFFINITY PREDICTED BY RF-SCORE:    0.00 PKD
ROOT
HETATM    1  O   UNL     1     -13.199   8.160  72.464  1.00  0.00    -0.551 OA 
HETATM    2  H   UNL     1     -13.758   7.750  73.115  1.00  0.00     0.000 HD 
HETATM    3  C   UNL     1     -13.635   9.451  72.068  1.00  0.00    -0.433 C  
ENDROOT
BRANCH   3   4
HETATM    4  C   UNL     1     -12.725  10.117  71.010  1.00  0.00    -0.386 C  
BRANCH   4   5
HETATM    5  O   UNL     1     -12.121  11.360  71.412  1.00  0.00    -0.135 OA 
BRANCH   5   6
HETATM    6  C   UNL     1     -12.702  12.527  70.834  1.00  0.00    -0.182 C  
HETATM    7  C   UNL     1     -12.269  14.351  69.332  1.00  0.00    -0.266 C  
HETATM    8  O   UNL     1     -11.738  13.188  69.996  1.00  0.00    -0.289 OA 
HETATM    9  H   UNL     1     -14.460  13.448  73.495  1.00  0.00     0.000 HD 
HETATM   10  C   UNL     1     -12.785  15.390  70.338  1.00  0.00    -0.362 C  
HETATM   11  O   UNL     1     -14.155  12.860  72.813  1.00  0.00    -0.483 OA 
HETATM   12  O   UNL     1     -11.755  15.928  71.182  1.00  0.00    -0.376 OA 
HETATM   13  C   UNL     1     -13.818  14.723  71.256  1.00  0.00    -0.390 C  
HETATM   14  H   UNL     1     -12.074  16.571  71.804  1.00  0.00     0.000 HD 
HETATM   15  H   UNL     1     -14.962  15.268  72.761  1.00  0.00     0.000 HD 
HETATM   16  O   UNL     1     -14.322  15.681  72.193  1.00  0.00    -0.514 OA 
HETATM   17  C   UNL     1     -13.199  13.490  71.949  1.00  0.00    -0.422 C  
BRANCH   7  18
HETATM   18  C   UNL     1     -11.172  14.926  68.433  1.00  0.00    -0.292 C  
HETATM   19  O   UNL     1     -11.362  16.330  68.273  1.00  0.00    -0.352 OA 
HETATM   20  H   UNL     1     -10.681  16.687  67.715  1.00  0.00     0.000 HD 
ENDBRANCH   7  18
ENDBRANCH   5   6
ENDBRANCH   4   5
BRANCH   4  21
HETATM   21  C   UNL     1     -11.618   9.131  70.527  1.00  0.00    -0.197 C  
HETATM   22  H   UNL     1      -9.889   8.404  71.208  1.00  0.00     0.000 HD 
HETATM   23  O   UNL     1     -10.564   9.005  71.502  1.00  0.00    -0.291 OA 
BRANCH  21  24
HETATM   24  C   UNL     1     -10.969   9.558  69.207  1.00  0.00    -0.145 C  
HETATM   25  H   UNL     1      -9.311  10.468  68.659  1.00  0.00     0.000 HD 
HETATM   26  C   UNL     1     -10.672   8.393  68.275  1.00  0.00    -0.028 C  
HETATM   27  O   UNL     1      -9.713  10.204  69.478  1.00  0.00    -0.216 OA 
HETATM   28  O   UNL     1     -10.699   7.209  68.597  1.00  0.00    -0.210 OA 
ENDBRANCH  21  24
ENDBRANCH   4  21
ENDBRANCH   3   4
TORSDOF 6
ENDMDL
MODEL       84
REMARK 921   NORMALIZED FREE ENERGY PREDICTED BY IDOCK:   -4.74 KCAL/MOL
REMARK 922        TOTAL FREE ENERGY PREDICTED BY IDOCK:   -7.61 KCAL/MOL
REMARK 923 INTER-LIGAND FREE ENERGY PREDICTED BY IDOCK:   -6.67 KCAL/MOL
REMARK 924 INTRA-LIGAND FREE ENERGY PREDICTED BY IDOCK:   -0.94 KCAL/MOL
REMARK 927      BINDING AFFINITY PREDICTED BY RF-SCORE:    0.00 PKD
ROOT
HETATM    1  O   UNL     1      -7.279  11.824  69.612  1.00  0.00    -0.343 OA 
HETATM    2  H   UNL     1      -6.400  11.672  69.941  1.00  0.00     0.000 HD 
HETATM    3  C   UNL     1      -7.482  11.352  68.289  1.00  0.00    -0.101 C  
ENDROOT
BRANCH   3   4
HETATM    4  C   UNL     1      -8.912  11.600  67.753  1.00  0.00    -0.170 C  
BRANCH   4   5
HETATM    5  O   UNL     1      -9.093  11.355  66.347  1.00  0.00    -0.182 OA 
BRANCH   5   6
HETATM    6  C   UNL     1      -9.633  12.449  65.609  1.00  0.00    -0.109 C  
HETATM    7  C   UNL     1     -10.365  14.728  65.805  1.00  0.00    -0.340 C  
HETATM    8  O   UNL     1      -9.868  13.562  66.489  1.00  0.00    -0.276 OA 
HETATM    9  H   UNL     1     -11.569  10.650  63.601  1.00  0.00     0.000 HD 
HETATM   10  C   UNL     1     -11.687  14.437  65.078  1.00  0.00    -0.389 C  
HETATM   11  O   UNL     1     -10.761  10.908  64.029  1.00  0.00    -0.353 OA 
HETATM   12  O   UNL     1     -12.760  14.086  65.964  1.00  0.00    -0.475 OA 
HETATM   13  C   UNL     1     -11.479  13.251  64.128  1.00  0.00    -0.396 C  
HETATM   14  H   UNL     1     -13.578  13.906  65.515  1.00  0.00     0.000 HD 
HETATM   15  H   UNL     1     -12.570  12.238  62.840  1.00  0.00     0.000 HD 
HETATM   16  O   UNL     1     -12.698  12.973  63.429  1.00  0.00    -0.694 OA 
HETATM   17  C   UNL     1     -10.955  12.026  64.908  1.00  0.00    -0.306 C  
BRANCH   7  18
HETATM   18  C   UNL     1     -10.518  15.852  66.833  1.00  0.00    -0.309 C  
HETATM   19  O   UNL     1     -10.300  17.114  66.208  1.00  0.00    -0.327 OA 
HETATM   20  H   UNL     1     -10.395  17.812  66.845  1.00  0.00     0.000 HD 
ENDBRANCH   7  18
ENDBRANCH   5   6
ENDBRANCH   4   5
BRANCH   4  21
HETATM   21  C   UNL     1      -9.960  10.781  68.566  1.00  0.00    -0.178 C  
HETATM   22  H   UNL     1     -11.156   9.210  68.272  1.00  0.00     0.000 HD 
HETATM   23  O   UNL     1     -10.517   9.709  67.777  1.00  0.00    -0.223 OA 
BRANCH  21  24
HETATM   24  C   UNL     1     -11.131  11.633  69.066  1.00  0.00    -0.241 C  
HETATM   25  H   UNL     1     -12.867  12.233  68.356  1.00  0.00     0.000 HD 
HETATM   26  C   UNL     1     -11.800  11.069  70.310  1.00  0.00    -0.367 C  
HETATM   27  O   UNL     1     -12.141  11.704  68.046  1.00  0.00    -0.597 OA 
HETATM   28  O   UNL     1     -11.625   9.939  70.754  1.00  0.00    -0.295 OA 
ENDBRANCH  21  24
ENDBRANCH   4  21
ENDBRANCH   3   4
TORSDOF 6
ENDMDL
MODEL       85
REMARK 921   NORMALIZED FREE ENERGY PREDICTED BY IDOCK:   -4.74 KCAL/MOL
REMARK 922        TOTAL FREE ENERGY PREDICTED BY IDOCK:   -7.60 KCAL/MOL
REMARK 923 INTER-LIGAND FREE ENERGY PREDICTED BY IDOCK:   -6.65 KCAL/MOL
REMARK 924 INTRA-LIGAND FREE ENERGY PREDICTED BY IDOCK:   -0.95 KCAL/MOL
REMARK 927      BINDING AFFINITY PREDICTED BY RF-SCORE:    0.00 PKD
ROOT
HETATM    1  O   UNL     1     -12.092  10.832  68.331  1.00  0.00    -0.805 OA 
HETATM    2  H   UNL     1     -12.661  10.083  68.466  1.00  0.00     0.000 HD 
HETATM    3  C   UNL     1     -10.986  10.563  67.484  1.00  0.00    -0.303 C  
ENDROOT
BRANCH   3   4
HETATM    4  C   UNL     1     -10.060  11.782  67.264  1.00  0.00    -0.192 C  
BRANCH   4   5
HETATM    5  O   UNL     1     -10.141  12.807  68.271  1.00  0.00    -0.229 OA 
BRANCH   5   6
HETATM    6  C   UNL     1     -10.717  14.036  67.835  1.00  0.00    -0.240 C  
HETATM    7  C   UNL     1     -11.522  15.204  65.897  1.00  0.00    -0.159 C  
HETATM    8  O   UNL     1     -10.894  14.013  66.408  1.00  0.00    -0.295 OA 
HETATM    9  H   UNL     1      -9.050  16.010  69.918  1.00  0.00     0.000 HD 
HETATM   10  C   UNL     1     -10.708  16.462  66.232  1.00  0.00    -0.161 C  
HETATM   11  O   UNL     1      -9.603  15.280  69.666  1.00  0.00    -0.242 OA 
HETATM   12  O   UNL     1      -9.409  16.480  65.621  1.00  0.00    -0.490 OA 
HETATM   13  C   UNL     1     -10.494  16.524  67.750  1.00  0.00    -0.308 C  
HETATM   14  H   UNL     1      -8.905  17.259  65.829  1.00  0.00     0.000 HD 
HETATM   15  H   UNL     1      -9.615  17.738  69.025  1.00  0.00     0.000 HD 
HETATM   16  O   UNL     1      -9.748  17.699  68.086  1.00  0.00    -0.284 OA 
HETATM   17  C   UNL     1      -9.812  15.231  68.247  1.00  0.00    -0.218 C  
BRANCH   7  18
HETATM   18  C   UNL     1     -11.706  15.033  64.386  1.00  0.00    -0.312 C  
HETATM   19  O   UNL     1     -11.638  16.302  63.742  1.00  0.00    -1.539 OA 
HETATM   20  H   UNL     1     -11.752  16.196  62.805  1.00  0.00     0.000 HD 
ENDBRANCH   7  18
ENDBRANCH   5   6
ENDBRANCH   4   5
BRANCH   4  21
HETATM   21  C   UNL     1      -8.577  11.331  67.097  1.00  0.00    -0.147 C  
HETATM   22  H   UNL     1      -7.508   9.661  67.321  1.00  0.00     0.000 HD 
HETATM   23  O   UNL     1      -8.412   9.936  67.423  1.00  0.00    -0.118 OA 
BRANCH  21  24
HETATM   24  C   UNL     1      -7.606  12.123  67.978  1.00  0.00    -0.123 C  
HETATM   25  H   UNL     1      -6.771  11.893  69.747  1.00  0.00     0.000 HD 
HETATM   26  C   UNL     1      -6.247  12.344  67.332  1.00  0.00    -0.158 C  
HETATM   27  O   UNL     1      -7.373  11.402  69.201  1.00  0.00    -0.116 OA 
HETATM   28  O   UNL     1      -5.840  11.763  66.331  1.00  0.00    -0.212 OA 
ENDBRANCH  21  24
ENDBRANCH   4  21
ENDBRANCH   3   4
TORSDOF 6
ENDMDL
MODEL       86
REMARK 921   NORMALIZED FREE ENERGY PREDICTED BY IDOCK:   -4.73 KCAL/MOL
REMARK 922        TOTAL FREE ENERGY PREDICTED BY IDOCK:   -7.59 KCAL/MOL
REMARK 923 INTER-LIGAND FREE ENERGY PREDICTED BY IDOCK:   -6.55 KCAL/MOL
REMARK 924 INTRA-LIGAND FREE ENERGY PREDICTED BY IDOCK:   -1.05 KCAL/MOL
REMARK 927      BINDING AFFINITY PREDICTED BY RF-SCORE:    0.00 PKD
ROOT
HETATM    1  O   UNL     1     -12.227  12.373  65.475  1.00  0.00    -0.568 OA 
HETATM    2  H   UNL     1     -11.888  12.303  64.590  1.00  0.00     0.000 HD 
HETATM    3  C   UNL     1     -11.220  12.546  66.459  1.00  0.00    -0.307 C  
ENDROOT
BRANCH   3   4
HETATM    4  C   UNL     1     -11.771  12.660  67.900  1.00  0.00    -0.358 C  
BRANCH   4   5
HETATM    5  O   UNL     1     -10.976  12.020  68.915  1.00  0.00    -0.221 OA 
BRANCH   5   6
HETATM    6  C   UNL     1     -11.400  10.708  69.275  1.00  0.00    -0.282 C  
HETATM    7  C   UNL     1     -12.643   9.469  70.915  1.00  0.00    -0.177 C  
HETATM    8  O   UNL     1     -12.133  10.754  70.512  1.00  0.00    -0.303 OA 
HETATM    9  H   UNL     1      -8.660   9.122  68.278  1.00  0.00     0.000 HD 
HETATM   10  C   UNL     1     -11.515   8.443  71.094  1.00  0.00    -0.274 C  
HETATM   11  O   UNL     1      -9.410   9.700  68.197  1.00  0.00    -0.133 OA 
HETATM   12  O   UNL     1     -10.596   8.783  72.145  1.00  0.00    -0.340 OA 
HETATM   13  C   UNL     1     -10.704   8.364  69.794  1.00  0.00    -0.211 C  
HETATM   14  H   UNL     1      -9.898   8.149  72.256  1.00  0.00     0.000 HD 
HETATM   15  H   UNL     1      -9.152   7.352  69.132  1.00  0.00     0.000 HD 
HETATM   16  O   UNL     1      -9.653   7.401  69.937  1.00  0.00    -0.164 OA 
HETATM   17  C   UNL     1     -10.173   9.762  69.410  1.00  0.00    -0.210 C  
BRANCH   7  18
HETATM   18  C   UNL     1     -13.447   9.660  72.204  1.00  0.00    -0.429 C  
HETATM   19  O   UNL     1     -13.284   8.526  73.050  1.00  0.00    -0.732 OA 
HETATM   20  H   UNL     1     -13.782   8.644  73.850  1.00  0.00     0.000 HD 
ENDBRANCH   7  18
ENDBRANCH   5   6
ENDBRANCH   4   5
BRANCH   4  21
HETATM   21  C   UNL     1     -12.011  14.150  68.287  1.00  0.00    -0.332 C  
HETATM   22  H   UNL     1     -11.933  15.937  67.401  1.00  0.00     0.000 HD 
HETATM   23  O   UNL     1     -11.786  15.028  67.165  1.00  0.00    -0.288 OA 
BRANCH  21  24
HETATM   24  C   UNL     1     -11.107  14.628  69.427  1.00  0.00    -0.268 C  
HETATM   25  H   UNL     1      -9.568  15.842  69.617  1.00  0.00     0.000 HD 
HETATM   26  C   UNL     1     -11.858  15.360  70.528  1.00  0.00    -0.339 C  
HETATM   27  O   UNL     1     -10.129  15.546  68.910  1.00  0.00    -0.197 OA 
HETATM   28  O   UNL     1     -13.012  15.767  70.443  1.00  0.00    -0.409 OA 
ENDBRANCH  21  24
ENDBRANCH   4  21
ENDBRANCH   3   4
TORSDOF 6
ENDMDL
MODEL       87
REMARK 921   NORMALIZED FREE ENERGY PREDICTED BY IDOCK:   -4.72 KCAL/MOL
REMARK 922        TOTAL FREE ENERGY PREDICTED BY IDOCK:   -7.58 KCAL/MOL
REMARK 923 INTER-LIGAND FREE ENERGY PREDICTED BY IDOCK:   -7.19 KCAL/MOL
REMARK 924 INTRA-LIGAND FREE ENERGY PREDICTED BY IDOCK:   -0.39 KCAL/MOL
REMARK 927      BINDING AFFINITY PREDICTED BY RF-SCORE:    0.00 PKD
ROOT
HETATM    1  O   UNL     1     -11.543  16.645  64.021  1.00  0.00    -1.490 OA 
HETATM    2  H   UNL     1     -11.186  16.663  63.141  1.00  0.00     0.000 HD 
HETATM    3  C   UNL     1     -10.564  16.452  65.030  1.00  0.00    -0.193 C  
ENDROOT
BRANCH   3   4
HETATM    4  C   UNL     1     -11.144  16.423  66.464  1.00  0.00     0.171 C  
BRANCH   4   5
HETATM    5  O   UNL     1     -11.181  15.126  67.086  1.00  0.00    -0.335 OA 
BRANCH   5   6
HETATM    6  C   UNL     1     -10.442  14.112  66.410  1.00  0.00    -0.283 C  
HETATM    7  C   UNL     1     -10.603  12.422  64.711  1.00  0.00    -0.300 C  
HETATM    8  O   UNL     1     -11.294  13.429  65.474  1.00  0.00    -0.292 OA 
HETATM    9  H   UNL     1      -8.637  13.136  69.020  1.00  0.00     0.000 HD 
HETATM   10  C   UNL     1      -9.978  11.353  65.619  1.00  0.00    -0.240 C  
HETATM   11  O   UNL     1      -9.000  13.752  68.393  1.00  0.00    -0.184 OA 
HETATM   12  O   UNL     1     -10.948  10.601  66.365  1.00  0.00    -0.128 OA 
HETATM   13  C   UNL     1      -9.061  12.041  66.638  1.00  0.00    -0.205 C  
HETATM   14  H   UNL     1     -10.562   9.939  66.927  1.00  0.00     0.000 HD 
HETATM   15  H   UNL     1      -7.888  11.485  68.117  1.00  0.00     0.000 HD 
HETATM   16  O   UNL     1      -8.457  11.058  67.487  1.00  0.00    -0.125 OA 
HETATM   17  C   UNL     1      -9.848  13.104  67.435  1.00  0.00    -0.226 C  
BRANCH   7  18
HETATM   18  C   UNL     1     -11.596  11.814  63.717  1.00  0.00    -0.413 C  
HETATM   19  O   UNL     1     -12.734  12.662  63.588  1.00  0.00    -0.711 OA 
HETATM   20  H   UNL     1     -13.350  12.285  62.972  1.00  0.00     0.000 HD 
ENDBRANCH   7  18
ENDBRANCH   5   6
ENDBRANCH   4   5
BRANCH   4  21
HETATM   21  C   UNL     1     -10.391  17.426  67.389  1.00  0.00    -0.343 C  
HETATM   22  H   UNL     1     -10.311  17.868  69.333  1.00  0.00     0.000 HD 
HETATM   23  O   UNL     1     -10.770  17.256  68.769  1.00  0.00    -0.325 OA 
BRANCH  21  24
HETATM   24  C   UNL     1     -10.651  18.891  67.022  1.00  0.00    -0.438 C  
HETATM   25  H   UNL     1     -10.876  20.588  67.995  1.00  0.00     0.000 HD 
HETATM   26  C   UNL     1      -9.561  19.499  66.154  1.00  0.00    -0.362 C  
HETATM   27  O   UNL     1     -10.715  19.680  68.222  1.00  0.00    -0.310 OA 
HETATM   28  O   UNL     1      -8.460  18.997  65.950  1.00  0.00    -0.464 OA 
ENDBRANCH  21  24
ENDBRANCH   4  21
ENDBRANCH   3   4
TORSDOF 6
ENDMDL
MODEL       88
REMARK 921   NORMALIZED FREE ENERGY PREDICTED BY IDOCK:   -4.72 KCAL/MOL
REMARK 922        TOTAL FREE ENERGY PREDICTED BY IDOCK:   -7.58 KCAL/MOL
REMARK 923 INTER-LIGAND FREE ENERGY PREDICTED BY IDOCK:   -6.43 KCAL/MOL
REMARK 924 INTRA-LIGAND FREE ENERGY PREDICTED BY IDOCK:   -1.15 KCAL/MOL
REMARK 927      BINDING AFFINITY PREDICTED BY RF-SCORE:    0.00 PKD
ROOT
HETATM    1  O   UNL     1      -8.731   7.829  67.056  1.00  0.00    -0.125 OA 
HETATM    2  H   UNL     1      -8.450   7.215  66.387  1.00  0.00     0.000 HD 
HETATM    3  C   UNL     1      -9.787   8.682  66.641  1.00  0.00    -0.266 C  
ENDROOT
BRANCH   3   4
HETATM    4  C   UNL     1     -10.245   9.681  67.730  1.00  0.00    -0.205 C  
BRANCH   4   5
HETATM    5  O   UNL     1      -9.946   9.294  69.084  1.00  0.00    -0.169 OA 
BRANCH   5   6
HETATM    6  C   UNL     1     -10.948   8.503  69.719  1.00  0.00    -0.127 C  
HETATM    7  C   UNL     1     -12.758   8.591  71.296  1.00  0.00    -0.201 C  
HETATM    8  O   UNL     1     -11.689   9.309  70.651  1.00  0.00    -0.268 OA 
HETATM    9  H   UNL     1      -9.139   5.734  69.999  1.00  0.00     0.000 HD 
HETATM   10  C   UNL     1     -12.234   7.371  72.068  1.00  0.00    -0.280 C  
HETATM   11  O   UNL     1      -9.537   6.472  69.553  1.00  0.00    -0.146 OA 
HETATM   12  O   UNL     1     -11.360   7.716  73.154  1.00  0.00    -0.573 OA 
HETATM   13  C   UNL     1     -11.432   6.482  71.108  1.00  0.00    -0.326 C  
HETATM   14  H   UNL     1     -11.035   6.961  73.632  1.00  0.00     0.000 HD 
HETATM   15  H   UNL     1     -10.451   4.780  71.212  1.00  0.00     0.000 HD 
HETATM   16  O   UNL     1     -10.947   5.331  71.807  1.00  0.00    -0.183 OA 
HETATM   17  C   UNL     1     -10.296   7.295  70.450  1.00  0.00    -0.208 C  
BRANCH   7  18
HETATM   18  C   UNL     1     -13.501   9.566  72.212  1.00  0.00    -0.440 C  
HETATM   19  O   UNL     1     -14.038   8.868  73.332  1.00  0.00    -1.256 OA 
HETATM   20  H   UNL     1     -14.499   9.473  73.900  1.00  0.00     0.000 HD 
ENDBRANCH   7  18
ENDBRANCH   5   6
ENDBRANCH   4   5
BRANCH   4  21
HETATM   21  C   UNL     1      -9.673  11.104  67.454  1.00  0.00    -0.173 C  
HETATM   22  H   UNL     1      -7.904  12.025  67.529  1.00  0.00     0.000 HD 
HETATM   23  O   UNL     1      -8.253  11.157  67.697  1.00  0.00    -0.115 OA 
BRANCH  21  24
HETATM   24  C   UNL     1     -10.323  12.189  68.319  1.00  0.00    -0.212 C  
HETATM   25  H   UNL     1      -9.866  14.012  68.905  1.00  0.00     0.000 HD 
HETATM   26  C   UNL     1     -11.664  12.665  67.784  1.00  0.00    -0.356 C  
HETATM   27  O   UNL     1      -9.463  13.340  68.369  1.00  0.00    -0.214 OA 
HETATM   28  O   UNL     1     -12.102  12.424  66.663  1.00  0.00    -0.592 OA 
ENDBRANCH  21  24
ENDBRANCH   4  21
ENDBRANCH   3   4
TORSDOF 6
ENDMDL
MODEL       89
REMARK 921   NORMALIZED FREE ENERGY PREDICTED BY IDOCK:   -4.70 KCAL/MOL
REMARK 922        TOTAL FREE ENERGY PREDICTED BY IDOCK:   -7.55 KCAL/MOL
REMARK 923 INTER-LIGAND FREE ENERGY PREDICTED BY IDOCK:   -6.70 KCAL/MOL
REMARK 924 INTRA-LIGAND FREE ENERGY PREDICTED BY IDOCK:   -0.85 KCAL/MOL
REMARK 927      BINDING AFFINITY PREDICTED BY RF-SCORE:    0.00 PKD
ROOT
HETATM    1  O   UNL     1     -14.044   9.093  72.832  1.00  0.00    -0.989 OA 
HETATM    2  H   UNL     1     -14.605   9.337  73.559  1.00  0.00     0.000 HD 
HETATM    3  C   UNL     1     -13.410  10.197  72.206  1.00  0.00    -0.238 C  
ENDROOT
BRANCH   3   4
HETATM    4  C   UNL     1     -12.496   9.801  71.022  1.00  0.00    -0.323 C  
BRANCH   4   5
HETATM    5  O   UNL     1     -11.513  10.783  70.648  1.00  0.00    -0.325 OA 
BRANCH   5   6
HETATM    6  C   UNL     1     -11.818  11.520  69.467  1.00  0.00    -0.351 C  
HETATM    7  C   UNL     1     -11.227  11.780  67.153  1.00  0.00    -0.316 C  
HETATM    8  O   UNL     1     -10.944  11.115  68.398  1.00  0.00    -0.194 OA 
HETATM    9  H   UNL     1     -12.436  14.418  70.963  1.00  0.00     0.000 HD 
HETATM   10  C   UNL     1     -11.104  13.305  67.285  1.00  0.00    -0.279 C  
HETATM   11  O   UNL     1     -12.523  13.486  70.801  1.00  0.00    -0.351 OA 
HETATM   12  O   UNL     1      -9.775  13.744  67.605  1.00  0.00    -0.217 OA 
HETATM   13  C   UNL     1     -12.021  13.781  68.419  1.00  0.00    -0.360 C  
HETATM   14  H   UNL     1      -9.699  14.688  67.687  1.00  0.00     0.000 HD 
HETATM   15  H   UNL     1     -12.500  15.498  69.251  1.00  0.00     0.000 HD 
HETATM   16  O   UNL     1     -11.932  15.204  68.549  1.00  0.00    -0.304 OA 
HETATM   17  C   UNL     1     -11.674  13.046  69.732  1.00  0.00    -0.276 C  
BRANCH   7  18
HETATM   18  C   UNL     1     -10.276  11.224  66.090  1.00  0.00    -0.245 C  
HETATM   19  O   UNL     1     -10.254   9.800  66.157  1.00  0.00    -0.259 OA 
HETATM   20  H   UNL     1      -9.663   9.455  65.498  1.00  0.00     0.000 HD 
ENDBRANCH   7  18
ENDBRANCH   5   6
ENDBRANCH   4   5
BRANCH   4  21
HETATM   21  C   UNL     1     -11.794   8.436  71.295  1.00  0.00    -0.289 C  
HETATM   22  H   UNL     1     -10.973   7.481  72.843  1.00  0.00     0.000 HD 
HETATM   23  O   UNL     1     -11.401   8.313  72.677  1.00  0.00    -0.390 OA 
BRANCH  21  24
HETATM   24  C   UNL     1     -10.537   8.227  70.444  1.00  0.00    -0.224 C  
HETATM   25  H   UNL     1      -8.599   8.103  70.766  1.00  0.00     0.000 HD 
HETATM   26  C   UNL     1     -10.528   6.904  69.695  1.00  0.00    -0.218 C  
HETATM   27  O   UNL     1      -9.377   8.232  71.294  1.00  0.00    -0.153 OA 
HETATM   28  O   UNL     1     -11.293   5.969  69.907  1.00  0.00    -0.400 OA 
ENDBRANCH  21  24
ENDBRANCH   4  21
ENDBRANCH   3   4
TORSDOF 6
ENDMDL
MODEL       90
REMARK 921   NORMALIZED FREE ENERGY PREDICTED BY IDOCK:   -4.68 KCAL/MOL
REMARK 922        TOTAL FREE ENERGY PREDICTED BY IDOCK:   -7.52 KCAL/MOL
REMARK 923 INTER-LIGAND FREE ENERGY PREDICTED BY IDOCK:   -6.89 KCAL/MOL
REMARK 924 INTRA-LIGAND FREE ENERGY PREDICTED BY IDOCK:   -0.63 KCAL/MOL
REMARK 927      BINDING AFFINITY PREDICTED BY RF-SCORE:    0.00 PKD
ROOT
HETATM    1  O   UNL     1     -11.901   9.103  70.231  1.00  0.00    -0.465 OA 
HETATM    2  H   UNL     1     -11.769   8.823  71.129  1.00  0.00     0.000 HD 
HETATM    3  C   UNL     1     -11.266  10.333  69.917  1.00  0.00    -0.299 C  
ENDROOT
BRANCH   3   4
HETATM    4  C   UNL     1     -11.482  10.789  68.455  1.00  0.00    -0.288 C  
BRANCH   4   5
HETATM    5  O   UNL     1     -12.003  12.121  68.296  1.00  0.00    -0.384 OA 
BRANCH   5   6
HETATM    6  C   UNL     1     -11.700  13.018  69.362  1.00  0.00    -0.326 C  
HETATM    7  C   UNL     1     -12.526  13.881  71.446  1.00  0.00    -0.340 C  
HETATM    8  O   UNL     1     -12.783  13.035  70.309  1.00  0.00    -0.078 OA 
HETATM    9  H   UNL     1     -10.219  15.341  67.511  1.00  0.00     0.000 HD 
HETATM   10  C   UNL     1     -12.269  15.335  71.024  1.00  0.00    -0.350 C  
HETATM   11  O   UNL     1     -10.376  14.467  67.850  1.00  0.00    -0.228 OA 
HETATM   12  O   UNL     1     -13.401  15.955  70.394  1.00  0.00    -0.726 OA 
HETATM   13  C   UNL     1     -11.118  15.361  70.009  1.00  0.00    -0.303 C  
HETATM   14  H   UNL     1     -13.242  16.854  70.133  1.00  0.00     0.000 HD 
HETATM   15  H   UNL     1     -10.140  16.727  68.985  1.00  0.00     0.000 HD 
HETATM   16  O   UNL     1     -10.853  16.711  69.613  1.00  0.00    -0.341 OA 
HETATM   17  C   UNL     1     -11.444  14.448  68.808  1.00  0.00    -0.289 C  
BRANCH   7  18
HETATM   18  C   UNL     1     -13.719  13.769  72.400  1.00  0.00    -0.591 C  
HETATM   19  O   UNL     1     -13.862  14.977  73.141  1.00  0.00    -0.545 OA 
HETATM   20  H   UNL     1     -14.602  14.908  73.732  1.00  0.00     0.000 HD 
ENDBRANCH   7  18
ENDBRANCH   5   6
ENDBRANCH   4   5
BRANCH   4  21
HETATM   21  C   UNL     1     -10.170  10.639  67.626  1.00  0.00    -0.194 C  
HETATM   22  H   UNL     1      -8.295  11.320  67.694  1.00  0.00     0.000 HD 
HETATM   23  O   UNL     1      -9.095  11.411  68.199  1.00  0.00    -0.160 OA 
BRANCH  21  24
HETATM   24  C   UNL     1     -10.326  11.088  66.170  1.00  0.00    -0.251 C  
HETATM   25  H   UNL     1      -9.575  12.500  65.022  1.00  0.00     0.000 HD 
HETATM   26  C   UNL     1      -9.931  10.018  65.163  1.00  0.00    -0.280 C  
HETATM   27  O   UNL     1      -9.478  12.222  65.924  1.00  0.00    -0.229 OA 
HETATM   28  O   UNL     1      -9.317   8.991  65.431  1.00  0.00    -0.218 OA 
ENDBRANCH  21  24
ENDBRANCH   4  21
ENDBRANCH   3   4
TORSDOF 6
ENDMDL
MODEL       91
REMARK 921   NORMALIZED FREE ENERGY PREDICTED BY IDOCK:   -4.67 KCAL/MOL
REMARK 922        TOTAL FREE ENERGY PREDICTED BY IDOCK:   -7.51 KCAL/MOL
REMARK 923 INTER-LIGAND FREE ENERGY PREDICTED BY IDOCK:   -6.61 KCAL/MOL
REMARK 924 INTRA-LIGAND FREE ENERGY PREDICTED BY IDOCK:   -0.90 KCAL/MOL
REMARK 927      BINDING AFFINITY PREDICTED BY RF-SCORE:    0.00 PKD
ROOT
HETATM    1  O   UNL     1     -12.257   9.694  70.301  1.00  0.00    -0.469 OA 
HETATM    2  H   UNL     1     -12.060   9.426  71.191  1.00  0.00     0.000 HD 
HETATM    3  C   UNL     1     -11.139  10.221  69.604  1.00  0.00    -0.274 C  
ENDROOT
BRANCH   3   4
HETATM    4  C   UNL     1     -11.458  10.657  68.154  1.00  0.00    -0.228 C  
BRANCH   4   5
HETATM    5  O   UNL     1     -12.056  11.959  68.021  1.00  0.00    -0.541 OA 
BRANCH   5   6
HETATM    6  C   UNL     1     -11.744  12.876  69.067  1.00  0.00    -0.327 C  
HETATM    7  C   UNL     1     -12.433  13.621  71.244  1.00  0.00    -0.326 C  
HETATM    8  O   UNL     1     -12.713  12.761  70.123  1.00  0.00     0.025 OA 
HETATM    9  H   UNL     1     -10.746  15.369  67.116  1.00  0.00     0.000 HD 
HETATM   10  C   UNL     1     -12.390  15.098  70.826  1.00  0.00    -0.360 C  
HETATM   11  O   UNL     1     -10.764  14.481  67.452  1.00  0.00    -0.274 OA 
HETATM   12  O   UNL     1     -13.647  15.589  70.334  1.00  0.00    -0.806 OA 
HETATM   13  C   UNL     1     -11.366  15.265  69.696  1.00  0.00    -0.290 C  
HETATM   14  H   UNL     1     -13.620  16.503  70.075  1.00  0.00     0.000 HD 
HETATM   15  H   UNL     1     -10.666  16.744  68.602  1.00  0.00     0.000 HD 
HETATM   16  O   UNL     1     -11.301  16.640  69.302  1.00  0.00    -0.210 OA 
HETATM   17  C   UNL     1     -11.714  14.330  68.517  1.00  0.00    -0.341 C  
BRANCH   7  18
HETATM   18  C   UNL     1     -13.495  13.364  72.316  1.00  0.00    -0.586 C  
HETATM   19  O   UNL     1     -13.745  14.561  73.048  1.00  0.00    -0.573 OA 
HETATM   20  H   UNL     1     -14.403  14.402  73.713  1.00  0.00     0.000 HD 
ENDBRANCH   7  18
ENDBRANCH   5   6
ENDBRANCH   4   5
BRANCH   4  21
HETATM   21  C   UNL     1     -10.188  10.571  67.255  1.00  0.00    -0.215 C  
HETATM   22  H   UNL     1      -9.480   9.394  65.808  1.00  0.00     0.000 HD 
HETATM   23  O   UNL     1     -10.254   9.446  66.355  1.00  0.00    -0.268 OA 
BRANCH  21  24
HETATM   24  C   UNL     1      -8.891  10.433  68.061  1.00  0.00    -0.130 C  
HETATM   25  H   UNL     1      -7.383   9.170  68.133  1.00  0.00     0.000 HD 
HETATM   26  C   UNL     1      -7.940  11.606  67.880  1.00  0.00    -0.132 C  
HETATM   27  O   UNL     1      -8.186   9.256  67.634  1.00  0.00    -0.114 OA 
HETATM   28  O   UNL     1      -8.039  12.466  67.011  1.00  0.00    -0.174 OA 
ENDBRANCH  21  24
ENDBRANCH   4  21
ENDBRANCH   3   4
TORSDOF 6
ENDMDL
MODEL       92
REMARK 921   NORMALIZED FREE ENERGY PREDICTED BY IDOCK:   -4.66 KCAL/MOL
REMARK 922        TOTAL FREE ENERGY PREDICTED BY IDOCK:   -7.50 KCAL/MOL
REMARK 923 INTER-LIGAND FREE ENERGY PREDICTED BY IDOCK:   -6.57 KCAL/MOL
REMARK 924 INTRA-LIGAND FREE ENERGY PREDICTED BY IDOCK:   -0.93 KCAL/MOL
REMARK 927      BINDING AFFINITY PREDICTED BY RF-SCORE:    0.00 PKD
ROOT
HETATM    1  O   UNL     1      -8.857  10.749  66.899  1.00  0.00    -0.137 OA 
HETATM    2  H   UNL     1      -8.100  10.183  66.804  1.00  0.00     0.000 HD 
HETATM    3  C   UNL     1      -8.641  12.073  66.436  1.00  0.00    -0.037 C  
ENDROOT
BRANCH   3   4
HETATM    4  C   UNL     1      -9.874  12.995  66.591  1.00  0.00    -0.252 C  
BRANCH   4   5
HETATM    5  O   UNL     1      -9.674  14.362  66.186  1.00  0.00    -0.297 OA 
BRANCH   5   6
HETATM    6  C   UNL     1      -9.377  15.267  67.246  1.00  0.00    -0.205 C  
HETATM    7  C   UNL     1     -10.188  16.106  69.345  1.00  0.00    -0.266 C  
HETATM    8  O   UNL     1     -10.441  15.254  68.213  1.00  0.00    -0.237 OA 
HETATM    9  H   UNL     1      -8.001  17.632  65.367  1.00  0.00     0.000 HD 
HETATM   10  C   UNL     1      -9.981  17.567  68.919  1.00  0.00    -0.313 C  
HETATM   11  O   UNL     1      -8.125  16.754  65.709  1.00  0.00    -0.358 OA 
HETATM   12  O   UNL     1     -11.143  18.153  68.311  1.00  0.00    -0.173 OA 
HETATM   13  C   UNL     1      -8.852  17.626  67.882  1.00  0.00    -0.246 C  
HETATM   14  H   UNL     1     -11.015  19.057  68.047  1.00  0.00     0.000 HD 
HETATM   15  H   UNL     1      -7.934  19.021  66.840  1.00  0.00     0.000 HD 
HETATM   16  O   UNL     1      -8.634  18.984  67.482  1.00  0.00    -0.281 OA 
HETATM   17  C   UNL     1      -9.174  16.704  66.687  1.00  0.00    -0.253 C  
BRANCH   7  18
HETATM   18  C   UNL     1     -11.358  15.960  70.321  1.00  0.00    -0.372 C  
HETATM   19  O   UNL     1     -12.543  15.611  69.610  1.00  0.00    -0.575 OA 
HETATM   20  H   UNL     1     -13.269  15.520  70.216  1.00  0.00     0.000 HD 
ENDBRANCH   7  18
ENDBRANCH   5   6
ENDBRANCH   4   5
BRANCH   4  21
HETATM   21  C   UNL     1     -11.108  12.403  65.844  1.00  0.00    -0.313 C  
HETATM   22  H   UNL     1     -12.334  10.839  66.027  1.00  0.00     0.000 HD 
HETATM   23  O   UNL     1     -11.582  11.200  66.482  1.00  0.00    -0.278 OA 
BRANCH  21  24
HETATM   24  C   UNL     1     -10.814  12.057  64.381  1.00  0.00    -0.329 C  
HETATM   25  H   UNL     1     -10.208  10.472  63.382  1.00  0.00     0.000 HD 
HETATM   26  C   UNL     1     -12.023  12.205  63.471  1.00  0.00    -0.524 C  
HETATM   27  O   UNL     1     -10.390  10.686  64.289  1.00  0.00    -0.360 OA 
HETATM   28  O   UNL     1     -13.181  12.340  63.854  1.00  0.00    -0.766 OA 
ENDBRANCH  21  24
ENDBRANCH   4  21
ENDBRANCH   3   4
TORSDOF 6
ENDMDL
MODEL       93
REMARK 921   NORMALIZED FREE ENERGY PREDICTED BY IDOCK:   -4.64 KCAL/MOL
REMARK 922        TOTAL FREE ENERGY PREDICTED BY IDOCK:   -7.47 KCAL/MOL
REMARK 923 INTER-LIGAND FREE ENERGY PREDICTED BY IDOCK:   -7.05 KCAL/MOL
REMARK 924 INTRA-LIGAND FREE ENERGY PREDICTED BY IDOCK:   -0.42 KCAL/MOL
REMARK 927      BINDING AFFINITY PREDICTED BY RF-SCORE:    0.00 PKD
ROOT
HETATM    1  O   UNL     1      -6.219  18.521  68.230  1.00  0.00    -0.200 OA 
HETATM    2  H   UNL     1      -5.371  18.208  68.522  1.00  0.00     0.000 HD 
HETATM    3  C   UNL     1      -7.276  17.601  68.457  1.00  0.00    -0.242 C  
ENDROOT
BRANCH   3   4
HETATM    4  C   UNL     1      -8.657  18.110  67.982  1.00  0.00    -0.265 C  
BRANCH   4   5
HETATM    5  O   UNL     1      -9.791  17.418  68.535  1.00  0.00    -0.287 OA 
BRANCH   5   6
HETATM    6  C   UNL     1      -9.900  16.046  68.163  1.00  0.00    -0.222 C  
HETATM    7  C   UNL     1     -10.384  14.584  66.320  1.00  0.00    -0.294 C  
HETATM    8  O   UNL     1     -10.304  15.944  66.786  1.00  0.00    -0.286 OA 
HETATM    9  H   UNL     1     -11.184  14.964  71.027  1.00  0.00     0.000 HD 
HETATM   10  C   UNL     1     -11.382  13.760  67.147  1.00  0.00    -0.324 C  
HETATM   11  O   UNL     1     -10.559  15.409  70.465  1.00  0.00    -0.304 OA 
HETATM   12  O   UNL     1     -12.735  14.230  67.043  1.00  0.00    -0.483 OA 
HETATM   13  C   UNL     1     -10.988  13.844  68.627  1.00  0.00    -0.261 C  
HETATM   14  H   UNL     1     -13.352  13.720  67.555  1.00  0.00     0.000 HD 
HETATM   15  H   UNL     1     -11.654  13.121  70.332  1.00  0.00     0.000 HD 
HETATM   16  O   UNL     1     -11.899  13.069  69.415  1.00  0.00    -0.306 OA 
HETATM   17  C   UNL     1     -10.923  15.318  69.081  1.00  0.00    -0.251 C  
BRANCH   7  18
HETATM   18  C   UNL     1     -10.763  14.612  64.837  1.00  0.00    -0.427 C  
HETATM   19  O   UNL     1     -10.809  15.959  64.373  1.00  0.00    -0.843 OA 
HETATM   20  H   UNL     1     -11.044  15.976  63.453  1.00  0.00     0.000 HD 
ENDBRANCH   7  18
ENDBRANCH   5   6
ENDBRANCH   4   5
BRANCH   4  21
HETATM   21  C   UNL     1      -8.803  19.640  68.236  1.00  0.00    -0.311 C  
HETATM   22  H   UNL     1     -10.101  20.874  69.118  1.00  0.00     0.000 HD 
HETATM   23  O   UNL     1     -10.012  19.940  68.964  1.00  0.00    -0.400 OA 
BRANCH  21  24
HETATM   24  C   UNL     1      -8.834  20.463  66.943  1.00  0.00    -0.252 C  
HETATM   25  H   UNL     1      -7.711  20.641  65.337  1.00  0.00     0.000 HD 
HETATM   26  C   UNL     1     -10.066  20.201  66.090  1.00  0.00    -0.415 C  
HETATM   27  O   UNL     1      -7.691  20.131  66.137  1.00  0.00    -0.297 OA 
HETATM   28  O   UNL     1     -10.847  19.269  66.248  1.00  0.00    -0.383 OA 
ENDBRANCH  21  24
ENDBRANCH   4  21
ENDBRANCH   3   4
TORSDOF 6
ENDMDL
MODEL       94
REMARK 921   NORMALIZED FREE ENERGY PREDICTED BY IDOCK:   -4.61 KCAL/MOL
REMARK 922        TOTAL FREE ENERGY PREDICTED BY IDOCK:   -7.43 KCAL/MOL
REMARK 923 INTER-LIGAND FREE ENERGY PREDICTED BY IDOCK:   -6.49 KCAL/MOL
REMARK 924 INTRA-LIGAND FREE ENERGY PREDICTED BY IDOCK:   -0.94 KCAL/MOL
REMARK 927      BINDING AFFINITY PREDICTED BY RF-SCORE:    0.00 PKD
ROOT
HETATM    1  O   UNL     1      -9.642   8.672  65.488  1.00  0.00    -0.453 OA 
HETATM    2  H   UNL     1      -9.182   8.224  64.788  1.00  0.00     0.000 HD 
HETATM    3  C   UNL     1      -9.853  10.053  65.239  1.00  0.00    -0.318 C  
ENDROOT
BRANCH   3   4
HETATM    4  C   UNL     1     -10.602  10.784  66.379  1.00  0.00    -0.203 C  
BRANCH   4   5
HETATM    5  O   UNL     1     -10.054  10.595  67.696  1.00  0.00    -0.169 OA 
BRANCH   5   6
HETATM    6  C   UNL     1     -10.841   9.784  68.565  1.00  0.00    -0.188 C  
HETATM    7  C   UNL     1     -12.229   9.848  70.525  1.00  0.00    -0.179 C  
HETATM    8  O   UNL     1     -11.376  10.588  69.632  1.00  0.00    -0.243 OA 
HETATM    9  H   UNL     1      -8.899   7.095  68.459  1.00  0.00     0.000 HD 
HETATM   10  C   UNL     1     -11.485   8.671  71.173  1.00  0.00    -0.280 C  
HETATM   11  O   UNL     1      -9.423   7.804  68.106  1.00  0.00    -0.145 OA 
HETATM   12  O   UNL     1     -10.395   9.080  72.013  1.00  0.00    -0.339 OA 
HETATM   13  C   UNL     1     -10.895   7.787  70.067  1.00  0.00    -0.241 C  
HETATM   14  H   UNL     1      -9.934   8.352  72.415  1.00  0.00     0.000 HD 
HETATM   15  H   UNL     1      -9.844   6.127  69.967  1.00  0.00     0.000 HD 
HETATM   16  O   UNL     1     -10.208   6.675  70.652  1.00  0.00    -0.187 OA 
HETATM   17  C   UNL     1      -9.983   8.623  69.143  1.00  0.00    -0.192 C  
BRANCH   7  18
HETATM   18  C   UNL     1     -12.777  10.820  71.573  1.00  0.00    -0.431 C  
HETATM   19  O   UNL     1     -13.631  10.127  72.478  1.00  0.00    -0.627 OA 
HETATM   20  H   UNL     1     -13.971  10.730  73.128  1.00  0.00     0.000 HD 
ENDBRANCH   7  18
ENDBRANCH   5   6
ENDBRANCH   4   5
BRANCH   4  21
HETATM   21  C   UNL     1     -10.723  12.308  66.077  1.00  0.00    -0.261 C  
HETATM   22  H   UNL     1     -10.363  14.033  67.014  1.00  0.00     0.000 HD 
HETATM   23  O   UNL     1     -10.288  13.103  67.198  1.00  0.00    -0.245 OA 
BRANCH  21  24
HETATM   24  C   UNL     1     -12.154  12.741  65.739  1.00  0.00    -0.448 C  
HETATM   25  H   UNL     1     -13.283  14.320  66.068  1.00  0.00     0.000 HD 
HETATM   26  C   UNL     1     -12.424  12.821  64.245  1.00  0.00    -0.382 C  
HETATM   27  O   UNL     1     -12.397  14.052  66.277  1.00  0.00    -0.456 OA 
HETATM   28  O   UNL     1     -11.563  12.797  63.371  1.00  0.00    -0.499 OA 
ENDBRANCH  21  24
ENDBRANCH   4  21
ENDBRANCH   3   4
TORSDOF 6
ENDMDL
MODEL       95
REMARK 921   NORMALIZED FREE ENERGY PREDICTED BY IDOCK:   -4.60 KCAL/MOL
REMARK 922        TOTAL FREE ENERGY PREDICTED BY IDOCK:   -7.42 KCAL/MOL
REMARK 923 INTER-LIGAND FREE ENERGY PREDICTED BY IDOCK:   -6.15 KCAL/MOL
REMARK 924 INTRA-LIGAND FREE ENERGY PREDICTED BY IDOCK:   -1.27 KCAL/MOL
REMARK 927      BINDING AFFINITY PREDICTED BY RF-SCORE:    0.00 PKD
ROOT
HETATM    1  O   UNL     1     -12.206   9.525  70.651  1.00  0.00    -0.431 OA 
HETATM    2  H   UNL     1     -12.232   9.657  71.592  1.00  0.00     0.000 HD 
HETATM    3  C   UNL     1     -11.079  10.116  70.024  1.00  0.00    -0.308 C  
ENDROOT
BRANCH   3   4
HETATM    4  C   UNL     1     -11.035   9.903  68.492  1.00  0.00    -0.180 C  
BRANCH   4   5
HETATM    5  O   UNL     1     -10.449  10.978  67.737  1.00  0.00    -0.183 OA 
BRANCH   5   6
HETATM    6  C   UNL     1     -11.065  11.237  66.478  1.00  0.00    -0.216 C  
HETATM    7  C   UNL     1     -10.708  11.145  64.104  1.00  0.00    -0.345 C  
HETATM    8  O   UNL     1     -10.139  10.958  65.414  1.00  0.00    -0.248 OA 
HETATM    9  H   UNL     1     -12.751  13.938  67.416  1.00  0.00     0.000 HD 
HETATM   10  C   UNL     1     -11.208  12.583  63.905  1.00  0.00    -0.436 C  
HETATM   11  O   UNL     1     -12.460  13.035  67.460  1.00  0.00    -0.126 OA 
HETATM   12  O   UNL     1     -10.160  13.563  63.958  1.00  0.00    -0.749 OA 
HETATM   13  C   UNL     1     -12.200  12.924  65.025  1.00  0.00    -0.464 C  
HETATM   14  H   UNL     1     -10.469  14.454  63.834  1.00  0.00     0.000 HD 
HETATM   15  H   UNL     1     -13.304  14.469  65.541  1.00  0.00     0.000 HD 
HETATM   16  O   UNL     1     -12.689  14.258  64.848  1.00  0.00    -0.637 OA 
HETATM   17  C   UNL     1     -11.541  12.716  66.405  1.00  0.00    -0.384 C  
BRANCH   7  18
HETATM   18  C   UNL     1      -9.650  10.762  63.067  1.00  0.00    -0.353 C  
HETATM   19  O   UNL     1      -8.536  10.151  63.713  1.00  0.00    -0.171 OA 
HETATM   20  H   UNL     1      -7.879   9.913  63.069  1.00  0.00     0.000 HD 
ENDBRANCH   7  18
ENDBRANCH   5   6
ENDBRANCH   4   5
BRANCH   4  21
HETATM   21  C   UNL     1     -10.320   8.564  68.137  1.00  0.00    -0.206 C  
HETATM   22  H   UNL     1     -10.315   6.676  68.784  1.00  0.00     0.000 HD 
HETATM   23  O   UNL     1     -10.752   7.492  69.000  1.00  0.00    -0.207 OA 
BRANCH  21  24
HETATM   24  C   UNL     1      -8.795   8.651  68.248  1.00  0.00    -0.142 C  
HETATM   25  H   UNL     1      -7.368   7.638  69.150  1.00  0.00     0.000 HD 
HETATM   26  C   UNL     1      -8.084   8.520  66.910  1.00  0.00    -0.099 C  
HETATM   27  O   UNL     1      -8.313   7.584  69.082  1.00  0.00    -0.131 OA 
HETATM   28  O   UNL     1      -8.607   8.137  65.869  1.00  0.00    -0.136 OA 
ENDBRANCH  21  24
ENDBRANCH   4  21
ENDBRANCH   3   4
TORSDOF 6
ENDMDL
MODEL       96
REMARK 921   NORMALIZED FREE ENERGY PREDICTED BY IDOCK:   -4.60 KCAL/MOL
REMARK 922        TOTAL FREE ENERGY PREDICTED BY IDOCK:   -7.42 KCAL/MOL
REMARK 923 INTER-LIGAND FREE ENERGY PREDICTED BY IDOCK:   -6.80 KCAL/MOL
REMARK 924 INTRA-LIGAND FREE ENERGY PREDICTED BY IDOCK:   -0.61 KCAL/MOL
REMARK 927      BINDING AFFINITY PREDICTED BY RF-SCORE:    0.00 PKD
ROOT
HETATM    1  O   UNL     1      -9.839   9.374  68.360  1.00  0.00    -0.153 OA 
HETATM    2  H   UNL     1      -9.587   8.459  68.318  1.00  0.00     0.000 HD 
HETATM    3  C   UNL     1     -10.908   9.712  67.491  1.00  0.00    -0.198 C  
ENDROOT
BRANCH   3   4
HETATM    4  C   UNL     1     -11.320  11.202  67.560  1.00  0.00    -0.278 C  
BRANCH   4   5
HETATM    5  O   UNL     1     -10.776  11.939  68.670  1.00  0.00    -0.220 OA 
BRANCH   5   6
HETATM    6  C   UNL     1     -11.657  12.902  69.243  1.00  0.00    -0.310 C  
HETATM    7  C   UNL     1     -11.874  15.232  69.784  1.00  0.00    -0.332 C  
HETATM    8  O   UNL     1     -11.023  14.192  69.266  1.00  0.00    -0.247 OA 
HETATM    9  H   UNL     1     -12.934  10.920  71.580  1.00  0.00     0.000 HD 
HETATM   10  C   UNL     1     -12.332  14.926  71.218  1.00  0.00    -0.322 C  
HETATM   11  O   UNL     1     -12.687  11.182  70.701  1.00  0.00    -0.313 OA 
HETATM   12  O   UNL     1     -11.252  14.876  72.163  1.00  0.00    -0.465 OA 
HETATM   13  C   UNL     1     -13.014  13.552  71.239  1.00  0.00    -0.304 C  
HETATM   14  H   UNL     1     -11.535  14.686  73.050  1.00  0.00     0.000 HD 
HETATM   15  H   UNL     1     -13.885  12.404  72.579  1.00  0.00     0.000 HD 
HETATM   16  O   UNL     1     -13.462  13.254  72.566  1.00  0.00    -0.573 OA 
HETATM   17  C   UNL     1     -12.061  12.473  70.683  1.00  0.00    -0.221 C  
BRANCH   7  18
HETATM   18  C   UNL     1     -11.111  16.556  69.702  1.00  0.00    -0.235 C  
HETATM   19  O   UNL     1     -10.799  16.853  68.344  1.00  0.00    -0.356 OA 
HETATM   20  H   UNL     1     -10.326  17.675  68.292  1.00  0.00     0.000 HD 
ENDBRANCH   7  18
ENDBRANCH   5   6
ENDBRANCH   4   5
BRANCH   4  21
HETATM   21  C   UNL     1     -10.979  11.935  66.228  1.00  0.00    -0.302 C  
HETATM   22  H   UNL     1      -9.622  13.240  65.565  1.00  0.00     0.000 HD 
HETATM   23  O   UNL     1      -9.830  12.792  66.377  1.00  0.00    -0.257 OA 
BRANCH  21  24
HETATM   24  C   UNL     1     -12.131  12.803  65.710  1.00  0.00    -0.448 C  
HETATM   25  H   UNL     1     -12.670  14.692  65.851  1.00  0.00     0.000 HD 
HETATM   26  C   UNL     1     -12.206  12.864  64.192  1.00  0.00    -0.414 C  
HETATM   27  O   UNL     1     -11.957  14.154  66.172  1.00  0.00    -0.387 OA 
HETATM   28  O   UNL     1     -11.325  12.486  63.427  1.00  0.00    -0.466 OA 
ENDBRANCH  21  24
ENDBRANCH   4  21
ENDBRANCH   3   4
TORSDOF 6
ENDMDL
MODEL       97
REMARK 921   NORMALIZED FREE ENERGY PREDICTED BY IDOCK:   -4.58 KCAL/MOL
REMARK 922        TOTAL FREE ENERGY PREDICTED BY IDOCK:   -7.39 KCAL/MOL
REMARK 923 INTER-LIGAND FREE ENERGY PREDICTED BY IDOCK:   -6.77 KCAL/MOL
REMARK 924 INTRA-LIGAND FREE ENERGY PREDICTED BY IDOCK:   -0.62 KCAL/MOL
REMARK 927      BINDING AFFINITY PREDICTED BY RF-SCORE:    0.00 PKD
ROOT
HETATM    1  O   UNL     1      -7.565  18.766  65.332  1.00  0.00    -0.419 OA 
HETATM    2  H   UNL     1      -6.821  19.082  64.832  1.00  0.00     0.000 HD 
HETATM    3  C   UNL     1      -7.303  17.574  66.054  1.00  0.00    -0.253 C  
ENDROOT
BRANCH   3   4
HETATM    4  C   UNL     1      -8.514  17.059  66.867  1.00  0.00    -0.216 C  
BRANCH   4   5
HETATM    5  O   UNL     1      -8.690  15.631  66.872  1.00  0.00    -0.211 OA 
BRANCH   5   6
HETATM    6  C   UNL     1     -10.044  15.190  66.943  1.00  0.00    -0.255 C  
HETATM    7  C   UNL     1     -11.468  13.482  67.851  1.00  0.00    -0.318 C  
HETATM    8  O   UNL     1     -10.120  13.963  67.689  1.00  0.00    -0.236 OA 
HETATM    9  H   UNL     1     -10.905  16.071  63.861  1.00  0.00     0.000 HD 
HETATM   10  C   UNL     1     -12.146  13.232  66.496  1.00  0.00    -0.375 C  
HETATM   11  O   UNL     1     -10.552  16.193  64.735  1.00  0.00    -0.630 OA 
HETATM   12  O   UNL     1     -11.513  12.201  65.723  1.00  0.00    -0.347 OA 
HETATM   13  C   UNL     1     -12.084  14.521  65.665  1.00  0.00    -0.293 C  
HETATM   14  H   UNL     1     -11.932  12.046  64.884  1.00  0.00     0.000 HD 
HETATM   15  H   UNL     1     -12.688  15.110  63.887  1.00  0.00     0.000 HD 
HETATM   16  O   UNL     1     -12.725  14.312  64.401  1.00  0.00    -0.661 OA 
HETATM   17  C   UNL     1     -10.622  14.990  65.513  1.00  0.00    -0.363 C  
BRANCH   7  18
HETATM   18  C   UNL     1     -11.419  12.212  68.704  1.00  0.00    -0.296 C  
HETATM   19  O   UNL     1     -12.437  11.307  68.286  1.00  0.00    -0.413 OA 
HETATM   20  H   UNL     1     -12.407  10.519  68.815  1.00  0.00     0.000 HD 
ENDBRANCH   7  18
ENDBRANCH   5   6
ENDBRANCH   4   5
BRANCH   4  21
HETATM   21  C   UNL     1      -8.463  17.584  68.334  1.00  0.00    -0.275 C  
HETATM   22  H   UNL     1      -9.428  18.921  69.458  1.00  0.00     0.000 HD 
HETATM   23  O   UNL     1      -9.459  18.601  68.564  1.00  0.00    -0.322 OA 
BRANCH  21  24
HETATM   24  C   UNL     1      -7.104  18.185  68.709  1.00  0.00    -0.279 C  
HETATM   25  H   UNL     1      -6.462  19.701  69.788  1.00  0.00     0.000 HD 
HETATM   26  C   UNL     1      -6.209  17.223  69.473  1.00  0.00    -0.251 C  
HETATM   27  O   UNL     1      -7.304  19.329  69.556  1.00  0.00    -0.231 OA 
HETATM   28  O   UNL     1      -6.576  16.165  69.974  1.00  0.00    -0.127 OA 
ENDBRANCH  21  24
ENDBRANCH   4  21
ENDBRANCH   3   4
TORSDOF 6
ENDMDL
MODEL       98
REMARK 921   NORMALIZED FREE ENERGY PREDICTED BY IDOCK:   -4.58 KCAL/MOL
REMARK 922        TOTAL FREE ENERGY PREDICTED BY IDOCK:   -7.39 KCAL/MOL
REMARK 923 INTER-LIGAND FREE ENERGY PREDICTED BY IDOCK:   -6.21 KCAL/MOL
REMARK 924 INTRA-LIGAND FREE ENERGY PREDICTED BY IDOCK:   -1.17 KCAL/MOL
REMARK 927      BINDING AFFINITY PREDICTED BY RF-SCORE:    0.00 PKD
ROOT
HETATM    1  O   UNL     1     -11.004   8.033  68.334  1.00  0.00    -0.430 OA 
HETATM    2  H   UNL     1     -11.337   7.224  68.706  1.00  0.00     0.000 HD 
HETATM    3  C   UNL     1     -10.650   7.927  66.964  1.00  0.00    -0.311 C  
ENDROOT
BRANCH   3   4
HETATM    4  C   UNL     1     -10.108   9.243  66.358  1.00  0.00    -0.267 C  
BRANCH   4   5
HETATM    5  O   UNL     1      -9.830  10.289  67.306  1.00  0.00    -0.171 OA 
BRANCH   5   6
HETATM    6  C   UNL     1     -10.387  11.561  66.981  1.00  0.00    -0.220 C  
HETATM    7  C   UNL     1     -11.803  12.697  65.409  1.00  0.00    -0.427 C  
HETATM    8  O   UNL     1     -11.163  11.460  65.775  1.00  0.00    -0.216 OA 
HETATM    9  H   UNL     1      -7.763  13.380  67.889  1.00  0.00     0.000 HD 
HETATM   10  C   UNL     1     -10.781  13.824  65.199  1.00  0.00    -0.358 C  
HETATM   11  O   UNL     1      -8.453  12.736  67.993  1.00  0.00    -0.159 OA 
HETATM   12  O   UNL     1      -9.880  13.579  64.108  1.00  0.00    -0.727 OA 
HETATM   13  C   UNL     1      -9.928  13.963  66.466  1.00  0.00    -0.285 C  
HETATM   14  H   UNL     1      -9.247  14.276  63.978  1.00  0.00     0.000 HD 
HETATM   15  H   UNL     1      -8.449  15.106  67.080  1.00  0.00     0.000 HD 
HETATM   16  O   UNL     1      -8.976  15.019  66.295  1.00  0.00    -0.275 OA 
HETATM   17  C   UNL     1      -9.257  12.616  66.810  1.00  0.00    -0.225 C  
BRANCH   7  18
HETATM   18  C   UNL     1     -12.639  12.446  64.151  1.00  0.00    -0.403 C  
HETATM   19  O   UNL     1     -12.521  13.553  63.261  1.00  0.00    -0.897 OA 
HETATM   20  H   UNL     1     -13.040  13.397  62.481  1.00  0.00     0.000 HD 
ENDBRANCH   7  18
ENDBRANCH   5   6
ENDBRANCH   4   5
BRANCH   4  21
HETATM   21  C   UNL     1      -8.841   8.975  65.489  1.00  0.00    -0.194 C  
HETATM   22  H   UNL     1      -6.930   9.548  65.449  1.00  0.00     0.000 HD 
HETATM   23  O   UNL     1      -7.702   9.711  65.979  1.00  0.00    -0.099 OA 
BRANCH  21  24
HETATM   24  C   UNL     1      -9.031   9.357  64.018  1.00  0.00    -0.132 C  
HETATM   25  H   UNL     1      -8.727  10.953  62.906  1.00  0.00     0.000 HD 
HETATM   26  C   UNL     1      -8.219   8.499  63.061  1.00  0.00    -0.165 C  
HETATM   27  O   UNL     1      -8.609  10.717  63.818  1.00  0.00    -0.166 OA 
HETATM   28  O   UNL     1      -7.312   7.742  63.391  1.00  0.00    -0.088 OA 
ENDBRANCH  21  24
ENDBRANCH   4  21
ENDBRANCH   3   4
TORSDOF 6
ENDMDL
MODEL       99
REMARK 921   NORMALIZED FREE ENERGY PREDICTED BY IDOCK:   -4.58 KCAL/MOL
REMARK 922        TOTAL FREE ENERGY PREDICTED BY IDOCK:   -7.38 KCAL/MOL
REMARK 923 INTER-LIGAND FREE ENERGY PREDICTED BY IDOCK:   -6.50 KCAL/MOL
REMARK 924 INTRA-LIGAND FREE ENERGY PREDICTED BY IDOCK:   -0.88 KCAL/MOL
REMARK 927      BINDING AFFINITY PREDICTED BY RF-SCORE:    0.00 PKD
ROOT
HETATM    1  O   UNL     1     -11.723  12.998  62.918  1.00  0.00    -0.772 OA 
HETATM    2  H   UNL     1     -12.273  12.889  62.151  1.00  0.00     0.000 HD 
HETATM    3  C   UNL     1     -11.898  11.983  63.894  1.00  0.00    -0.448 C  
ENDROOT
BRANCH   3   4
HETATM    4  C   UNL     1     -11.003  12.159  65.143  1.00  0.00    -0.310 C  
BRANCH   4   5
HETATM    5  O   UNL     1     -11.637  11.862  66.401  1.00  0.00    -0.451 OA 
BRANCH   5   6
HETATM    6  C   UNL     1     -11.901  12.995  67.225  1.00  0.00    -0.363 C  
HETATM    7  C   UNL     1     -11.255  15.273  67.630  1.00  0.00    -0.320 C  
HETATM    8  O   UNL     1     -11.014  14.071  66.874  1.00  0.00    -0.291 OA 
HETATM    9  H   UNL     1     -12.489  11.314  70.026  1.00  0.00     0.000 HD 
HETATM   10  C   UNL     1     -11.103  15.033  69.139  1.00  0.00    -0.270 C  
HETATM   11  O   UNL     1     -12.593  11.542  69.109  1.00  0.00    -0.185 OA 
HETATM   12  O   UNL     1      -9.772  14.657  69.525  1.00  0.00    -0.416 OA 
HETATM   13  C   UNL     1     -12.034  13.887  69.556  1.00  0.00    -0.343 C  
HETATM   14  H   UNL     1      -9.677  14.509  70.459  1.00  0.00     0.000 HD 
HETATM   15  H   UNL     1     -12.493  12.948  71.223  1.00  0.00     0.000 HD 
HETATM   16  O   UNL     1     -11.917  13.657  70.965  1.00  0.00    -0.266 OA 
HETATM   17  C   UNL     1     -11.730  12.622  68.725  1.00  0.00    -0.323 C  
BRANCH   7  18
HETATM   18  C   UNL     1     -10.294  16.353  67.126  1.00  0.00    -0.290 C  
HETATM   19  O   UNL     1      -9.651  15.911  65.934  1.00  0.00    -0.315 OA 
HETATM   20  H   UNL     1      -9.054  16.581  65.621  1.00  0.00     0.000 HD 
ENDBRANCH   7  18
ENDBRANCH   5   6
ENDBRANCH   4   5
BRANCH   4  21
HETATM   21  C   UNL     1      -9.692  11.328  65.010  1.00  0.00    -0.251 C  
HETATM   22  H   UNL     1      -8.812  10.165  63.646  1.00  0.00     0.000 HD 
HETATM   23  O   UNL     1      -9.612  10.672  63.728  1.00  0.00    -0.253 OA 
BRANCH  21  24
HETATM   24  C   UNL     1      -9.557  10.243  66.084  1.00  0.00    -0.197 C  
HETATM   25  H   UNL     1      -9.577   8.275  66.137  1.00  0.00     0.000 HD 
HETATM   26  C   UNL     1      -8.224  10.279  66.815  1.00  0.00    -0.124 C  
HETATM   27  O   UNL     1      -9.661   8.947  65.471  1.00  0.00    -0.184 OA 
HETATM   28  O   UNL     1      -7.241  10.919  66.456  1.00  0.00    -0.130 OA 
ENDBRANCH  21  24
ENDBRANCH   4  21
ENDBRANCH   3   4
TORSDOF 6
ENDMDL
MODEL      100
REMARK 921   NORMALIZED FREE ENERGY PREDICTED BY IDOCK:   -4.57 KCAL/MOL
REMARK 922        TOTAL FREE ENERGY PREDICTED BY IDOCK:   -7.37 KCAL/MOL
REMARK 923 INTER-LIGAND FREE ENERGY PREDICTED BY IDOCK:   -6.49 KCAL/MOL
REMARK 924 INTRA-LIGAND FREE ENERGY PREDICTED BY IDOCK:   -0.88 KCAL/MOL
REMARK 927      BINDING AFFINITY PREDICTED BY RF-SCORE:    0.00 PKD
ROOT
HETATM    1  O   UNL     1      -7.936  11.205  68.991  1.00  0.00    -0.205 OA 
HETATM    2  H   UNL     1      -7.022  11.083  69.219  1.00  0.00     0.000 HD 
HETATM    3  C   UNL     1      -8.347  10.457  67.858  1.00  0.00    -0.114 C  
ENDROOT
BRANCH   3   4
HETATM    4  C   UNL     1      -9.836  10.655  67.487  1.00  0.00    -0.168 C  
BRANCH   4   5
HETATM    5  O   UNL     1     -10.104  10.812  66.081  1.00  0.00    -0.226 OA 
BRANCH   5   6
HETATM    6  C   UNL     1     -10.364  12.150  65.664  1.00  0.00    -0.257 C  
HETATM    7  C   UNL     1     -11.050  14.314  66.450  1.00  0.00    -0.325 C  
HETATM    8  O   UNL     1     -10.817  12.932  66.783  1.00  0.00    -0.262 OA 
HETATM    9  H   UNL     1     -11.666  11.391  62.706  1.00  0.00     0.000 HD 
HETATM   10  C   UNL     1     -12.102  14.459  65.341  1.00  0.00    -0.364 C  
HETATM   11  O   UNL     1     -11.016  11.383  63.399  1.00  0.00    -0.383 OA 
HETATM   12  O   UNL     1     -13.402  13.982  65.721  1.00  0.00    -0.675 OA 
HETATM   13  C   UNL     1     -11.657  13.636  64.125  1.00  0.00    -0.352 C  
HETATM   14  H   UNL     1     -14.053  14.072  65.035  1.00  0.00     0.000 HD 
HETATM   15  H   UNL     1     -12.344  13.260  62.319  1.00  0.00     0.000 HD 
HETATM   16  O   UNL     1     -12.619  13.769  63.072  1.00  0.00    -0.721 OA 
HETATM   17  C   UNL     1     -11.429  12.164  64.530  1.00  0.00    -0.334 C  
BRANCH   7  18
HETATM   18  C   UNL     1     -11.468  15.046  67.728  1.00  0.00    -0.334 C  
HETATM   19  O   UNL     1     -12.630  14.433  68.280  1.00  0.00    -0.519 OA 
HETATM   20  H   UNL     1     -12.890  14.887  69.073  1.00  0.00     0.000 HD 
ENDBRANCH   7  18
ENDBRANCH   5   6
ENDBRANCH   4   5
BRANCH   4  21
HETATM   21  C   UNL     1     -10.710   9.500  68.060  1.00  0.00    -0.212 C  
HETATM   22  H   UNL     1     -11.969   9.215  69.582  1.00  0.00     0.000 HD 
HETATM   23  O   UNL     1     -11.436   9.920  69.233  1.00  0.00    -0.129 OA 
BRANCH  21  24
HETATM   24  C   UNL     1      -9.892   8.264  68.450  1.00  0.00    -0.172 C  
HETATM   25  H   UNL     1      -9.623   7.184  70.073  1.00  0.00     0.000 HD 
HETATM   26  C   UNL     1     -10.251   7.024  67.647  1.00  0.00    -0.193 C  
HETATM   27  O   UNL     1     -10.130   7.949  69.832  1.00  0.00    -0.190 OA 
HETATM   28  O   UNL     1     -11.243   6.908  66.935  1.00  0.00    -0.353 OA 
ENDBRANCH  21  24
ENDBRANCH   4  21
ENDBRANCH   3   4
TORSDOF 6
ENDMDL
MODEL      101
REMARK 921   NORMALIZED FREE ENERGY PREDICTED BY IDOCK:   -4.56 KCAL/MOL
REMARK 922        TOTAL FREE ENERGY PREDICTED BY IDOCK:   -7.37 KCAL/MOL
REMARK 923 INTER-LIGAND FREE ENERGY PREDICTED BY IDOCK:   -6.78 KCAL/MOL
REMARK 924 INTRA-LIGAND FREE ENERGY PREDICTED BY IDOCK:   -0.58 KCAL/MOL
REMARK 927      BINDING AFFINITY PREDICTED BY RF-SCORE:    0.00 PKD
ROOT
HETATM    1  O   UNL     1      -9.041   7.813  65.553  1.00  0.00    -0.379 OA 
HETATM    2  H   UNL     1      -9.315   7.220  64.862  1.00  0.00     0.000 HD 
HETATM    3  C   UNL     1     -10.060   8.096  66.499  1.00  0.00    -0.216 C  
ENDROOT
BRANCH   3   4
HETATM    4  C   UNL     1      -9.615   9.060  67.624  1.00  0.00    -0.150 C  
BRANCH   4   5
HETATM    5  O   UNL     1      -9.842  10.457  67.362  1.00  0.00    -0.170 OA 
BRANCH   5   6
HETATM    6  C   UNL     1     -10.592  10.735  66.182  1.00  0.00    -0.175 C  
HETATM    7  C   UNL     1     -10.442  10.848  63.787  1.00  0.00    -0.259 C  
HETATM    8  O   UNL     1      -9.741  10.632  65.027  1.00  0.00    -0.232 OA 
HETATM    9  H   UNL     1     -12.452  13.167  67.464  1.00  0.00     0.000 HD 
HETATM   10  C   UNL     1     -11.100  12.234  63.743  1.00  0.00    -0.442 C  
HETATM   11  O   UNL     1     -12.068  12.300  67.413  1.00  0.00    -0.533 OA 
HETATM   12  O   UNL     1     -10.156  13.316  63.787  1.00  0.00    -0.712 OA 
HETATM   13  C   UNL     1     -12.018  12.387  64.964  1.00  0.00    -0.402 C  
HETATM   14  H   UNL     1     -10.563  14.174  63.760  1.00  0.00     0.000 HD 
HETATM   15  H   UNL     1     -13.222  13.765  65.688  1.00  0.00     0.000 HD 
HETATM   16  O   UNL     1     -12.653  13.670  64.933  1.00  0.00    -0.567 OA 
HETATM   17  C   UNL     1     -11.220  12.155  66.265  1.00  0.00    -0.334 C  
BRANCH   7  18
HETATM   18  C   UNL     1      -9.447  10.655  62.640  1.00  0.00    -0.301 C  
HETATM   19  O   UNL     1      -8.377  11.588  62.763  1.00  0.00    -0.528 OA 
HETATM   20  H   UNL     1      -7.759  11.468  62.052  1.00  0.00     0.000 HD 
ENDBRANCH   7  18
ENDBRANCH   5   6
ENDBRANCH   4   5
BRANCH   4  21
HETATM   21  C   UNL     1     -10.271   8.669  68.982  1.00  0.00    -0.207 C  
HETATM   22  H   UNL     1     -10.214   9.283  70.881  1.00  0.00     0.000 HD 
HETATM   23  O   UNL     1      -9.814   9.521  70.052  1.00  0.00    -0.202 OA 
BRANCH  21  24
HETATM   24  C   UNL     1      -9.979   7.223  69.396  1.00  0.00    -0.170 C  
HETATM   25  H   UNL     1      -8.645   6.299  70.510  1.00  0.00     0.000 HD 
HETATM   26  C   UNL     1     -11.117   6.573  70.166  1.00  0.00    -0.351 C  
HETATM   27  O   UNL     1      -8.826   7.195  70.255  1.00  0.00    -0.146 OA 
HETATM   28  O   UNL     1     -12.076   7.170  70.644  1.00  0.00    -0.308 OA 
ENDBRANCH  21  24
ENDBRANCH   4  21
ENDBRANCH   3   4
TORSDOF 6
ENDMDL
MODEL      102
REMARK 921   NORMALIZED FREE ENERGY PREDICTED BY IDOCK:   -4.54 KCAL/MOL
REMARK 922        TOTAL FREE ENERGY PREDICTED BY IDOCK:   -7.34 KCAL/MOL
REMARK 923 INTER-LIGAND FREE ENERGY PREDICTED BY IDOCK:   -6.09 KCAL/MOL
REMARK 924 INTRA-LIGAND FREE ENERGY PREDICTED BY IDOCK:   -1.25 KCAL/MOL
REMARK 927      BINDING AFFINITY PREDICTED BY RF-SCORE:    0.00 PKD
ROOT
HETATM    1  O   UNL     1      -9.866   9.904  64.363  1.00  0.00    -0.398 OA 
HETATM    2  H   UNL     1      -9.777   9.284  63.647  1.00  0.00     0.000 HD 
HETATM    3  C   UNL     1      -9.216   9.495  65.556  1.00  0.00    -0.234 C  
ENDROOT
BRANCH   3   4
HETATM    4  C   UNL     1      -9.361  10.503  66.720  1.00  0.00    -0.157 C  
BRANCH   4   5
HETATM    5  O   UNL     1     -10.674  10.586  67.303  1.00  0.00    -0.250 OA 
BRANCH   5   6
HETATM    6  C   UNL     1     -11.434  11.727  66.915  1.00  0.00    -0.293 C  
HETATM    7  C   UNL     1     -12.269  12.928  65.009  1.00  0.00    -0.464 C  
HETATM    8  O   UNL     1     -11.471  11.825  65.480  1.00  0.00    -0.281 OA 
HETATM    9  H   UNL     1     -10.382  13.740  69.335  1.00  0.00     0.000 HD 
HETATM   10  C   UNL     1     -11.749  14.271  65.542  1.00  0.00    -0.353 C  
HETATM   11  O   UNL     1     -10.757  12.952  68.960  1.00  0.00    -0.195 OA 
HETATM   12  O   UNL     1     -10.427  14.593  65.083  1.00  0.00    -0.365 OA 
HETATM   13  C   UNL     1     -11.692  14.208  67.074  1.00  0.00    -0.405 C  
HETATM   14  H   UNL     1     -10.106  15.425  65.412  1.00  0.00     0.000 HD 
HETATM   15  H   UNL     1     -11.187  15.420  68.540  1.00  0.00     0.000 HD 
HETATM   16  O   UNL     1     -11.222  15.458  67.591  1.00  0.00    -0.320 OA 
HETATM   17  C   UNL     1     -10.820  13.018  67.528  1.00  0.00    -0.247 C  
BRANCH   7  18
HETATM   18  C   UNL     1     -12.276  12.888  63.478  1.00  0.00    -0.512 C  
HETATM   19  O   UNL     1     -11.088  12.260  63.004  1.00  0.00    -0.663 OA 
HETATM   20  H   UNL     1     -11.093  12.235  62.054  1.00  0.00     0.000 HD 
ENDBRANCH   7  18
ENDBRANCH   5   6
ENDBRANCH   4   5
BRANCH   4  21
HETATM   21  C   UNL     1      -8.311  10.218  67.836  1.00  0.00    -0.114 C  
HETATM   22  H   UNL     1      -6.494   9.404  67.982  1.00  0.00     0.000 HD 
HETATM   23  O   UNL     1      -7.134   9.578  67.302  1.00  0.00    -0.084 OA 
BRANCH  21  24
HETATM   24  C   UNL     1      -8.851   9.317  68.952  1.00  0.00    -0.135 C  
HETATM   25  H   UNL     1      -8.872   7.388  69.345  1.00  0.00     0.000 HD 
HETATM   26  C   UNL     1      -8.252   9.619  70.316  1.00  0.00    -0.191 C  
HETATM   27  O   UNL     1      -8.537   7.946  68.654  1.00  0.00    -0.128 OA 
HETATM   28  O   UNL     1      -7.265  10.321  70.513  1.00  0.00    -0.297 OA 
ENDBRANCH  21  24
ENDBRANCH   4  21
ENDBRANCH   3   4
TORSDOF 6
ENDMDL
MODEL      103
REMARK 921   NORMALIZED FREE ENERGY PREDICTED BY IDOCK:   -4.54 KCAL/MOL
REMARK 922        TOTAL FREE ENERGY PREDICTED BY IDOCK:   -7.33 KCAL/MOL
REMARK 923 INTER-LIGAND FREE ENERGY PREDICTED BY IDOCK:   -6.31 KCAL/MOL
REMARK 924 INTRA-LIGAND FREE ENERGY PREDICTED BY IDOCK:   -1.02 KCAL/MOL
REMARK 927      BINDING AFFINITY PREDICTED BY RF-SCORE:    0.00 PKD
ROOT
HETATM    1  O   UNL     1      -9.824   8.827  66.032  1.00  0.00    -0.388 OA 
HETATM    2  H   UNL     1      -9.730   8.199  65.325  1.00  0.00     0.000 HD 
HETATM    3  C   UNL     1     -10.177  10.130  65.596  1.00  0.00    -0.218 C  
ENDROOT
BRANCH   3   4
HETATM    4  C   UNL     1     -10.329  11.152  66.747  1.00  0.00    -0.241 C  
BRANCH   4   5
HETATM    5  O   UNL     1     -11.071  12.341  66.420  1.00  0.00    -0.274 OA 
BRANCH   5   6
HETATM    6  C   UNL     1     -10.292  13.532  66.335  1.00  0.00    -0.289 C  
HETATM    7  C   UNL     1      -8.987  15.076  67.632  1.00  0.00    -0.178 C  
HETATM    8  O   UNL     1      -9.828  13.908  67.644  1.00  0.00    -0.228 OA 
HETATM    9  H   UNL     1     -12.137  15.041  64.025  1.00  0.00     0.000 HD 
HETATM   10  C   UNL     1      -9.716  16.293  67.044  1.00  0.00    -0.239 C  
HETATM   11  O   UNL     1     -11.623  14.339  64.407  1.00  0.00    -0.382 OA 
HETATM   12  O   UNL     1     -10.852  16.706  67.818  1.00  0.00    -0.340 OA 
HETATM   13  C   UNL     1     -10.231  15.934  65.644  1.00  0.00    -0.379 C  
HETATM   14  H   UNL     1     -11.304  17.459  67.454  1.00  0.00     0.000 HD 
HETATM   15  H   UNL     1     -11.221  16.839  64.205  1.00  0.00     0.000 HD 
HETATM   16  O   UNL     1     -10.903  17.061  65.072  1.00  0.00    -0.678 OA 
HETATM   17  C   UNL     1     -11.133  14.682  65.711  1.00  0.00    -0.331 C  
BRANCH   7  18
HETATM   18  C   UNL     1      -8.514  15.335  69.065  1.00  0.00    -0.221 C  
HETATM   19  O   UNL     1      -8.017  16.666  69.179  1.00  0.00    -0.232 OA 
HETATM   20  H   UNL     1      -7.724  16.827  70.068  1.00  0.00     0.000 HD 
ENDBRANCH   7  18
ENDBRANCH   5   6
ENDBRANCH   4   5
BRANCH   4  21
HETATM   21  C   UNL     1     -10.950  10.480  68.009  1.00  0.00    -0.290 C  
HETATM   22  H   UNL     1     -12.590  10.672  69.129  1.00  0.00     0.000 HD 
HETATM   23  O   UNL     1     -12.212  11.082  68.360  1.00  0.00    -0.586 OA 
BRANCH  21  24
HETATM   24  C   UNL     1     -10.045  10.569  69.242  1.00  0.00    -0.224 C  
HETATM   25  H   UNL     1     -10.270  10.421  71.193  1.00  0.00     0.000 HD 
HETATM   26  C   UNL     1      -8.943   9.521  69.260  1.00  0.00    -0.160 C  
HETATM   27  O   UNL     1     -10.831  10.366  70.429  1.00  0.00    -0.289 OA 
HETATM   28  O   UNL     1      -8.892   8.539  68.526  1.00  0.00    -0.138 OA 
ENDBRANCH  21  24
ENDBRANCH   4  21
ENDBRANCH   3   4
TORSDOF 6
ENDMDL
MODEL      104
REMARK 921   NORMALIZED FREE ENERGY PREDICTED BY IDOCK:   -4.53 KCAL/MOL
REMARK 922        TOTAL FREE ENERGY PREDICTED BY IDOCK:   -7.32 KCAL/MOL
REMARK 923 INTER-LIGAND FREE ENERGY PREDICTED BY IDOCK:   -6.81 KCAL/MOL
REMARK 924 INTRA-LIGAND FREE ENERGY PREDICTED BY IDOCK:   -0.51 KCAL/MOL
REMARK 927      BINDING AFFINITY PREDICTED BY RF-SCORE:    0.00 PKD
ROOT
HETATM    1  O   UNL     1      -8.895  14.749  66.182  1.00  0.00    -0.472 OA 
HETATM    2  H   UNL     1      -8.039  15.113  65.989  1.00  0.00     0.000 HD 
HETATM    3  C   UNL     1      -8.846  13.544  66.931  1.00  0.00    -0.182 C  
ENDROOT
BRANCH   3   4
HETATM    4  C   UNL     1     -10.239  12.950  67.246  1.00  0.00    -0.234 C  
BRANCH   4   5
HETATM    5  O   UNL     1     -10.515  12.734  68.641  1.00  0.00    -0.244 OA 
BRANCH   5   6
HETATM    6  C   UNL     1     -11.114  11.477  68.950  1.00  0.00    -0.232 C  
HETATM    7  C   UNL     1     -12.605  10.379  70.479  1.00  0.00    -0.302 C  
HETATM    8  O   UNL     1     -11.922  11.599  70.133  1.00  0.00    -0.327 OA 
HETATM    9  H   UNL     1      -8.513   9.590  68.119  1.00  0.00     0.000 HD 
HETATM   10  C   UNL     1     -11.619   9.227  70.719  1.00  0.00    -0.285 C  
HETATM   11  O   UNL     1      -9.183  10.252  67.995  1.00  0.00    -0.134 OA 
HETATM   12  O   UNL     1     -10.744   9.449  71.836  1.00  0.00    -0.280 OA 
HETATM   13  C   UNL     1     -10.733   9.064  69.478  1.00  0.00    -0.206 C  
HETATM   14  H   UNL     1     -10.134   8.736  71.985  1.00  0.00     0.000 HD 
HETATM   15  H   UNL     1      -9.266   7.883  68.907  1.00  0.00     0.000 HD 
HETATM   16  O   UNL     1      -9.815   7.984  69.677  1.00  0.00    -0.179 OA 
HETATM   17  C   UNL     1     -10.018  10.393  69.154  1.00  0.00    -0.223 C  
BRANCH   7  18
HETATM   18  C   UNL     1     -13.471  10.653  71.712  1.00  0.00    -0.225 C  
HETATM   19  O   UNL     1     -13.612   9.461  72.480  1.00  0.00    -0.620 OA 
HETATM   20  H   UNL     1     -14.149   9.631  73.244  1.00  0.00     0.000 HD 
ENDBRANCH   7  18
ENDBRANCH   5   6
ENDBRANCH   4   5
BRANCH   4  21
HETATM   21  C   UNL     1     -11.370  13.821  66.618  1.00  0.00    -0.328 C  
HETATM   22  H   UNL     1     -12.967  14.841  67.243  1.00  0.00     0.000 HD 
HETATM   23  O   UNL     1     -12.278  14.310  67.626  1.00  0.00    -0.337 OA 
BRANCH  21  24
HETATM   24  C   UNL     1     -12.205  13.063  65.581  1.00  0.00    -0.466 C  
HETATM   25  H   UNL     1     -13.796  13.434  64.482  1.00  0.00     0.000 HD 
HETATM   26  C   UNL     1     -11.413  12.652  64.350  1.00  0.00    -0.349 C  
HETATM   27  O   UNL     1     -13.278  13.904  65.124  1.00  0.00    -0.768 OA 
HETATM   28  O   UNL     1     -10.297  13.071  64.058  1.00  0.00    -0.419 OA 
ENDBRANCH  21  24
ENDBRANCH   4  21
ENDBRANCH   3   4
TORSDOF 6
ENDMDL
MODEL      105
REMARK 921   NORMALIZED FREE ENERGY PREDICTED BY IDOCK:   -4.51 KCAL/MOL
REMARK 922        TOTAL FREE ENERGY PREDICTED BY IDOCK:   -7.30 KCAL/MOL
REMARK 923 INTER-LIGAND FREE ENERGY PREDICTED BY IDOCK:   -6.44 KCAL/MOL
REMARK 924 INTRA-LIGAND FREE ENERGY PREDICTED BY IDOCK:   -0.86 KCAL/MOL
REMARK 927      BINDING AFFINITY PREDICTED BY RF-SCORE:    0.00 PKD
ROOT
HETATM    1  O   UNL     1      -9.989   8.679  65.844  1.00  0.00    -0.469 OA 
HETATM    2  H   UNL     1      -9.694   8.404  64.983  1.00  0.00     0.000 HD 
HETATM    3  C   UNL     1      -9.999  10.087  66.021  1.00  0.00    -0.267 C  
ENDROOT
BRANCH   3   4
HETATM    4  C   UNL     1     -10.479  10.535  67.421  1.00  0.00    -0.244 C  
BRANCH   4   5
HETATM    5  O   UNL     1     -11.849  10.971  67.492  1.00  0.00    -0.571 OA 
BRANCH   5   6
HETATM    6  C   UNL     1     -12.032  12.384  67.484  1.00  0.00    -0.183 C  
HETATM    7  C   UNL     1     -11.706  14.361  66.158  1.00  0.00    -0.378 C  
HETATM    8  O   UNL     1     -11.509  12.938  66.265  1.00  0.00    -0.315 OA 
HETATM    9  H   UNL     1     -11.390  12.881  70.703  1.00  0.00     0.000 HD 
HETATM   10  C   UNL     1     -11.041  15.113  67.320  1.00  0.00    -0.332 C  
HETATM   11  O   UNL     1     -11.819  12.489  69.951  1.00  0.00    -0.325 OA 
HETATM   12  O   UNL     1      -9.612  14.974  67.345  1.00  0.00    -0.203 OA 
HETATM   13  C   UNL     1     -11.572  14.549  68.645  1.00  0.00    -0.315 C  
HETATM   14  H   UNL     1      -9.200  15.440  68.064  1.00  0.00     0.000 HD 
HETATM   15  H   UNL     1     -11.303  14.900  70.562  1.00  0.00     0.000 HD 
HETATM   16  O   UNL     1     -10.973  15.248  69.742  1.00  0.00    -0.251 OA 
HETATM   17  C   UNL     1     -11.330  13.026  68.714  1.00  0.00    -0.289 C  
BRANCH   7  18
HETATM   18  C   UNL     1     -11.163  14.816  64.802  1.00  0.00    -0.385 C  
HETATM   19  O   UNL     1     -12.243  15.097  63.916  1.00  0.00    -0.947 OA 
HETATM   20  H   UNL     1     -11.905  15.380  63.074  1.00  0.00     0.000 HD 
ENDBRANCH   7  18
ENDBRANCH   5   6
ENDBRANCH   4   5
BRANCH   4  21
HETATM   21  C   UNL     1     -10.231   9.416  68.478  1.00  0.00    -0.199 C  
HETATM   22  H   UNL     1     -11.107   8.729  70.135  1.00  0.00     0.000 HD 
HETATM   23  O   UNL     1     -11.258   9.411  69.490  1.00  0.00    -0.164 OA 
BRANCH  21  24
HETATM   24  C   UNL     1      -8.885   9.558  69.197  1.00  0.00    -0.147 C  
HETATM   25  H   UNL     1      -8.232   9.409  71.048  1.00  0.00     0.000 HD 
HETATM   26  C   UNL     1      -7.836   8.568  68.715  1.00  0.00    -0.110 C  
HETATM   27  O   UNL     1      -9.066   9.321  70.603  1.00  0.00    -0.226 OA 
HETATM   28  O   UNL     1      -8.062   7.587  68.014  1.00  0.00    -0.120 OA 
ENDBRANCH  21  24
ENDBRANCH   4  21
ENDBRANCH   3   4
TORSDOF 6
ENDMDL
MODEL      106
REMARK 921   NORMALIZED FREE ENERGY PREDICTED BY IDOCK:   -4.51 KCAL/MOL
REMARK 922        TOTAL FREE ENERGY PREDICTED BY IDOCK:   -7.29 KCAL/MOL
REMARK 923 INTER-LIGAND FREE ENERGY PREDICTED BY IDOCK:   -6.57 KCAL/MOL
REMARK 924 INTRA-LIGAND FREE ENERGY PREDICTED BY IDOCK:   -0.73 KCAL/MOL
REMARK 927      BINDING AFFINITY PREDICTED BY RF-SCORE:    0.00 PKD
ROOT
HETATM    1  O   UNL     1      -9.945  10.275  64.567  1.00  0.00    -0.339 OA 
HETATM    2  H   UNL     1     -10.581   9.818  64.028  1.00  0.00     0.000 HD 
HETATM    3  C   UNL     1     -10.229  10.219  65.956  1.00  0.00    -0.228 C  
ENDROOT
BRANCH   3   4
HETATM    4  C   UNL     1      -9.193  10.961  66.834  1.00  0.00    -0.161 C  
BRANCH   4   5
HETATM    5  O   UNL     1      -8.800  12.260  66.355  1.00  0.00    -0.172 OA 
BRANCH   5   6
HETATM    6  C   UNL     1      -9.751  13.298  66.577  1.00  0.00    -0.273 C  
HETATM    7  C   UNL     1     -11.379  14.685  65.483  1.00  0.00    -0.341 C  
HETATM    8  O   UNL     1     -10.364  13.675  65.332  1.00  0.00    -0.308 OA 
HETATM    9  H   UNL     1      -8.009  14.940  68.877  1.00  0.00     0.000 HD 
HETATM   10  C   UNL     1     -10.813  15.965  66.115  1.00  0.00    -0.208 C  
HETATM   11  O   UNL     1      -8.430  14.188  68.475  1.00  0.00    -0.162 OA 
HETATM   12  O   UNL     1      -9.818  16.609  65.305  1.00  0.00    -0.496 OA 
HETATM   13  C   UNL     1     -10.146  15.607  67.450  1.00  0.00    -0.251 C  
HETATM   14  H   UNL     1      -9.468  17.401  65.697  1.00  0.00     0.000 HD 
HETATM   15  H   UNL     1      -9.212  16.569  68.889  1.00  0.00     0.000 HD 
HETATM   16  O   UNL     1      -9.624  16.791  68.063  1.00  0.00    -0.228 OA 
HETATM   17  C   UNL     1      -9.063  14.528  67.234  1.00  0.00    -0.209 C  
BRANCH   7  18
HETATM   18  C   UNL     1     -11.990  14.954  64.105  1.00  0.00    -0.235 C  
HETATM   19  O   UNL     1     -11.773  16.313  63.735  1.00  0.00    -1.511 OA 
HETATM   20  H   UNL     1     -12.152  16.480  62.880  1.00  0.00     0.000 HD 
ENDBRANCH   7  18
ENDBRANCH   5   6
ENDBRANCH   4   5
BRANCH   4  21
HETATM   21  C   UNL     1      -9.692  11.076  68.306  1.00  0.00    -0.177 C  
HETATM   22  H   UNL     1      -9.072  10.530  70.122  1.00  0.00     0.000 HD 
HETATM   23  O   UNL     1      -8.768  10.461  69.225  1.00  0.00    -0.159 OA 
BRANCH  21  24
HETATM   24  C   UNL     1     -11.060  10.421  68.528  1.00  0.00    -0.266 C  
HETATM   25  H   UNL     1     -11.753   8.860  69.507  1.00  0.00     0.000 HD 
HETATM   26  C   UNL     1     -12.062  11.335  69.215  1.00  0.00    -0.303 C  
HETATM   27  O   UNL     1     -10.905   9.265  69.369  1.00  0.00    -0.223 OA 
HETATM   28  O   UNL     1     -11.786  12.392  69.773  1.00  0.00    -0.317 OA 
ENDBRANCH  21  24
ENDBRANCH   4  21
ENDBRANCH   3   4
TORSDOF 6
ENDMDL
MODEL      107
REMARK 921   NORMALIZED FREE ENERGY PREDICTED BY IDOCK:   -4.50 KCAL/MOL
REMARK 922        TOTAL FREE ENERGY PREDICTED BY IDOCK:   -7.28 KCAL/MOL
REMARK 923 INTER-LIGAND FREE ENERGY PREDICTED BY IDOCK:   -6.63 KCAL/MOL
REMARK 924 INTRA-LIGAND FREE ENERGY PREDICTED BY IDOCK:   -0.65 KCAL/MOL
REMARK 927      BINDING AFFINITY PREDICTED BY RF-SCORE:    0.00 PKD
ROOT
HETATM    1  O   UNL     1     -13.128  14.778  69.752  1.00  0.00    -0.479 OA 
HETATM    2  H   UNL     1     -13.074  14.949  70.685  1.00  0.00     0.000 HD 
HETATM    3  C   UNL     1     -11.864  14.679  69.115  1.00  0.00    -0.312 C  
ENDROOT
BRANCH   3   4
HETATM    4  C   UNL     1     -11.952  14.401  67.596  1.00  0.00    -0.343 C  
BRANCH   4   5
HETATM    5  O   UNL     1     -11.265  15.347  66.757  1.00  0.00    -0.298 OA 
BRANCH   5   6
HETATM    6  C   UNL     1     -10.173  16.021  67.378  1.00  0.00    -0.273 C  
HETATM    7  C   UNL     1      -9.254  18.196  67.820  1.00  0.00    -0.263 C  
HETATM    8  O   UNL     1     -10.295  17.440  67.174  1.00  0.00    -0.317 OA 
HETATM    9  H   UNL     1      -7.846  13.777  66.626  1.00  0.00     0.000 HD 
HETATM   10  C   UNL     1      -7.862  17.784  67.321  1.00  0.00    -0.211 C  
HETATM   11  O   UNL     1      -8.671  14.092  66.978  1.00  0.00    -0.219 OA 
HETATM   12  O   UNL     1      -7.654  18.053  65.925  1.00  0.00    -0.480 OA 
HETATM   13  C   UNL     1      -7.691  16.273  67.519  1.00  0.00    -0.146 C  
HETATM   14  H   UNL     1      -6.792  17.798  65.616  1.00  0.00     0.000 HD 
HETATM   15  H   UNL     1      -6.285  14.934  67.195  1.00  0.00     0.000 HD 
HETATM   16  O   UNL     1      -6.391  15.870  67.072  1.00  0.00    -0.309 OA 
HETATM   17  C   UNL     1      -8.823  15.507  66.802  1.00  0.00    -0.265 C  
BRANCH   7  18
HETATM   18  C   UNL     1      -9.528  19.683  67.579  1.00  0.00    -0.331 C  
HETATM   19  O   UNL     1      -9.640  19.935  66.180  1.00  0.00    -0.398 OA 
HETATM   20  H   UNL     1      -9.810  20.857  66.030  1.00  0.00     0.000 HD 
ENDBRANCH   7  18
ENDBRANCH   5   6
ENDBRANCH   4   5
BRANCH   4  21
HETATM   21  C   UNL     1     -11.465  12.958  67.265  1.00  0.00    -0.336 C  
HETATM   22  H   UNL     1     -12.114  11.383  66.226  1.00  0.00     0.000 HD 
HETATM   23  O   UNL     1     -12.410  12.263  66.427  1.00  0.00    -0.531 OA 
BRANCH  21  24
HETATM   24  C   UNL     1     -11.246  12.098  68.514  1.00  0.00    -0.260 C  
HETATM   25  H   UNL     1     -12.253  10.718  69.493  1.00  0.00     0.000 HD 
HETATM   26  C   UNL     1     -10.034  11.186  68.414  1.00  0.00    -0.187 C  
HETATM   27  O   UNL     1     -12.389  11.251  68.719  1.00  0.00    -0.518 OA 
HETATM   28  O   UNL     1      -9.417  10.944  67.381  1.00  0.00    -0.155 OA 
ENDBRANCH  21  24
ENDBRANCH   4  21
ENDBRANCH   3   4
TORSDOF 6
ENDMDL
MODEL      108
REMARK 921   NORMALIZED FREE ENERGY PREDICTED BY IDOCK:   -4.47 KCAL/MOL
REMARK 922        TOTAL FREE ENERGY PREDICTED BY IDOCK:   -7.23 KCAL/MOL
REMARK 923 INTER-LIGAND FREE ENERGY PREDICTED BY IDOCK:   -6.33 KCAL/MOL
REMARK 924 INTRA-LIGAND FREE ENERGY PREDICTED BY IDOCK:   -0.90 KCAL/MOL
REMARK 927      BINDING AFFINITY PREDICTED BY RF-SCORE:    0.00 PKD
ROOT
HETATM    1  O   UNL     1     -11.586  16.130  63.863  1.00  0.00    -1.369 OA 
HETATM    2  H   UNL     1     -11.210  16.345  63.017  1.00  0.00     0.000 HD 
HETATM    3  C   UNL     1     -10.761  15.293  64.658  1.00  0.00    -0.200 C  
ENDROOT
BRANCH   3   4
HETATM    4  C   UNL     1     -11.372  14.942  66.035  1.00  0.00    -0.306 C  
BRANCH   4   5
HETATM    5  O   UNL     1     -11.628  13.544  66.256  1.00  0.00    -0.320 OA 
BRANCH   5   6
HETATM    6  C   UNL     1     -10.468  12.716  66.286  1.00  0.00    -0.251 C  
HETATM    7  C   UNL     1      -9.168  11.176  64.979  1.00  0.00    -0.170 C  
HETATM    8  O   UNL     1     -10.350  11.996  65.047  1.00  0.00    -0.263 OA 
HETATM    9  H   UNL     1     -10.721  11.801  69.467  1.00  0.00     0.000 HD 
HETATM   10  C   UNL     1      -9.134  10.139  66.111  1.00  0.00    -0.155 C  
HETATM   11  O   UNL     1     -10.674  12.407  68.736  1.00  0.00    -0.230 OA 
HETATM   12  O   UNL     1     -10.207   9.186  66.045  1.00  0.00    -0.332 OA 
HETATM   13  C   UNL     1      -9.260  10.867  67.456  1.00  0.00    -0.147 C  
HETATM   14  H   UNL     1     -10.186   8.544  66.745  1.00  0.00     0.000 HD 
HETATM   15  H   UNL     1      -9.294  10.368  69.359  1.00  0.00     0.000 HD 
HETATM   16  O   UNL     1      -9.216   9.917  68.526  1.00  0.00    -0.132 OA 
HETATM   17  C   UNL     1     -10.544  11.724  67.481  1.00  0.00    -0.214 C  
BRANCH   7  18
HETATM   18  C   UNL     1      -9.128  10.513  63.600  1.00  0.00    -0.239 C  
HETATM   19  O   UNL     1     -10.438  10.476  63.041  1.00  0.00    -0.578 OA 
HETATM   20  H   UNL     1     -10.413  10.065  62.185  1.00  0.00     0.000 HD 
ENDBRANCH   7  18
ENDBRANCH   5   6
ENDBRANCH   4   5
BRANCH   4  21
HETATM   21  C   UNL     1     -10.492  15.502  67.193  1.00  0.00    -0.286 C  
HETATM   22  H   UNL     1     -10.667  16.831  68.672  1.00  0.00     0.000 HD 
HETATM   23  O   UNL     1     -11.204  16.490  67.966  1.00  0.00    -0.314 OA 
BRANCH  21  24
HETATM   24  C   UNL     1      -9.197  16.157  66.700  1.00  0.00    -0.246 C  
HETATM   25  H   UNL     1      -8.247  17.853  67.010  1.00  0.00     0.000 HD 
HETATM   26  C   UNL     1      -7.949  15.360  67.042  1.00  0.00    -0.224 C  
HETATM   27  O   UNL     1      -9.049  17.448  67.316  1.00  0.00    -0.232 OA 
HETATM   28  O   UNL     1      -7.905  14.425  67.835  1.00  0.00    -0.124 OA 
ENDBRANCH  21  24
ENDBRANCH   4  21
ENDBRANCH   3   4
TORSDOF 6
ENDMDL
MODEL      109
REMARK 921   NORMALIZED FREE ENERGY PREDICTED BY IDOCK:   -4.45 KCAL/MOL
REMARK 922        TOTAL FREE ENERGY PREDICTED BY IDOCK:   -7.22 KCAL/MOL
REMARK 923 INTER-LIGAND FREE ENERGY PREDICTED BY IDOCK:   -6.33 KCAL/MOL
REMARK 924 INTRA-LIGAND FREE ENERGY PREDICTED BY IDOCK:   -0.88 KCAL/MOL
REMARK 927      BINDING AFFINITY PREDICTED BY RF-SCORE:    0.00 PKD
ROOT
HETATM    1  O   UNL     1     -12.468  14.886  63.911  1.00  0.00    -1.009 OA 
HETATM    2  H   UNL     1     -13.253  15.245  63.515  1.00  0.00     0.000 HD 
HETATM    3  C   UNL     1     -12.713  14.155  65.102  1.00  0.00    -0.364 C  
ENDROOT
BRANCH   3   4
HETATM    4  C   UNL     1     -11.434  13.571  65.748  1.00  0.00    -0.315 C  
BRANCH   4   5
HETATM    5  O   UNL     1     -11.052  14.163  67.002  1.00  0.00    -0.295 OA 
BRANCH   5   6
HETATM    6  C   UNL     1      -9.741  14.721  67.031  1.00  0.00    -0.237 C  
HETATM    7  C   UNL     1      -7.449  14.228  67.556  1.00  0.00    -0.182 C  
HETATM    8  O   UNL     1      -8.809  13.755  67.547  1.00  0.00    -0.176 OA 
HETATM    9  H   UNL     1     -10.637  17.780  67.957  1.00  0.00     0.000 HD 
HETATM   10  C   UNL     1      -7.299  15.501  68.403  1.00  0.00    -0.115 C  
HETATM   11  O   UNL     1     -10.649  16.993  67.424  1.00  0.00    -0.328 OA 
HETATM   12  O   UNL     1      -7.592  15.297  69.794  1.00  0.00    -0.203 OA 
HETATM   13  C   UNL     1      -8.280  16.560  67.886  1.00  0.00    -0.168 C  
HETATM   14  H   UNL     1      -7.499  16.084  70.318  1.00  0.00     0.000 HD 
HETATM   15  H   UNL     1      -8.752  18.417  68.334  1.00  0.00     0.000 HD 
HETATM   16  O   UNL     1      -8.145  17.761  68.654  1.00  0.00    -0.290 OA 
HETATM   17  C   UNL     1      -9.722  16.009  67.903  1.00  0.00    -0.220 C  
BRANCH   7  18
HETATM   18  C   UNL     1      -6.555  13.096  68.068  1.00  0.00    -0.124 C  
HETATM   19  O   UNL     1      -7.092  12.562  69.275  1.00  0.00    -0.278 OA 
HETATM   20  H   UNL     1      -6.538  11.859  69.593  1.00  0.00     0.000 HD 
ENDBRANCH   7  18
ENDBRANCH   5   6
ENDBRANCH   4   5
BRANCH   4  21
HETATM   21  C   UNL     1     -11.552  12.025  65.913  1.00  0.00    -0.300 C  
HETATM   22  H   UNL     1     -11.925  10.721  67.377  1.00  0.00     0.000 HD 
HETATM   23  O   UNL     1     -11.853  11.663  67.276  1.00  0.00    -0.609 OA 
BRANCH  21  24
HETATM   24  C   UNL     1     -10.273  11.280  65.517  1.00  0.00    -0.260 C  
HETATM   25  H   UNL     1      -9.556   9.460  65.732  1.00  0.00     0.000 HD 
HETATM   26  C   UNL     1     -10.048  11.224  64.014  1.00  0.00    -0.329 C  
HETATM   27  O   UNL     1     -10.348   9.921  65.978  1.00  0.00    -0.224 OA 
HETATM   28  O   UNL     1     -10.888  11.505  63.165  1.00  0.00    -0.306 OA 
ENDBRANCH  21  24
ENDBRANCH   4  21
ENDBRANCH   3   4
TORSDOF 6
ENDMDL
MODEL      110
REMARK 921   NORMALIZED FREE ENERGY PREDICTED BY IDOCK:   -4.44 KCAL/MOL
REMARK 922        TOTAL FREE ENERGY PREDICTED BY IDOCK:   -7.20 KCAL/MOL
REMARK 923 INTER-LIGAND FREE ENERGY PREDICTED BY IDOCK:   -6.07 KCAL/MOL
REMARK 924 INTRA-LIGAND FREE ENERGY PREDICTED BY IDOCK:   -1.13 KCAL/MOL
REMARK 927      BINDING AFFINITY PREDICTED BY RF-SCORE:    0.00 PKD
ROOT
HETATM    1  O   UNL     1     -12.454  14.359  67.552  1.00  0.00    -0.599 OA 
HETATM    2  H   UNL     1     -13.351  14.204  67.824  1.00  0.00     0.000 HD 
HETATM    3  C   UNL     1     -12.218  14.087  66.180  1.00  0.00    -0.465 C  
ENDROOT
BRANCH   3   4
HETATM    4  C   UNL     1     -10.757  14.339  65.737  1.00  0.00    -0.305 C  
BRANCH   4   5
HETATM    5  O   UNL     1      -9.881  14.838  66.764  1.00  0.00    -0.241 OA 
BRANCH   5   6
HETATM    6  C   UNL     1      -9.616  16.238  66.701  1.00  0.00    -0.246 C  
HETATM    7  C   UNL     1      -7.898  17.853  66.242  1.00  0.00    -0.261 C  
HETATM    8  O   UNL     1      -8.232  16.458  66.377  1.00  0.00    -0.282 OA 
HETATM    9  H   UNL     1     -11.555  17.119  69.246  1.00  0.00     0.000 HD 
HETATM   10  C   UNL     1      -8.191  18.632  67.532  1.00  0.00    -0.253 C  
HETATM   11  O   UNL     1     -11.340  16.706  68.418  1.00  0.00    -0.321 OA 
HETATM   12  O   UNL     1      -7.398  18.204  68.650  1.00  0.00    -0.271 OA 
HETATM   13  C   UNL     1      -9.662  18.421  67.915  1.00  0.00    -0.308 C  
HETATM   14  H   UNL     1      -7.579  18.687  69.448  1.00  0.00     0.000 HD 
HETATM   15  H   UNL     1     -10.870  19.023  69.347  1.00  0.00     0.000 HD 
HETATM   16  O   UNL     1      -9.960  19.153  69.110  1.00  0.00    -0.400 OA 
HETATM   17  C   UNL     1      -9.967  16.915  68.056  1.00  0.00    -0.279 C  
BRANCH   7  18
HETATM   18  C   UNL     1      -6.423  17.951  65.841  1.00  0.00    -0.259 C  
HETATM   19  O   UNL     1      -5.859  19.153  66.359  1.00  0.00    -0.161 OA 
HETATM   20  H   UNL     1      -4.945  19.214  66.111  1.00  0.00     0.000 HD 
ENDBRANCH   7  18
ENDBRANCH   5   6
ENDBRANCH   4   5
BRANCH   4  21
HETATM   21  C   UNL     1     -10.140  13.056  65.102  1.00  0.00    -0.221 C  
HETATM   22  H   UNL     1     -10.347  11.992  63.426  1.00  0.00     0.000 HD 
HETATM   23  O   UNL     1     -10.723  12.774  63.813  1.00  0.00    -0.413 OA 
BRANCH  21  24
HETATM   24  C   UNL     1     -10.327  11.807  65.969  1.00  0.00    -0.239 C  
HETATM   25  H   UNL     1     -10.719   9.902  65.664  1.00  0.00     0.000 HD 
HETATM   26  C   UNL     1      -9.098  11.453  66.792  1.00  0.00    -0.176 C  
HETATM   27  O   UNL     1     -10.603  10.676  65.126  1.00  0.00    -0.242 OA 
HETATM   28  O   UNL     1      -7.980  11.931  66.629  1.00  0.00    -0.132 OA 
ENDBRANCH  21  24
ENDBRANCH   4  21
ENDBRANCH   3   4
TORSDOF 6
ENDMDL
MODEL      111
REMARK 921   NORMALIZED FREE ENERGY PREDICTED BY IDOCK:   -4.43 KCAL/MOL
REMARK 922        TOTAL FREE ENERGY PREDICTED BY IDOCK:   -7.19 KCAL/MOL
REMARK 923 INTER-LIGAND FREE ENERGY PREDICTED BY IDOCK:   -6.31 KCAL/MOL
REMARK 924 INTRA-LIGAND FREE ENERGY PREDICTED BY IDOCK:   -0.88 KCAL/MOL
REMARK 927      BINDING AFFINITY PREDICTED BY RF-SCORE:    0.00 PKD
ROOT
HETATM    1  O   UNL     1      -7.437  12.176  66.780  1.00  0.00    -0.352 OA 
HETATM    2  H   UNL     1      -6.802  12.843  66.546  1.00  0.00     0.000 HD 
HETATM    3  C   UNL     1      -8.658  12.700  67.276  1.00  0.00    -0.196 C  
ENDROOT
BRANCH   3   4
HETATM    4  C   UNL     1      -9.693  11.614  67.656  1.00  0.00    -0.180 C  
BRANCH   4   5
HETATM    5  O   UNL     1      -9.599  11.120  69.005  1.00  0.00    -0.175 OA 
BRANCH   5   6
HETATM    6  C   UNL     1     -10.623  10.204  69.384  1.00  0.00    -0.237 C  
HETATM    7  C   UNL     1     -12.493   9.911  70.863  1.00  0.00    -0.307 C  
HETATM    8  O   UNL     1     -11.400  10.758  70.460  1.00  0.00    -0.307 OA 
HETATM    9  H   UNL     1      -8.826   7.437  69.028  1.00  0.00     0.000 HD 
HETATM   10  C   UNL     1     -11.998   8.532  71.324  1.00  0.00    -0.294 C  
HETATM   11  O   UNL     1      -9.207   8.267  68.766  1.00  0.00    -0.144 OA 
HETATM   12  O   UNL     1     -11.167   8.586  72.494  1.00  0.00    -0.357 OA 
HETATM   13  C   UNL     1     -11.160   7.905  70.203  1.00  0.00    -0.201 C  
HETATM   14  H   UNL     1     -10.861   7.733  72.779  1.00  0.00     0.000 HD 
HETATM   15  H   UNL     1     -10.183   6.222  69.914  1.00  0.00     0.000 HD 
HETATM   16  O   UNL     1     -10.701   6.610  70.609  1.00  0.00    -0.223 OA 
HETATM   17  C   UNL     1     -10.000   8.845  69.812  1.00  0.00    -0.191 C  
BRANCH   7  18
HETATM   18  C   UNL     1     -13.271  10.633  71.966  1.00  0.00    -0.368 C  
HETATM   19  O   UNL     1     -14.003   9.688  72.742  1.00  0.00    -0.716 OA 
HETATM   20  H   UNL     1     -14.486  10.136  73.426  1.00  0.00     0.000 HD 
ENDBRANCH   7  18
ENDBRANCH   5   6
ENDBRANCH   4   5
BRANCH   4  21
HETATM   21  C   UNL     1     -11.145  12.109  67.381  1.00  0.00    -0.276 C  
HETATM   22  H   UNL     1     -12.534  11.898  65.964  1.00  0.00     0.000 HD 
HETATM   23  O   UNL     1     -11.649  11.595  66.132  1.00  0.00    -0.390 OA 
BRANCH  21  24
HETATM   24  C   UNL     1     -11.257  13.636  67.324  1.00  0.00    -0.309 C  
HETATM   25  H   UNL     1     -12.380  14.951  66.383  1.00  0.00     0.000 HD 
HETATM   26  C   UNL     1     -11.589  14.269  68.666  1.00  0.00    -0.317 C  
HETATM   27  O   UNL     1     -12.311  14.005  66.419  1.00  0.00    -0.460 OA 
HETATM   28  O   UNL     1     -11.978  13.657  69.656  1.00  0.00    -0.309 OA 
ENDBRANCH  21  24
ENDBRANCH   4  21
ENDBRANCH   3   4
TORSDOF 6
ENDMDL
MODEL      112
REMARK 921   NORMALIZED FREE ENERGY PREDICTED BY IDOCK:   -4.42 KCAL/MOL
REMARK 922        TOTAL FREE ENERGY PREDICTED BY IDOCK:   -7.17 KCAL/MOL
REMARK 923 INTER-LIGAND FREE ENERGY PREDICTED BY IDOCK:   -6.51 KCAL/MOL
REMARK 924 INTRA-LIGAND FREE ENERGY PREDICTED BY IDOCK:   -0.66 KCAL/MOL
REMARK 927      BINDING AFFINITY PREDICTED BY RF-SCORE:    0.00 PKD
ROOT
HETATM    1  O   UNL     1     -11.151   7.499  67.506  1.00  0.00    -0.529 OA 
HETATM    2  H   UNL     1     -10.899   6.704  67.052  1.00  0.00     0.000 HD 
HETATM    3  C   UNL     1     -10.052   8.316  67.880  1.00  0.00    -0.202 C  
ENDROOT
BRANCH   3   4
HETATM    4  C   UNL     1     -10.461   9.611  68.619  1.00  0.00    -0.210 C  
BRANCH   4   5
HETATM    5  O   UNL     1     -11.382  10.460  67.910  1.00  0.00    -0.324 OA 
BRANCH   5   6
HETATM    6  C   UNL     1     -10.794  11.596  67.283  1.00  0.00    -0.256 C  
HETATM    7  C   UNL     1     -10.690  13.995  67.352  1.00  0.00    -0.283 C  
HETATM    8  O   UNL     1     -11.282  12.801  67.898  1.00  0.00    -0.244 OA 
HETATM    9  H   UNL     1     -10.847  10.405  64.185  1.00  0.00     0.000 HD 
HETATM   10  C   UNL     1     -10.951  14.117  65.843  1.00  0.00    -0.297 C  
HETATM   11  O   UNL     1     -10.652  10.404  65.115  1.00  0.00    -0.191 OA 
HETATM   12  O   UNL     1     -12.343  14.253  65.515  1.00  0.00    -0.416 OA 
HETATM   13  C   UNL     1     -10.446  12.847  65.147  1.00  0.00    -0.309 C  
HETATM   14  H   UNL     1     -12.505  14.329  64.582  1.00  0.00     0.000 HD 
HETATM   15  H   UNL     1     -10.355  12.162  63.305  1.00  0.00     0.000 HD 
HETATM   16  O   UNL     1     -10.668  12.948  63.736  1.00  0.00    -0.397 OA 
HETATM   17  C   UNL     1     -11.115  11.599  65.761  1.00  0.00    -0.256 C  
BRANCH   7  18
HETATM   18  C   UNL     1     -11.243  15.196  68.123  1.00  0.00    -0.320 C  
HETATM   19  O   UNL     1     -12.523  14.877  68.664  1.00  0.00    -0.582 OA 
HETATM   20  H   UNL     1     -12.866  15.622  69.143  1.00  0.00     0.000 HD 
ENDBRANCH   7  18
ENDBRANCH   5   6
ENDBRANCH   4   5
BRANCH   4  21
HETATM   21  C   UNL     1     -11.031   9.287  70.033  1.00  0.00    -0.229 C  
HETATM   22  H   UNL     1     -11.742  10.292  71.605  1.00  0.00     0.000 HD 
HETATM   23  O   UNL     1     -11.395  10.489  70.743  1.00  0.00    -0.327 OA 
BRANCH  21  24
HETATM   24  C   UNL     1     -10.043   8.519  70.917  1.00  0.00    -0.201 C  
HETATM   25  H   UNL     1      -8.396   8.934  71.913  1.00  0.00     0.000 HD 
HETATM   26  C   UNL     1     -10.682   7.924  72.162  1.00  0.00    -0.257 C  
HETATM   27  O   UNL     1      -9.009   9.410  71.366  1.00  0.00    -0.284 OA 
HETATM   28  O   UNL     1     -11.798   8.207  72.585  1.00  0.00    -0.395 OA 
ENDBRANCH  21  24
ENDBRANCH   4  21
ENDBRANCH   3   4
TORSDOF 6
ENDMDL
MODEL      113
REMARK 921   NORMALIZED FREE ENERGY PREDICTED BY IDOCK:   -4.39 KCAL/MOL
REMARK 922        TOTAL FREE ENERGY PREDICTED BY IDOCK:   -7.14 KCAL/MOL
REMARK 923 INTER-LIGAND FREE ENERGY PREDICTED BY IDOCK:   -6.36 KCAL/MOL
REMARK 924 INTRA-LIGAND FREE ENERGY PREDICTED BY IDOCK:   -0.77 KCAL/MOL
REMARK 927      BINDING AFFINITY PREDICTED BY RF-SCORE:    0.00 PKD
ROOT
HETATM    1  O   UNL     1     -11.035  12.657  69.123  1.00  0.00    -0.363 OA 
HETATM    2  H   UNL     1     -11.547  13.253  69.658  1.00  0.00     0.000 HD 
HETATM    3  C   UNL     1     -11.779  11.555  68.627  1.00  0.00    -0.326 C  
ENDROOT
BRANCH   3   4
HETATM    4  C   UNL     1     -10.947  10.584  67.756  1.00  0.00    -0.313 C  
BRANCH   4   5
HETATM    5  O   UNL     1      -9.681  11.096  67.300  1.00  0.00    -0.165 OA 
BRANCH   5   6
HETATM    6  C   UNL     1      -9.714  11.736  66.027  1.00  0.00    -0.232 C  
HETATM    7  C   UNL     1     -10.950  13.304  64.691  1.00  0.00    -0.370 C  
HETATM    8  O   UNL     1     -10.875  12.579  65.933  1.00  0.00    -0.259 OA 
HETATM    9  H   UNL     1      -8.589   9.159  64.264  1.00  0.00     0.000 HD 
HETATM   10  C   UNL     1     -10.979  12.355  63.483  1.00  0.00    -0.450 C  
HETATM   11  O   UNL     1      -8.583   9.807  64.958  1.00  0.00    -0.142 OA 
HETATM   12  O   UNL     1     -12.140  11.512  63.449  1.00  0.00    -0.755 OA 
HETATM   13  C   UNL     1      -9.754  11.434  63.546  1.00  0.00    -0.339 C  
HETATM   14  H   UNL     1     -12.158  10.925  62.702  1.00  0.00     0.000 HD 
HETATM   15  H   UNL     1      -8.996   9.980  62.458  1.00  0.00     0.000 HD 
HETATM   16  O   UNL     1      -9.755  10.550  62.419  1.00  0.00    -0.214 OA 
HETATM   17  C   UNL     1      -9.724  10.675  64.890  1.00  0.00    -0.284 C  
BRANCH   7  18
HETATM   18  C   UNL     1     -12.189  14.201  64.738  1.00  0.00    -0.440 C  
HETATM   19  O   UNL     1     -12.748  14.189  66.049  1.00  0.00    -0.469 OA 
HETATM   20  H   UNL     1     -13.517  14.745  66.079  1.00  0.00     0.000 HD 
ENDBRANCH   7  18
ENDBRANCH   5   6
ENDBRANCH   4   5
BRANCH   4  21
HETATM   21  C   UNL     1     -10.727   9.227  68.490  1.00  0.00    -0.142 C  
HETATM   22  H   UNL     1     -10.303   8.599  70.337  1.00  0.00     0.000 HD 
HETATM   23  O   UNL     1     -10.437   9.426  69.889  1.00  0.00    -0.206 OA 
BRANCH  21  24
HETATM   24  C   UNL     1      -9.578   8.404  67.900  1.00  0.00    -0.156 C  
HETATM   25  H   UNL     1      -8.098   7.309  68.600  1.00  0.00     0.000 HD 
HETATM   26  C   UNL     1     -10.046   7.259  67.016  1.00  0.00    -0.246 C  
HETATM   27  O   UNL     1      -8.811   7.819  68.966  1.00  0.00    -0.138 OA 
HETATM   28  O   UNL     1     -11.199   6.845  66.951  1.00  0.00    -0.353 OA 
ENDBRANCH  21  24
ENDBRANCH   4  21
ENDBRANCH   3   4
TORSDOF 6
ENDMDL
MODEL      114
REMARK 921   NORMALIZED FREE ENERGY PREDICTED BY IDOCK:   -4.38 KCAL/MOL
REMARK 922        TOTAL FREE ENERGY PREDICTED BY IDOCK:   -7.12 KCAL/MOL
REMARK 923 INTER-LIGAND FREE ENERGY PREDICTED BY IDOCK:   -5.93 KCAL/MOL
REMARK 924 INTRA-LIGAND FREE ENERGY PREDICTED BY IDOCK:   -1.19 KCAL/MOL
REMARK 927      BINDING AFFINITY PREDICTED BY RF-SCORE:    0.00 PKD
ROOT
HETATM    1  O   UNL     1      -7.721   9.400  67.115  1.00  0.00    -0.091 OA 
HETATM    2  H   UNL     1      -6.977   8.929  66.759  1.00  0.00     0.000 HD 
HETATM    3  C   UNL     1      -8.749   8.555  67.607  1.00  0.00    -0.136 C  
ENDROOT
BRANCH   3   4
HETATM    4  C   UNL     1      -9.961   9.322  68.188  1.00  0.00    -0.177 C  
BRANCH   4   5
HETATM    5  O   UNL     1      -9.697  10.071  69.388  1.00  0.00    -0.200 OA 
BRANCH   5   6
HETATM    6  C   UNL     1     -10.338   9.575  70.561  1.00  0.00    -0.288 C  
HETATM    7  C   UNL     1     -10.915   7.560  71.734  1.00  0.00    -0.234 C  
HETATM    8  O   UNL     1     -10.330   8.137  70.552  1.00  0.00    -0.198 OA 
HETATM    9  H   UNL     1     -12.738  11.865  70.692  1.00  0.00     0.000 HD 
HETATM   10  C   UNL     1     -12.374   8.004  71.919  1.00  0.00    -0.323 C  
HETATM   11  O   UNL     1     -11.846  11.540  70.643  1.00  0.00    -0.328 OA 
HETATM   12  O   UNL     1     -13.242   7.560  70.865  1.00  0.00    -0.588 OA 
HETATM   13  C   UNL     1     -12.428   9.537  71.932  1.00  0.00    -0.384 C  
HETATM   14  H   UNL     1     -14.145   7.835  70.979  1.00  0.00     0.000 HD 
HETATM   15  H   UNL     1     -13.813  10.921  72.126  1.00  0.00     0.000 HD 
HETATM   16  O   UNL     1     -13.780   9.972  72.117  1.00  0.00    -0.332 OA 
HETATM   17  C   UNL     1     -11.798  10.106  70.642  1.00  0.00    -0.342 C  
BRANCH   7  18
HETATM   18  C   UNL     1     -10.794   6.038  71.630  1.00  0.00    -0.260 C  
HETATM   19  O   UNL     1      -9.736   5.695  70.739  1.00  0.00    -0.166 OA 
HETATM   20  H   UNL     1      -9.660   4.751  70.674  1.00  0.00     0.000 HD 
ENDBRANCH   7  18
ENDBRANCH   5   6
ENDBRANCH   4   5
BRANCH   4  21
HETATM   21  C   UNL     1     -10.592  10.260  67.115  1.00  0.00    -0.260 C  
HETATM   22  H   UNL     1     -10.576  10.452  65.129  1.00  0.00     0.000 HD 
HETATM   23  O   UNL     1     -10.191   9.880  65.783  1.00  0.00    -0.265 OA 
BRANCH  21  24
HETATM   24  C   UNL     1     -10.208  11.731  67.304  1.00  0.00    -0.203 C  
HETATM   25  H   UNL     1      -8.804  12.938  66.633  1.00  0.00     0.000 HD 
HETATM   26  C   UNL     1     -11.294  12.700  66.863  1.00  0.00    -0.320 C  
HETATM   27  O   UNL     1      -9.042  12.026  66.516  1.00  0.00    -0.201 OA 
HETATM   28  O   UNL     1     -12.278  12.399  66.196  1.00  0.00    -0.635 OA 
ENDBRANCH  21  24
ENDBRANCH   4  21
ENDBRANCH   3   4
TORSDOF 6
ENDMDL
MODEL      115
REMARK 921   NORMALIZED FREE ENERGY PREDICTED BY IDOCK:   -4.37 KCAL/MOL
REMARK 922        TOTAL FREE ENERGY PREDICTED BY IDOCK:   -7.11 KCAL/MOL
REMARK 923 INTER-LIGAND FREE ENERGY PREDICTED BY IDOCK:   -6.25 KCAL/MOL
REMARK 924 INTRA-LIGAND FREE ENERGY PREDICTED BY IDOCK:   -0.85 KCAL/MOL
REMARK 927      BINDING AFFINITY PREDICTED BY RF-SCORE:    0.00 PKD
ROOT
HETATM    1  O   UNL     1     -14.155   9.344  70.740  1.00  0.00    -0.474 OA 
HETATM    2  H   UNL     1     -14.836   9.067  71.342  1.00  0.00     0.000 HD 
HETATM    3  C   UNL     1     -12.897   9.559  71.360  1.00  0.00    -0.358 C  
ENDROOT
BRANCH   3   4
HETATM    4  C   UNL     1     -11.788  10.009  70.380  1.00  0.00    -0.262 C  
BRANCH   4   5
HETATM    5  O   UNL     1     -11.453  11.408  70.431  1.00  0.00    -0.247 OA 
BRANCH   5   6
HETATM    6  C   UNL     1     -11.851  12.164  69.289  1.00  0.00    -0.313 C  
HETATM    7  C   UNL     1     -11.556  12.363  66.914  1.00  0.00    -0.370 C  
HETATM    8  O   UNL     1     -11.165  11.682  68.121  1.00  0.00    -0.223 OA 
HETATM    9  H   UNL     1     -12.022  15.109  70.810  1.00  0.00     0.000 HD 
HETATM   10  C   UNL     1     -11.291  13.873  67.005  1.00  0.00    -0.326 C  
HETATM   11  O   UNL     1     -12.207  14.187  70.675  1.00  0.00    -0.316 OA 
HETATM   12  O   UNL     1      -9.899  14.200  67.138  1.00  0.00    -0.243 OA 
HETATM   13  C   UNL     1     -12.005  14.429  68.244  1.00  0.00    -0.288 C  
HETATM   14  H   UNL     1      -9.734  15.135  67.195  1.00  0.00     0.000 HD 
HETATM   15  H   UNL     1     -12.224  16.184  69.105  1.00  0.00     0.000 HD 
HETATM   16  O   UNL     1     -11.781  15.840  68.339  1.00  0.00    -0.366 OA 
HETATM   17  C   UNL     1     -11.547  13.673  69.509  1.00  0.00    -0.301 C  
BRANCH   7  18
HETATM   18  C   UNL     1     -10.805  11.724  65.743  1.00  0.00    -0.291 C  
HETATM   19  O   UNL     1     -10.478  12.718  64.776  1.00  0.00    -0.306 OA 
HETATM   20  H   UNL     1     -10.012  12.322  64.049  1.00  0.00     0.000 HD 
ENDBRANCH   7  18
ENDBRANCH   5   6
ENDBRANCH   4   5
BRANCH   4  21
HETATM   21  C   UNL     1     -10.498   9.156  70.571  1.00  0.00    -0.236 C  
HETATM   22  H   UNL     1      -9.342   7.959  69.468  1.00  0.00     0.000 HD 
HETATM   23  O   UNL     1     -10.128   8.480  69.352  1.00  0.00    -0.193 OA 
BRANCH  21  24
HETATM   24  C   UNL     1     -10.641   8.086  71.659  1.00  0.00    -0.227 C  
HETATM   25  H   UNL     1     -10.677   6.119  71.732  1.00  0.00     0.000 HD 
HETATM   26  C   UNL     1      -9.537   8.135  72.703  1.00  0.00    -0.282 C  
HETATM   27  O   UNL     1     -10.588   6.781  71.057  1.00  0.00    -0.217 OA 
HETATM   28  O   UNL     1      -8.494   8.772  72.597  1.00  0.00    -0.413 OA 
ENDBRANCH  21  24
ENDBRANCH   4  21
ENDBRANCH   3   4
TORSDOF 6
ENDMDL
MODEL      116
REMARK 921   NORMALIZED FREE ENERGY PREDICTED BY IDOCK:   -4.37 KCAL/MOL
REMARK 922        TOTAL FREE ENERGY PREDICTED BY IDOCK:   -7.10 KCAL/MOL
REMARK 923 INTER-LIGAND FREE ENERGY PREDICTED BY IDOCK:   -5.88 KCAL/MOL
REMARK 924 INTRA-LIGAND FREE ENERGY PREDICTED BY IDOCK:   -1.22 KCAL/MOL
REMARK 927      BINDING AFFINITY PREDICTED BY RF-SCORE:    0.00 PKD
ROOT
HETATM    1  O   UNL     1      -9.326   9.907  67.935  1.00  0.00    -0.137 OA 
HETATM    2  H   UNL     1      -8.957   9.362  67.249  1.00  0.00     0.000 HD 
HETATM    3  C   UNL     1     -10.232   9.219  68.784  1.00  0.00    -0.205 C  
ENDROOT
BRANCH   3   4
HETATM    4  C   UNL     1     -10.833  10.105  69.900  1.00  0.00    -0.299 C  
BRANCH   4   5
HETATM    5  O   UNL     1     -12.138  10.643  69.623  1.00  0.00    -0.291 OA 
BRANCH   5   6
HETATM    6  C   UNL     1     -12.152  12.009  69.214  1.00  0.00    -0.190 C  
HETATM    7  C   UNL     1     -11.116  13.583  67.725  1.00  0.00    -0.268 C  
HETATM    8  O   UNL     1     -11.130  12.234  68.228  1.00  0.00    -0.210 OA 
HETATM    9  H   UNL     1     -12.799  13.306  72.200  1.00  0.00     0.000 HD 
HETATM   10  C   UNL     1     -10.894  14.605  68.850  1.00  0.00    -0.250 C  
HETATM   11  O   UNL     1     -12.932  12.737  71.451  1.00  0.00    -0.360 OA 
HETATM   12  O   UNL     1      -9.617  14.475  69.494  1.00  0.00    -0.413 OA 
HETATM   13  C   UNL     1     -11.966  14.397  69.927  1.00  0.00    -0.335 C  
HETATM   14  H   UNL     1      -9.479  15.107  70.190  1.00  0.00     0.000 HD 
HETATM   15  H   UNL     1     -12.449  15.223  71.647  1.00  0.00     0.000 HD 
HETATM   16  O   UNL     1     -11.784  15.351  70.980  1.00  0.00    -0.297 OA 
HETATM   17  C   UNL     1     -11.935  12.941  70.440  1.00  0.00    -0.249 C  
BRANCH   7  18
HETATM   18  C   UNL     1     -10.031  13.678  66.649  1.00  0.00    -0.283 C  
HETATM   19  O   UNL     1      -9.040  12.678  66.870  1.00  0.00    -0.208 OA 
HETATM   20  H   UNL     1      -8.367  12.736  66.202  1.00  0.00     0.000 HD 
ENDBRANCH   7  18
ENDBRANCH   5   6
ENDBRANCH   4   5
BRANCH   4  21
HETATM   21  C   UNL     1     -10.860   9.343  71.260  1.00  0.00    -0.361 C  
HETATM   22  H   UNL     1      -9.545   8.674  72.604  1.00  0.00     0.000 HD 
HETATM   23  O   UNL     1      -9.529   9.139  71.776  1.00  0.00    -0.312 OA 
BRANCH  21  24
HETATM   24  C   UNL     1     -11.527   7.967  71.163  1.00  0.00    -0.276 C  
HETATM   25  H   UNL     1     -11.140   6.145  71.800  1.00  0.00     0.000 HD 
HETATM   26  C   UNL     1     -12.914   7.923  71.786  1.00  0.00    -0.325 C  
HETATM   27  O   UNL     1     -10.727   6.997  71.861  1.00  0.00    -0.214 OA 
HETATM   28  O   UNL     1     -13.387   8.789  72.514  1.00  0.00    -0.399 OA 
ENDBRANCH  21  24
ENDBRANCH   4  21
ENDBRANCH   3   4
TORSDOF 6
ENDMDL
MODEL      117
REMARK 921   NORMALIZED FREE ENERGY PREDICTED BY IDOCK:   -4.37 KCAL/MOL
REMARK 922        TOTAL FREE ENERGY PREDICTED BY IDOCK:   -7.10 KCAL/MOL
REMARK 923 INTER-LIGAND FREE ENERGY PREDICTED BY IDOCK:   -6.12 KCAL/MOL
REMARK 924 INTRA-LIGAND FREE ENERGY PREDICTED BY IDOCK:   -0.99 KCAL/MOL
REMARK 927      BINDING AFFINITY PREDICTED BY RF-SCORE:    0.00 PKD
ROOT
HETATM    1  O   UNL     1     -12.742  14.168  67.393  1.00  0.00    -0.402 OA 
HETATM    2  H   UNL     1     -13.418  13.694  67.863  1.00  0.00     0.000 HD 
HETATM    3  C   UNL     1     -11.491  14.193  68.064  1.00  0.00    -0.312 C  
ENDROOT
BRANCH   3   4
HETATM    4  C   UNL     1     -10.390  14.964  67.300  1.00  0.00    -0.251 C  
BRANCH   4   5
HETATM    5  O   UNL     1      -9.281  15.409  68.102  1.00  0.00    -0.183 OA 
BRANCH   5   6
HETATM    6  C   UNL     1      -9.173  16.822  68.251  1.00  0.00    -0.227 C  
HETATM    7  C   UNL     1      -9.816  18.916  67.265  1.00  0.00    -0.320 C  
HETATM    8  O   UNL     1      -9.835  17.480  67.156  1.00  0.00    -0.278 OA 
HETATM    9  H   UNL     1      -6.068  16.858  69.422  1.00  0.00     0.000 HD 
HETATM   10  C   UNL     1      -8.381  19.461  67.320  1.00  0.00    -0.293 C  
HETATM   11  O   UNL     1      -6.981  16.600  69.385  1.00  0.00    -0.233 OA 
HETATM   12  O   UNL     1      -7.628  19.205  66.125  1.00  0.00    -0.267 OA 
HETATM   13  C   UNL     1      -7.637  18.781  68.476  1.00  0.00    -0.327 C  
HETATM   14  H   UNL     1      -6.740  19.542  66.159  1.00  0.00     0.000 HD 
HETATM   15  H   UNL     1      -5.838  18.865  69.270  1.00  0.00     0.000 HD 
HETATM   16  O   UNL     1      -6.299  19.286  68.554  1.00  0.00    -0.235 OA 
HETATM   17  C   UNL     1      -7.678  17.246  68.311  1.00  0.00    -0.234 C  
BRANCH   7  18
HETATM   18  C   UNL     1     -10.597  19.492  66.080  1.00  0.00    -0.487 C  
HETATM   19  O   UNL     1      -9.981  20.697  65.633  1.00  0.00    -0.519 OA 
HETATM   20  H   UNL     1     -10.465  21.054  64.898  1.00  0.00     0.000 HD 
ENDBRANCH   7  18
ENDBRANCH   5   6
ENDBRANCH   4   5
BRANCH   4  21
HETATM   21  C   UNL     1      -9.862  14.129  66.094  1.00  0.00    -0.308 C  
HETATM   22  H   UNL     1     -10.305  13.878  64.164  1.00  0.00     0.000 HD 
HETATM   23  O   UNL     1     -10.627  14.387  64.899  1.00  0.00    -0.405 OA 
BRANCH  21  24
HETATM   24  C   UNL     1      -9.906  12.618  66.345  1.00  0.00    -0.259 C  
HETATM   25  H   UNL     1     -10.068  10.992  65.248  1.00  0.00     0.000 HD 
HETATM   26  C   UNL     1      -8.649  12.080  67.010  1.00  0.00    -0.185 C  
HETATM   27  O   UNL     1     -10.041  11.928  65.092  1.00  0.00    -0.250 OA 
HETATM   28  O   UNL     1      -7.593  12.695  67.125  1.00  0.00    -0.139 OA 
ENDBRANCH  21  24
ENDBRANCH   4  21
ENDBRANCH   3   4
TORSDOF 6
ENDMDL
MODEL      118
REMARK 921   NORMALIZED FREE ENERGY PREDICTED BY IDOCK:   -4.37 KCAL/MOL
REMARK 922        TOTAL FREE ENERGY PREDICTED BY IDOCK:   -7.10 KCAL/MOL
REMARK 923 INTER-LIGAND FREE ENERGY PREDICTED BY IDOCK:   -6.19 KCAL/MOL
REMARK 924 INTRA-LIGAND FREE ENERGY PREDICTED BY IDOCK:   -0.90 KCAL/MOL
REMARK 927      BINDING AFFINITY PREDICTED BY RF-SCORE:    0.00 PKD
ROOT
HETATM    1  O   UNL     1      -7.036  13.679  66.951  1.00  0.00    -0.342 OA 
HETATM    2  H   UNL     1      -6.178  13.747  66.549  1.00  0.00     0.000 HD 
HETATM    3  C   UNL     1      -7.680  14.930  67.137  1.00  0.00    -0.142 C  
ENDROOT
BRANCH   3   4
HETATM    4  C   UNL     1      -9.077  14.820  67.791  1.00  0.00    -0.186 C  
BRANCH   4   5
HETATM    5  O   UNL     1      -9.714  16.074  68.096  1.00  0.00    -0.214 OA 
BRANCH   5   6
HETATM    6  C   UNL     1      -9.078  17.223  67.542  1.00  0.00    -0.223 C  
HETATM    7  C   UNL     1      -7.834  19.198  68.110  1.00  0.00    -0.300 C  
HETATM    8  O   UNL     1      -8.541  18.041  68.596  1.00  0.00    -0.303 OA 
HETATM    9  H   UNL     1     -11.274  17.750  65.109  1.00  0.00     0.000 HD 
HETATM   10  C   UNL     1      -8.740  20.097  67.255  1.00  0.00    -0.348 C  
HETATM   11  O   UNL     1     -10.656  17.251  65.631  1.00  0.00    -0.516 OA 
HETATM   12  O   UNL     1      -9.840  20.659  67.988  1.00  0.00    -0.259 OA 
HETATM   13  C   UNL     1      -9.337  19.260  66.117  1.00  0.00    -0.269 C  
HETATM   14  H   UNL     1     -10.400  21.216  67.459  1.00  0.00     0.000 HD 
HETATM   15  H   UNL     1     -10.544  19.567  64.593  1.00  0.00     0.000 HD 
HETATM   16  O   UNL     1     -10.174  20.085  65.298  1.00  0.00    -0.259 OA 
HETATM   17  C   UNL     1     -10.090  18.040  66.688  1.00  0.00    -0.372 C  
BRANCH   7  18
HETATM   18  C   UNL     1      -7.266  19.948  69.317  1.00  0.00    -0.206 C  
HETATM   19  O   UNL     1      -6.140  20.726  68.919  1.00  0.00    -0.340 OA 
HETATM   20  H   UNL     1      -5.787  21.192  69.668  1.00  0.00     0.000 HD 
ENDBRANCH   7  18
ENDBRANCH   5   6
ENDBRANCH   4   5
BRANCH   4  21
HETATM   21  C   UNL     1     -10.031  13.947  66.922  1.00  0.00    -0.264 C  
HETATM   22  H   UNL     1     -10.469  13.715  64.988  1.00  0.00     0.000 HD 
HETATM   23  O   UNL     1      -9.887  14.247  65.518  1.00  0.00    -0.315 OA 
BRANCH  21  24
HETATM   24  C   UNL     1     -11.509  14.136  67.278  1.00  0.00    -0.350 C  
HETATM   25  H   UNL     1     -13.227  14.094  66.317  1.00  0.00     0.000 HD 
HETATM   26  C   UNL     1     -12.019  13.128  68.295  1.00  0.00    -0.291 C  
HETATM   27  O   UNL     1     -12.311  13.977  66.095  1.00  0.00    -0.448 OA 
HETATM   28  O   UNL     1     -11.428  12.108  68.634  1.00  0.00    -0.246 OA 
ENDBRANCH  21  24
ENDBRANCH   4  21
ENDBRANCH   3   4
TORSDOF 6
ENDMDL
MODEL      119
REMARK 921   NORMALIZED FREE ENERGY PREDICTED BY IDOCK:   -4.34 KCAL/MOL
REMARK 922        TOTAL FREE ENERGY PREDICTED BY IDOCK:   -7.06 KCAL/MOL
REMARK 923 INTER-LIGAND FREE ENERGY PREDICTED BY IDOCK:   -7.66 KCAL/MOL
REMARK 924 INTRA-LIGAND FREE ENERGY PREDICTED BY IDOCK:    0.60 KCAL/MOL
REMARK 927      BINDING AFFINITY PREDICTED BY RF-SCORE:    0.00 PKD
ROOT
HETATM    1  O   UNL     1     -11.092  17.031  64.689  1.00  0.00    -0.997 OA 
HETATM    2  H   UNL     1     -11.479  17.813  65.065  1.00  0.00     0.000 HD 
HETATM    3  C   UNL     1     -10.834  16.009  65.638  1.00  0.00    -0.266 C  
ENDROOT
BRANCH   3   4
HETATM    4  C   UNL     1     -10.205  14.735  65.026  1.00  0.00    -0.344 C  
BRANCH   4   5
HETATM    5  O   UNL     1      -9.543  13.865  65.962  1.00  0.00    -0.264 OA 
BRANCH   5   6
HETATM    6  C   UNL     1      -9.421  14.384  67.284  1.00  0.00    -0.215 C  
HETATM    7  C   UNL     1     -10.682  15.018  69.228  1.00  0.00    -0.248 C  
HETATM    8  O   UNL     1     -10.725  14.547  67.868  1.00  0.00    -0.241 OA 
HETATM    9  H   UNL     1      -6.900  16.452  66.662  1.00  0.00     0.000 HD 
HETATM   10  C   UNL     1      -9.965  16.372  69.335  1.00  0.00    -0.214 C  
HETATM   11  O   UNL     1      -7.362  15.622  66.676  1.00  0.00    -0.132 OA 
HETATM   12  O   UNL     1     -10.638  17.430  68.635  1.00  0.00    -0.357 OA 
HETATM   13  C   UNL     1      -8.566  16.243  68.720  1.00  0.00    -0.240 C  
HETATM   14  H   UNL     1     -10.194  18.268  68.701  1.00  0.00     0.000 HD 
HETATM   15  H   UNL     1      -7.008  17.412  68.443  1.00  0.00     0.000 HD 
HETATM   16  O   UNL     1      -7.874  17.493  68.823  1.00  0.00    -0.267 OA 
HETATM   17  C   UNL     1      -8.666  15.743  67.262  1.00  0.00    -0.191 C  
BRANCH   7  18
HETATM   18  C   UNL     1     -12.119  15.094  69.750  1.00  0.00    -0.319 C  
HETATM   19  O   UNL     1     -12.205  16.056  70.798  1.00  0.00    -0.481 OA 
HETATM   20  H   UNL     1     -13.096  16.102  71.122  1.00  0.00     0.000 HD 
ENDBRANCH   7  18
ENDBRANCH   5   6
ENDBRANCH   4   5
BRANCH   4  21
HETATM   21  C   UNL     1     -11.263  13.926  64.218  1.00  0.00    -0.262 C  
HETATM   22  H   UNL     1     -13.089  14.218  63.467  1.00  0.00     0.000 HD 
HETATM   23  O   UNL     1     -12.444  14.712  63.960  1.00  0.00    -0.796 OA 
BRANCH  21  24
HETATM   24  C   UNL     1     -11.714  12.648  64.932  1.00  0.00    -0.353 C  
HETATM   25  H   UNL     1     -13.416  11.703  65.229  1.00  0.00     0.000 HD 
HETATM   26  C   UNL     1     -11.076  11.385  64.373  1.00  0.00    -0.259 C  
HETATM   27  O   UNL     1     -13.136  12.495  64.786  1.00  0.00    -0.853 OA 
HETATM   28  O   UNL     1     -10.460  11.317  63.314  1.00  0.00    -0.362 OA 
ENDBRANCH  21  24
ENDBRANCH   4  21
ENDBRANCH   3   4
TORSDOF 6
ENDMDL
MODEL      120
REMARK 921   NORMALIZED FREE ENERGY PREDICTED BY IDOCK:   -4.32 KCAL/MOL
REMARK 922        TOTAL FREE ENERGY PREDICTED BY IDOCK:   -7.04 KCAL/MOL
REMARK 923 INTER-LIGAND FREE ENERGY PREDICTED BY IDOCK:   -6.04 KCAL/MOL
REMARK 924 INTRA-LIGAND FREE ENERGY PREDICTED BY IDOCK:   -1.01 KCAL/MOL
REMARK 927      BINDING AFFINITY PREDICTED BY RF-SCORE:    0.00 PKD
ROOT
HETATM    1  O   UNL     1      -8.842  11.304  63.826  1.00  0.00    -0.389 OA 
HETATM    2  H   UNL     1      -8.495  11.238  62.944  1.00  0.00     0.000 HD 
HETATM    3  C   UNL     1      -9.486  12.540  64.095  1.00  0.00     0.400 C  
ENDROOT
BRANCH   3   4
HETATM    4  C   UNL     1     -10.051  12.648  65.531  1.00  0.00    -0.265 C  
BRANCH   4   5
HETATM    5  O   UNL     1      -9.423  13.637  66.367  1.00  0.00    -0.273 OA 
BRANCH   5   6
HETATM    6  C   UNL     1     -10.290  14.664  66.840  1.00  0.00    -0.264 C  
HETATM    7  C   UNL     1     -10.775  17.010  66.659  1.00  0.00    -0.092 C  
HETATM    8  O   UNL     1      -9.909  15.927  66.268  1.00  0.00    -0.262 OA 
HETATM    9  H   UNL     1     -10.573  13.536  69.949  1.00  0.00     0.000 HD 
HETATM   10  C   UNL     1     -10.800  17.192  68.183  1.00  0.00    -0.316 C  
HETATM   11  O   UNL     1     -10.603  13.491  69.000  1.00  0.00    -0.200 OA 
HETATM   12  O   UNL     1      -9.528  17.566  68.734  1.00  0.00    -0.279 OA 
HETATM   13  C   UNL     1     -11.201  15.863  68.836  1.00  0.00    -0.343 C  
HETATM   14  H   UNL     1      -9.543  17.679  69.677  1.00  0.00     0.000 HD 
HETATM   15  H   UNL     1     -11.493  15.193  70.663  1.00  0.00     0.000 HD 
HETATM   16  O   UNL     1     -11.244  16.016  70.259  1.00  0.00    -0.339 OA 
HETATM   17  C   UNL     1     -10.240  14.739  68.393  1.00  0.00    -0.224 C  
BRANCH   7  18
HETATM   18  C   UNL     1     -10.303  18.278  65.942  1.00  0.00    -0.284 C  
HETATM   19  O   UNL     1      -8.879  18.317  65.913  1.00  0.00    -0.501 OA 
HETATM   20  H   UNL     1      -8.586  19.104  65.468  1.00  0.00     0.000 HD 
ENDBRANCH   7  18
ENDBRANCH   5   6
ENDBRANCH   4   5
BRANCH   4  21
HETATM   21  C   UNL     1     -11.591  12.887  65.506  1.00  0.00    -0.358 C  
HETATM   22  H   UNL     1     -13.219  12.120  66.368  1.00  0.00     0.000 HD 
HETATM   23  O   UNL     1     -12.281  11.974  66.383  1.00  0.00    -0.551 OA 
BRANCH  21  24
HETATM   24  C   UNL     1     -12.200  12.724  64.109  1.00  0.00    -0.429 C  
HETATM   25  H   UNL     1     -13.811  11.890  63.343  1.00  0.00     0.000 HD 
HETATM   26  C   UNL     1     -12.528  14.047  63.434  1.00  0.00     0.376 C  
HETATM   27  O   UNL     1     -13.433  11.991  64.208  1.00  0.00    -0.654 OA 
HETATM   28  O   UNL     1     -12.554  15.137  63.996  1.00  0.00    -0.791 OA 
ENDBRANCH  21  24
ENDBRANCH   4  21
ENDBRANCH   3   4
TORSDOF 6
ENDMDL
MODEL      121
REMARK 921   NORMALIZED FREE ENERGY PREDICTED BY IDOCK:   -4.31 KCAL/MOL
REMARK 922        TOTAL FREE ENERGY PREDICTED BY IDOCK:   -7.03 KCAL/MOL
REMARK 923 INTER-LIGAND FREE ENERGY PREDICTED BY IDOCK:   -6.29 KCAL/MOL
REMARK 924 INTRA-LIGAND FREE ENERGY PREDICTED BY IDOCK:   -0.74 KCAL/MOL
REMARK 927      BINDING AFFINITY PREDICTED BY RF-SCORE:    0.00 PKD
ROOT
HETATM    1  O   UNL     1     -11.367   5.325  65.912  1.00  0.00    -0.793 OA 
HETATM    2  H   UNL     1     -11.589   4.449  65.617  1.00  0.00     0.000 HD 
HETATM    3  C   UNL     1     -10.365   5.352  66.916  1.00  0.00    -0.260 C  
ENDROOT
BRANCH   3   4
HETATM    4  C   UNL     1     -10.003   6.778  67.395  1.00  0.00    -0.148 C  
BRANCH   4   5
HETATM    5  O   UNL     1     -10.858   7.827  66.907  1.00  0.00    -0.311 OA 
BRANCH   5   6
HETATM    6  C   UNL     1     -10.408   9.150  67.186  1.00  0.00    -0.267 C  
HETATM    7  C   UNL     1     -10.851  11.091  68.531  1.00  0.00    -0.213 C  
HETATM    8  O   UNL     1     -11.273   9.766  68.156  1.00  0.00    -0.163 OA 
HETATM    9  H   UNL     1      -9.504   9.920  64.086  1.00  0.00     0.000 HD 
HETATM   10  C   UNL     1     -10.788  12.030  67.317  1.00  0.00    -0.246 C  
HETATM   11  O   UNL     1      -9.526   9.404  64.884  1.00  0.00    -0.229 OA 
HETATM   12  O   UNL     1     -12.066  12.248  66.699  1.00  0.00    -0.612 OA 
HETATM   13  C   UNL     1      -9.874  11.407  66.255  1.00  0.00    -0.218 C  
HETATM   14  H   UNL     1     -12.028  12.830  65.948  1.00  0.00     0.000 HD 
HETATM   15  H   UNL     1      -9.224  11.891  64.461  1.00  0.00     0.000 HD 
HETATM   16  O   UNL     1      -9.791  12.276  65.119  1.00  0.00    -0.241 OA 
HETATM   17  C   UNL     1     -10.373   9.995  65.881  1.00  0.00    -0.132 C  
BRANCH   7  18
HETATM   18  C   UNL     1     -11.813  11.611  69.603  1.00  0.00    -0.352 C  
HETATM   19  O   UNL     1     -11.307  12.818  70.164  1.00  0.00    -0.505 OA 
HETATM   20  H   UNL     1     -11.903  13.141  70.829  1.00  0.00     0.000 HD 
ENDBRANCH   7  18
ENDBRANCH   5   6
ENDBRANCH   4   5
BRANCH   4  21
HETATM   21  C   UNL     1      -9.935   6.841  68.951  1.00  0.00    -0.155 C  
HETATM   22  H   UNL     1      -8.623   6.408  70.391  1.00  0.00     0.000 HD 
HETATM   23  O   UNL     1      -8.664   6.370  69.443  1.00  0.00    -0.128 OA 
BRANCH  21  24
HETATM   24  C   UNL     1     -11.024   6.005  69.633  1.00  0.00    -0.400 C  
HETATM   25  H   UNL     1     -11.086   4.447  70.835  1.00  0.00     0.000 HD 
HETATM   26  C   UNL     1     -11.897   6.810  70.583  1.00  0.00    -0.387 C  
HETATM   27  O   UNL     1     -10.411   4.965  70.413  1.00  0.00    -0.246 OA 
HETATM   28  O   UNL     1     -11.646   7.942  70.983  1.00  0.00    -0.280 OA 
ENDBRANCH  21  24
ENDBRANCH   4  21
ENDBRANCH   3   4
TORSDOF 6
ENDMDL
MODEL      122
REMARK 921   NORMALIZED FREE ENERGY PREDICTED BY IDOCK:   -4.31 KCAL/MOL
REMARK 922        TOTAL FREE ENERGY PREDICTED BY IDOCK:   -7.03 KCAL/MOL
REMARK 923 INTER-LIGAND FREE ENERGY PREDICTED BY IDOCK:   -6.17 KCAL/MOL
REMARK 924 INTRA-LIGAND FREE ENERGY PREDICTED BY IDOCK:   -0.85 KCAL/MOL
REMARK 927      BINDING AFFINITY PREDICTED BY RF-SCORE:    0.00 PKD
ROOT
HETATM    1  O   UNL     1      -9.873   6.675  66.217  1.00  0.00    -0.371 OA 
HETATM    2  H   UNL     1     -10.538   6.064  65.920  1.00  0.00     0.000 HD 
HETATM    3  C   UNL     1     -10.402   7.889  66.727  1.00  0.00    -0.287 C  
ENDROOT
BRANCH   3   4
HETATM    4  C   UNL     1      -9.321   8.884  67.210  1.00  0.00    -0.140 C  
BRANCH   4   5
HETATM    5  O   UNL     1      -9.727  10.264  67.247  1.00  0.00    -0.159 OA 
BRANCH   5   6
HETATM    6  C   UNL     1     -10.420  10.719  66.087  1.00  0.00    -0.214 C  
HETATM    7  C   UNL     1     -10.149  11.207  63.751  1.00  0.00    -0.361 C  
HETATM    8  O   UNL     1      -9.510  10.805  64.977  1.00  0.00    -0.210 OA 
HETATM    9  H   UNL     1     -12.380  12.907  67.633  1.00  0.00     0.000 HD 
HETATM   10  C   UNL     1     -10.825  12.579  63.889  1.00  0.00    -0.431 C  
HETATM   11  O   UNL     1     -11.980  12.061  67.468  1.00  0.00    -0.572 OA 
HETATM   12  O   UNL     1      -9.901  13.646  64.151  1.00  0.00    -0.693 OA 
HETATM   13  C   UNL     1     -11.806  12.532  65.068  1.00  0.00    -0.396 C  
HETATM   14  H   UNL     1     -10.319  14.496  64.237  1.00  0.00     0.000 HD 
HETATM   15  H   UNL     1     -13.066  13.771  65.934  1.00  0.00     0.000 HD 
HETATM   16  O   UNL     1     -12.458  13.800  65.205  1.00  0.00    -0.428 OA 
HETATM   17  C   UNL     1     -11.073  12.104  66.357  1.00  0.00    -0.314 C  
BRANCH   7  18
HETATM   18  C   UNL     1      -9.094  11.204  62.641  1.00  0.00    -0.330 C  
HETATM   19  O   UNL     1      -7.836  10.793  63.170  1.00  0.00    -0.342 OA 
HETATM   20  H   UNL     1      -7.181  10.791  62.482  1.00  0.00     0.000 HD 
ENDBRANCH   7  18
ENDBRANCH   5   6
ENDBRANCH   4   5
BRANCH   4  21
HETATM   21  C   UNL     1      -8.763   8.466  68.604  1.00  0.00    -0.133 C  
HETATM   22  H   UNL     1      -9.191   7.133  70.027  1.00  0.00     0.000 HD 
HETATM   23  O   UNL     1      -9.531   7.388  69.177  1.00  0.00    -0.150 OA 
BRANCH  21  24
HETATM   24  C   UNL     1      -8.764   9.614  69.620  1.00  0.00    -0.197 C  
HETATM   25  H   UNL     1      -9.307   9.861  71.496  1.00  0.00     0.000 HD 
HETATM   26  C   UNL     1      -7.376  10.158  69.918  1.00  0.00    -0.165 C  
HETATM   27  O   UNL     1      -9.307   9.150  70.867  1.00  0.00    -0.237 OA 
HETATM   28  O   UNL     1      -6.323   9.613  69.603  1.00  0.00    -0.042 OA 
ENDBRANCH  21  24
ENDBRANCH   4  21
ENDBRANCH   3   4
TORSDOF 6
ENDMDL
MODEL      123
REMARK 921   NORMALIZED FREE ENERGY PREDICTED BY IDOCK:   -4.30 KCAL/MOL
REMARK 922        TOTAL FREE ENERGY PREDICTED BY IDOCK:   -7.01 KCAL/MOL
REMARK 923 INTER-LIGAND FREE ENERGY PREDICTED BY IDOCK:   -6.11 KCAL/MOL
REMARK 924 INTRA-LIGAND FREE ENERGY PREDICTED BY IDOCK:   -0.90 KCAL/MOL
REMARK 927      BINDING AFFINITY PREDICTED BY RF-SCORE:    0.00 PKD
ROOT
HETATM    1  O   UNL     1      -7.609  10.588  70.290  1.00  0.00    -0.436 OA 
HETATM    2  H   UNL     1      -6.672  10.427  70.274  1.00  0.00     0.000 HD 
HETATM    3  C   UNL     1      -8.369   9.601  69.611  1.00  0.00    -0.168 C  
ENDROOT
BRANCH   3   4
HETATM    4  C   UNL     1      -9.894   9.862  69.638  1.00  0.00    -0.232 C  
BRANCH   4   5
HETATM    5  O   UNL     1     -10.655   9.163  68.637  1.00  0.00    -0.215 OA 
BRANCH   5   6
HETATM    6  C   UNL     1     -10.811   9.859  67.402  1.00  0.00    -0.227 C  
HETATM    7  C   UNL     1      -9.731  10.332  65.309  1.00  0.00    -0.291 C  
HETATM    8  O   UNL     1      -9.628   9.699  66.599  1.00  0.00    -0.166 OA 
HETATM    9  H   UNL     1     -12.421  12.487  68.635  1.00  0.00     0.000 HD 
HETATM   10  C   UNL     1      -9.991  11.840  65.438  1.00  0.00    -0.253 C  
HETATM   11  O   UNL     1     -12.253  11.566  68.474  1.00  0.00    -0.524 OA 
HETATM   12  O   UNL     1      -8.919  12.551  66.076  1.00  0.00    -0.423 OA 
HETATM   13  C   UNL     1     -11.247  12.056  66.292  1.00  0.00    -0.342 C  
HETATM   14  H   UNL     1      -9.080  13.484  66.155  1.00  0.00     0.000 HD 
HETATM   15  H   UNL     1     -12.293  13.591  66.941  1.00  0.00     0.000 HD 
HETATM   16  O   UNL     1     -11.515  13.457  66.412  1.00  0.00    -0.308 OA 
HETATM   17  C   UNL     1     -11.085  11.367  67.665  1.00  0.00    -0.268 C  
BRANCH   7  18
HETATM   18  C   UNL     1      -8.442  10.042  64.535  1.00  0.00    -0.174 C  
HETATM   19  O   UNL     1      -7.336   9.996  65.432  1.00  0.00    -0.125 OA 
HETATM   20  H   UNL     1      -6.537   9.816  64.951  1.00  0.00     0.000 HD 
ENDBRANCH   7  18
ENDBRANCH   5   6
ENDBRANCH   4   5
BRANCH   4  21
HETATM   21  C   UNL     1     -10.485   9.562  71.048  1.00  0.00    -0.306 C  
HETATM   22  H   UNL     1      -9.955   8.555  72.688  1.00  0.00     0.000 HD 
HETATM   23  O   UNL     1      -9.595   8.738  71.828  1.00  0.00    -0.261 OA 
BRANCH  21  24
HETATM   24  C   UNL     1     -11.837   8.844  70.992  1.00  0.00    -0.276 C  
HETATM   25  H   UNL     1     -12.701   7.350  71.938  1.00  0.00     0.000 HD 
HETATM   26  C   UNL     1     -13.018   9.755  71.290  1.00  0.00    -0.380 C  
HETATM   27  O   UNL     1     -11.863   7.795  71.973  1.00  0.00    -0.283 OA 
HETATM   28  O   UNL     1     -12.935  10.881  71.772  1.00  0.00    -0.452 OA 
ENDBRANCH  21  24
ENDBRANCH   4  21
ENDBRANCH   3   4
TORSDOF 6
ENDMDL
MODEL      124
REMARK 921   NORMALIZED FREE ENERGY PREDICTED BY IDOCK:   -4.28 KCAL/MOL
REMARK 922        TOTAL FREE ENERGY PREDICTED BY IDOCK:   -6.98 KCAL/MOL
REMARK 923 INTER-LIGAND FREE ENERGY PREDICTED BY IDOCK:   -6.13 KCAL/MOL
REMARK 924 INTRA-LIGAND FREE ENERGY PREDICTED BY IDOCK:   -0.85 KCAL/MOL
REMARK 927      BINDING AFFINITY PREDICTED BY RF-SCORE:    0.00 PKD
ROOT
HETATM    1  O   UNL     1      -8.824   8.138  64.047  1.00  0.00    -0.337 OA 
HETATM    2  H   UNL     1      -8.215   7.785  63.408  1.00  0.00     0.000 HD 
HETATM    3  C   UNL     1      -8.416   9.382  64.595  1.00  0.00    -0.167 C  
ENDROOT
BRANCH   3   4
HETATM    4  C   UNL     1      -9.406   9.958  65.635  1.00  0.00    -0.214 C  
BRANCH   4   5
HETATM    5  O   UNL     1     -10.554  10.630  65.086  1.00  0.00    -0.242 OA 
BRANCH   5   6
HETATM    6  C   UNL     1     -10.444  12.049  65.014  1.00  0.00    -0.287 C  
HETATM    7  C   UNL     1      -9.901  14.006  66.296  1.00  0.00    -0.305 C  
HETATM    8  O   UNL     1     -10.084  12.578  66.302  1.00  0.00    -0.240 OA 
HETATM    9  H   UNL     1     -13.004  12.536  62.957  1.00  0.00     0.000 HD 
HETATM   10  C   UNL     1     -11.173  14.738  65.846  1.00  0.00    -0.340 C  
HETATM   11  O   UNL     1     -12.184  12.157  63.252  1.00  0.00    -0.503 OA 
HETATM   12  O   UNL     1     -12.286  14.546  66.733  1.00  0.00    -0.457 OA 
HETATM   13  C   UNL     1     -11.595  14.201  64.472  1.00  0.00    -0.389 C  
HETATM   14  H   UNL     1     -13.074  14.999  66.454  1.00  0.00     0.000 HD 
HETATM   15  H   UNL     1     -13.034  14.550  63.176  1.00  0.00     0.000 HD 
HETATM   16  O   UNL     1     -12.773  14.882  64.027  1.00  0.00    -0.792 OA 
HETATM   17  C   UNL     1     -11.786  12.670  64.532  1.00  0.00    -0.379 C  
BRANCH   7  18
HETATM   18  C   UNL     1      -9.466  14.435  67.701  1.00  0.00    -0.214 C  
HETATM   19  O   UNL     1      -9.773  15.811  67.905  1.00  0.00    -0.214 OA 
HETATM   20  H   UNL     1      -9.503  16.077  68.776  1.00  0.00     0.000 HD 
ENDBRANCH   7  18
ENDBRANCH   5   6
ENDBRANCH   4   5
BRANCH   4  21
HETATM   21  C   UNL     1      -9.873   8.852  66.629  1.00  0.00    -0.262 C  
HETATM   22  H   UNL     1     -11.182   8.668  68.124  1.00  0.00     0.000 HD 
HETATM   23  O   UNL     1     -10.898   9.342  67.518  1.00  0.00    -0.259 OA 
BRANCH  21  24
HETATM   24  C   UNL     1      -8.736   8.310  67.501  1.00  0.00    -0.129 C  
HETATM   25  H   UNL     1      -8.508   7.777  69.383  1.00  0.00     0.000 HD 
HETATM   26  C   UNL     1      -8.195   6.971  67.025  1.00  0.00    -0.117 C  
HETATM   27  O   UNL     1      -9.213   8.113  68.843  1.00  0.00    -0.147 OA 
HETATM   28  O   UNL     1      -8.737   6.247  66.196  1.00  0.00    -0.136 OA 
ENDBRANCH  21  24
ENDBRANCH   4  21
ENDBRANCH   3   4
TORSDOF 6
ENDMDL
MODEL      125
REMARK 921   NORMALIZED FREE ENERGY PREDICTED BY IDOCK:   -4.26 KCAL/MOL
REMARK 922        TOTAL FREE ENERGY PREDICTED BY IDOCK:   -6.95 KCAL/MOL
REMARK 923 INTER-LIGAND FREE ENERGY PREDICTED BY IDOCK:   -6.28 KCAL/MOL
REMARK 924 INTRA-LIGAND FREE ENERGY PREDICTED BY IDOCK:   -0.67 KCAL/MOL
REMARK 927      BINDING AFFINITY PREDICTED BY RF-SCORE:    0.00 PKD
ROOT
HETATM    1  O   UNL     1     -11.313   8.841  69.482  1.00  0.00    -0.440 OA 
HETATM    2  H   UNL     1     -11.152   8.679  70.404  1.00  0.00     0.000 HD 
HETATM    3  C   UNL     1     -10.994  10.160  69.069  1.00  0.00    -0.226 C  
ENDROOT
BRANCH   3   4
HETATM    4  C   UNL     1     -11.256  10.423  67.567  1.00  0.00    -0.179 C  
BRANCH   4   5
HETATM    5  O   UNL     1     -11.911  11.669  67.267  1.00  0.00    -0.609 OA 
BRANCH   5   6
HETATM    6  C   UNL     1     -11.297  12.438  66.235  1.00  0.00    -0.340 C  
HETATM    7  C   UNL     1      -9.827  14.295  65.833  1.00  0.00    -0.298 C  
HETATM    8  O   UNL     1     -10.524  13.504  66.814  1.00  0.00    -0.269 OA 
HETATM    9  H   UNL     1     -13.838  12.332  64.102  1.00  0.00     0.000 HD 
HETATM   10  C   UNL     1     -10.798  14.934  64.828  1.00  0.00    -0.363 C  
HETATM   11  O   UNL     1     -13.177  11.980  64.688  1.00  0.00    -0.508 OA 
HETATM   12  O   UNL     1     -11.707  15.869  65.429  1.00  0.00     0.186 OA 
HETATM   13  C   UNL     1     -11.646  13.828  64.187  1.00  0.00    -0.331 C  
HETATM   14  H   UNL     1     -12.307  16.264  64.807  1.00  0.00     0.000 HD 
HETATM   15  H   UNL     1     -13.074  13.717  62.838  1.00  0.00     0.000 HD 
HETATM   16  O   UNL     1     -12.549  14.402  63.235  1.00  0.00    -0.655 OA 
HETATM   17  C   UNL     1     -12.378  13.015  65.277  1.00  0.00    -0.486 C  
BRANCH   7  18
HETATM   18  C   UNL     1      -9.001  15.350  66.574  1.00  0.00    -0.309 C  
HETATM   19  O   UNL     1      -8.879  16.522  65.772  1.00  0.00    -0.474 OA 
HETATM   20  H   UNL     1      -8.366  17.177  66.231  1.00  0.00     0.000 HD 
ENDBRANCH   7  18
ENDBRANCH   5   6
ENDBRANCH   4   5
BRANCH   4  21
HETATM   21  C   UNL     1      -9.937  10.314  66.745  1.00  0.00    -0.209 C  
HETATM   22  H   UNL     1      -9.303   9.405  65.085  1.00  0.00     0.000 HD 
HETATM   23  O   UNL     1     -10.108   9.472  65.586  1.00  0.00    -0.285 OA 
BRANCH  21  24
HETATM   24  C   UNL     1      -8.770   9.741  67.556  1.00  0.00    -0.125 C  
HETATM   25  H   UNL     1      -8.067   7.951  67.978  1.00  0.00     0.000 HD 
HETATM   26  C   UNL     1      -7.407  10.191  67.055  1.00  0.00    -0.091 C  
HETATM   27  O   UNL     1      -8.790   8.305  67.475  1.00  0.00    -0.134 OA 
HETATM   28  O   UNL     1      -7.200  10.745  65.980  1.00  0.00    -0.135 OA 
ENDBRANCH  21  24
ENDBRANCH   4  21
ENDBRANCH   3   4
TORSDOF 6
ENDMDL
MODEL      126
REMARK 921   NORMALIZED FREE ENERGY PREDICTED BY IDOCK:   -4.24 KCAL/MOL
REMARK 922        TOTAL FREE ENERGY PREDICTED BY IDOCK:   -6.93 KCAL/MOL
REMARK 923 INTER-LIGAND FREE ENERGY PREDICTED BY IDOCK:   -6.78 KCAL/MOL
REMARK 924 INTRA-LIGAND FREE ENERGY PREDICTED BY IDOCK:   -0.15 KCAL/MOL
REMARK 927      BINDING AFFINITY PREDICTED BY RF-SCORE:    0.00 PKD
ROOT
HETATM    1  O   UNL     1     -10.734  16.967  64.777  1.00  0.00    -0.760 OA 
HETATM    2  H   UNL     1     -10.319  16.654  63.982  1.00  0.00     0.000 HD 
HETATM    3  C   UNL     1      -9.878  16.961  65.908  1.00  0.00    -0.215 C  
ENDROOT
BRANCH   3   4
HETATM    4  C   UNL     1     -10.554  17.471  67.203  1.00  0.00    -0.264 C  
BRANCH   4   5
HETATM    5  O   UNL     1     -11.112  16.449  68.050  1.00  0.00    -0.348 OA 
BRANCH   5   6
HETATM    6  C   UNL     1     -10.523  15.159  67.904  1.00  0.00    -0.245 C  
HETATM    7  C   UNL     1     -10.140  13.384  66.331  1.00  0.00    -0.292 C  
HETATM    8  O   UNL     1     -10.753  14.664  66.573  1.00  0.00    -0.301 OA 
HETATM    9  H   UNL     1     -11.273  14.042  70.938  1.00  0.00     0.000 HD 
HETATM   10  C   UNL     1     -10.656  12.316  67.307  1.00  0.00    -0.224 C  
HETATM   11  O   UNL     1     -10.913  14.642  70.296  1.00  0.00    -0.159 OA 
HETATM   12  O   UNL     1     -12.060  12.047  67.167  1.00  0.00    -0.587 OA 
HETATM   13  C   UNL     1     -10.432  12.806  68.743  1.00  0.00    -0.156 C  
HETATM   14  H   UNL     1     -12.380  11.387  67.771  1.00  0.00     0.000 HD 
HETATM   15  H   UNL     1     -10.755  12.120  70.559  1.00  0.00     0.000 HD 
HETATM   16  O   UNL     1     -10.894  11.817  69.670  1.00  0.00    -0.073 OA 
HETATM   17  C   UNL     1     -11.113  14.175  68.954  1.00  0.00    -0.263 C  
BRANCH   7  18
HETATM   18  C   UNL     1     -10.406  12.998  64.874  1.00  0.00    -0.324 C  
HETATM   19  O   UNL     1     -10.813  14.145  64.134  1.00  0.00    -0.572 OA 
HETATM   20  H   UNL     1     -10.977  13.906  63.230  1.00  0.00     0.000 HD 
ENDBRANCH   7  18
ENDBRANCH   5   6
ENDBRANCH   4   5
BRANCH   4  21
HETATM   21  C   UNL     1      -9.574  18.357  68.030  1.00  0.00    -0.298 C  
HETATM   22  H   UNL     1      -9.677  19.669  69.530  1.00  0.00     0.000 HD 
HETATM   23  O   UNL     1     -10.275  19.128  69.027  1.00  0.00    -0.358 OA 
BRANCH  21  24
HETATM   24  C   UNL     1      -8.782  19.343  67.165  1.00  0.00    -0.295 C  
HETATM   25  H   UNL     1      -9.047  21.167  66.473  1.00  0.00     0.000 HD 
HETATM   26  C   UNL     1      -7.442  19.734  67.767  1.00  0.00    -0.286 C  
HETATM   27  O   UNL     1      -9.538  20.556  67.009  1.00  0.00    -0.423 OA 
HETATM   28  O   UNL     1      -7.097  19.511  68.923  1.00  0.00    -0.333 OA 
ENDBRANCH  21  24
ENDBRANCH   4  21
ENDBRANCH   3   4
TORSDOF 6
ENDMDL
MODEL      127
REMARK 921   NORMALIZED FREE ENERGY PREDICTED BY IDOCK:   -4.22 KCAL/MOL
REMARK 922        TOTAL FREE ENERGY PREDICTED BY IDOCK:   -6.90 KCAL/MOL
REMARK 923 INTER-LIGAND FREE ENERGY PREDICTED BY IDOCK:   -5.77 KCAL/MOL
REMARK 924 INTRA-LIGAND FREE ENERGY PREDICTED BY IDOCK:   -1.13 KCAL/MOL
REMARK 927      BINDING AFFINITY PREDICTED BY RF-SCORE:    0.00 PKD
ROOT
HETATM    1  O   UNL     1      -9.964  12.736  63.592  1.00  0.00    -0.661 OA 
HETATM    2  H   UNL     1      -9.928  12.569  62.657  1.00  0.00     0.000 HD 
HETATM    3  C   UNL     1      -9.865  11.563  64.385  1.00  0.00    -0.241 C  
ENDROOT
BRANCH   3   4
HETATM    4  C   UNL     1      -9.923  11.835  65.907  1.00  0.00    -0.236 C  
BRANCH   4   5
HETATM    5  O   UNL     1      -8.707  11.561  66.627  1.00  0.00    -0.172 OA 
BRANCH   5   6
HETATM    6  C   UNL     1      -8.654  10.281  67.253  1.00  0.00    -0.125 C  
HETATM    7  C   UNL     1      -8.311   7.942  66.826  1.00  0.00    -0.120 C  
HETATM    8  O   UNL     1      -8.431   9.262  66.263  1.00  0.00    -0.122 OA 
HETATM    9  H   UNL     1     -11.042  10.837  69.490  1.00  0.00     0.000 HD 
HETATM   10  C   UNL     1      -9.570   7.545  67.611  1.00  0.00    -0.143 C  
HETATM   11  O   UNL     1     -10.236  11.007  69.017  1.00  0.00    -0.210 OA 
HETATM   12  O   UNL     1     -10.746   7.453  66.793  1.00  0.00    -0.472 OA 
HETATM   13  C   UNL     1      -9.845   8.610  68.680  1.00  0.00    -0.169 C  
HETATM   14  H   UNL     1     -11.526   7.208  67.278  1.00  0.00     0.000 HD 
HETATM   15  H   UNL     1     -11.179   8.909  70.095  1.00  0.00     0.000 HD 
HETATM   16  O   UNL     1     -11.009   8.250  69.433  1.00  0.00    -0.144 OA 
HETATM   17  C   UNL     1      -9.974  10.003  68.026  1.00  0.00    -0.150 C  
BRANCH   7  18
HETATM   18  C   UNL     1      -8.020   6.963  65.686  1.00  0.00    -0.120 C  
HETATM   19  O   UNL     1      -8.726   7.360  64.513  1.00  0.00    -0.350 OA 
HETATM   20  H   UNL     1      -8.545   6.753  63.806  1.00  0.00     0.000 HD 
ENDBRANCH   7  18
ENDBRANCH   5   6
ENDBRANCH   4   5
BRANCH   4  21
HETATM   21  C   UNL     1     -10.382  13.296  66.194  1.00  0.00    -0.290 C  
HETATM   22  H   UNL     1      -9.887  14.785  67.427  1.00  0.00     0.000 HD 
HETATM   23  O   UNL     1      -9.606  13.894  67.252  1.00  0.00    -0.230 OA 
BRANCH  21  24
HETATM   24  C   UNL     1     -11.856  13.392  66.600  1.00  0.00    -0.395 C  
HETATM   25  H   UNL     1     -12.941  14.538  67.778  1.00  0.00     0.000 HD 
HETATM   26  C   UNL     1     -12.789  13.661  65.430  1.00  0.00    -0.389 C  
HETATM   27  O   UNL     1     -12.028  14.478  67.527  1.00  0.00    -0.382 OA 
HETATM   28  O   UNL     1     -12.432  14.017  64.311  1.00  0.00    -0.645 OA 
ENDBRANCH  21  24
ENDBRANCH   4  21
ENDBRANCH   3   4
TORSDOF 6
ENDMDL
MODEL      128
REMARK 921   NORMALIZED FREE ENERGY PREDICTED BY IDOCK:   -4.22 KCAL/MOL
REMARK 922        TOTAL FREE ENERGY PREDICTED BY IDOCK:   -6.90 KCAL/MOL
REMARK 923 INTER-LIGAND FREE ENERGY PREDICTED BY IDOCK:   -7.08 KCAL/MOL
REMARK 924 INTRA-LIGAND FREE ENERGY PREDICTED BY IDOCK:    0.18 KCAL/MOL
REMARK 927      BINDING AFFINITY PREDICTED BY RF-SCORE:    0.00 PKD
ROOT
HETATM    1  O   UNL     1      -6.883  17.018  68.575  1.00  0.00    -0.164 OA 
HETATM    2  H   UNL     1      -6.231  16.460  68.984  1.00  0.00     0.000 HD 
HETATM    3  C   UNL     1      -8.202  16.501  68.646  1.00  0.00    -0.234 C  
ENDROOT
BRANCH   3   4
HETATM    4  C   UNL     1      -9.263  17.408  67.980  1.00  0.00    -0.266 C  
BRANCH   4   5
HETATM    5  O   UNL     1     -10.622  17.169  68.390  1.00  0.00    -0.348 OA 
BRANCH   5   6
HETATM    6  C   UNL     1     -11.264  16.075  67.740  1.00  0.00    -0.231 C  
HETATM    7  C   UNL     1     -11.861  13.763  67.999  1.00  0.00    -0.373 C  
HETATM    8  O   UNL     1     -11.186  14.901  68.567  1.00  0.00    -0.255 OA 
HETATM    9  H   UNL     1     -10.248  16.797  64.663  1.00  0.00     0.000 HD 
HETATM   10  C   UNL     1     -11.284  13.389  66.626  1.00  0.00    -0.309 C  
HETATM   11  O   UNL     1     -10.651  16.961  65.508  1.00  0.00    -0.523 OA 
HETATM   12  O   UNL     1      -9.911  12.971  66.680  1.00  0.00    -0.239 OA 
HETATM   13  C   UNL     1     -11.346  14.618  65.710  1.00  0.00    -0.340 C  
HETATM   14  H   UNL     1      -9.553  12.740  65.830  1.00  0.00     0.000 HD 
HETATM   15  H   UNL     1     -10.863  15.046  63.851  1.00  0.00     0.000 HD 
HETATM   16  O   UNL     1     -10.824  14.286  64.419  1.00  0.00    -0.329 OA 
HETATM   17  C   UNL     1     -10.602  15.806  66.358  1.00  0.00    -0.307 C  
BRANCH   7  18
HETATM   18  C   UNL     1     -11.757  12.604  68.994  1.00  0.00    -0.318 C  
HETATM   19  O   UNL     1     -11.892  11.362  68.308  1.00  0.00    -0.501 OA 
HETATM   20  H   UNL     1     -11.827  10.643  68.926  1.00  0.00     0.000 HD 
ENDBRANCH   7  18
ENDBRANCH   5   6
ENDBRANCH   4   5
BRANCH   4  21
HETATM   21  C   UNL     1      -8.913  18.913  68.183  1.00  0.00    -0.311 C  
HETATM   22  H   UNL     1      -9.771  20.537  68.964  1.00  0.00     0.000 HD 
HETATM   23  O   UNL     1      -9.985  19.619  68.841  1.00  0.00    -0.447 OA 
BRANCH  21  24
HETATM   24  C   UNL     1      -8.627  19.645  66.867  1.00  0.00    -0.315 C  
HETATM   25  H   UNL     1      -7.806  19.198  65.134  1.00  0.00     0.000 HD 
HETATM   26  C   UNL     1      -9.881  20.156  66.175  1.00  0.00    -0.399 C  
HETATM   27  O   UNL     1      -7.983  18.745  65.949  1.00  0.00    -0.471 OA 
HETATM   28  O   UNL     1     -11.028  19.831  66.464  1.00  0.00    -0.399 OA 
ENDBRANCH  21  24
ENDBRANCH   4  21
ENDBRANCH   3   4
TORSDOF 6
ENDMDL
MODEL      129
REMARK 921   NORMALIZED FREE ENERGY PREDICTED BY IDOCK:   -4.22 KCAL/MOL
REMARK 922        TOTAL FREE ENERGY PREDICTED BY IDOCK:   -6.90 KCAL/MOL
REMARK 923 INTER-LIGAND FREE ENERGY PREDICTED BY IDOCK:   -5.70 KCAL/MOL
REMARK 924 INTRA-LIGAND FREE ENERGY PREDICTED BY IDOCK:   -1.20 KCAL/MOL
REMARK 927      BINDING AFFINITY PREDICTED BY RF-SCORE:    0.00 PKD
ROOT
HETATM    1  O   UNL     1      -7.261  14.316  69.817  1.00  0.00    -0.351 OA 
HETATM    2  H   UNL     1      -6.604  14.412  70.497  1.00  0.00     0.000 HD 
HETATM    3  C   UNL     1      -7.954  15.518  69.521  1.00  0.00    -0.192 C  
ENDROOT
BRANCH   3   4
HETATM    4  C   UNL     1      -9.023  15.364  68.412  1.00  0.00    -0.189 C  
BRANCH   4   5
HETATM    5  O   UNL     1     -10.224  14.678  68.808  1.00  0.00    -0.231 OA 
BRANCH   5   6
HETATM    6  C   UNL     1     -10.460  13.441  68.140  1.00  0.00    -0.245 C  
HETATM    7  C   UNL     1      -9.361  11.543  67.161  1.00  0.00    -0.172 C  
HETATM    8  O   UNL     1      -9.206  12.827  67.793  1.00  0.00    -0.183 OA 
HETATM    9  H   UNL     1     -13.101  14.434  66.393  1.00  0.00     0.000 HD 
HETATM   10  C   UNL     1     -10.190  11.643  65.872  1.00  0.00    -0.238 C  
HETATM   11  O   UNL     1     -12.575  14.293  67.172  1.00  0.00    -0.134 OA 
HETATM   12  O   UNL     1      -9.568  12.444  64.855  1.00  0.00    -0.461 OA 
HETATM   13  C   UNL     1     -11.539  12.296  66.198  1.00  0.00    -0.390 C  
HETATM   14  H   UNL     1     -10.080  12.506  64.057  1.00  0.00     0.000 HD 
HETATM   15  H   UNL     1     -13.169  12.790  65.212  1.00  0.00     0.000 HD 
HETATM   16  O   UNL     1     -12.333  12.386  65.010  1.00  0.00    -0.475 OA 
HETATM   17  C   UNL     1     -11.320  13.671  66.865  1.00  0.00    -0.327 C  
BRANCH   7  18
HETATM   18  C   UNL     1      -7.965  10.972  66.896  1.00  0.00    -0.143 C  
HETATM   19  O   UNL     1      -7.987  10.161  65.725  1.00  0.00    -0.128 OA 
HETATM   20  H   UNL     1      -7.121   9.807  65.560  1.00  0.00     0.000 HD 
ENDBRANCH   7  18
ENDBRANCH   5   6
ENDBRANCH   4   5
BRANCH   4  21
HETATM   21  C   UNL     1      -9.389  16.748  67.797  1.00  0.00    -0.233 C  
HETATM   22  H   UNL     1     -11.014  17.887  67.585  1.00  0.00     0.000 HD 
HETATM   23  O   UNL     1     -10.791  17.044  67.961  1.00  0.00    -0.371 OA 
BRANCH  21  24
HETATM   24  C   UNL     1      -9.077  16.839  66.299  1.00  0.00    -0.285 C  
HETATM   25  H   UNL     1     -10.015  17.452  64.680  1.00  0.00     0.000 HD 
HETATM   26  C   UNL     1      -7.886  17.731  65.983  1.00  0.00    -0.158 C  
HETATM   27  O   UNL     1     -10.208  17.396  65.608  1.00  0.00    -0.586 OA 
HETATM   28  O   UNL     1      -7.358  18.507  66.773  1.00  0.00    -0.203 OA 
ENDBRANCH  21  24
ENDBRANCH   4  21
ENDBRANCH   3   4
TORSDOF 6
ENDMDL
MODEL      130
REMARK 921   NORMALIZED FREE ENERGY PREDICTED BY IDOCK:   -4.21 KCAL/MOL
REMARK 922        TOTAL FREE ENERGY PREDICTED BY IDOCK:   -6.89 KCAL/MOL
REMARK 923 INTER-LIGAND FREE ENERGY PREDICTED BY IDOCK:   -6.71 KCAL/MOL
REMARK 924 INTRA-LIGAND FREE ENERGY PREDICTED BY IDOCK:   -0.18 KCAL/MOL
REMARK 927      BINDING AFFINITY PREDICTED BY RF-SCORE:    0.00 PKD
ROOT
HETATM    1  O   UNL     1     -12.247  12.555  69.222  1.00  0.00    -0.195 OA 
HETATM    2  H   UNL     1     -11.816  11.736  69.007  1.00  0.00     0.000 HD 
HETATM    3  C   UNL     1     -11.487  13.393  70.077  1.00  0.00    -0.056 C  
ENDROOT
BRANCH   3   4
HETATM    4  C   UNL     1     -12.190  14.727  70.427  1.00  0.00    -0.336 C  
BRANCH   4   5
HETATM    5  O   UNL     1     -12.331  15.652  69.334  1.00  0.00    -0.266 OA 
BRANCH   5   6
HETATM    6  C   UNL     1     -11.124  15.952  68.637  1.00  0.00    -0.337 C  
HETATM    7  C   UNL     1      -9.503  17.682  68.250  1.00  0.00    -0.295 C  
HETATM    8  O   UNL     1     -10.746  17.318  68.879  1.00  0.00    -0.301 OA 
HETATM    9  H   UNL     1     -11.805  14.199  65.902  1.00  0.00     0.000 HD 
HETATM   10  C   UNL     1      -9.562  17.490  66.728  1.00  0.00    -0.282 C  
HETATM   11  O   UNL     1     -11.694  14.351  66.833  1.00  0.00    -0.372 OA 
HETATM   12  O   UNL     1     -10.524  18.339  66.083  1.00  0.00    -0.420 OA 
HETATM   13  C   UNL     1      -9.965  16.041  66.425  1.00  0.00    -0.295 C  
HETATM   14  H   UNL     1     -10.561  18.221  65.141  1.00  0.00     0.000 HD 
HETATM   15  H   UNL     1     -10.261  14.941  64.820  1.00  0.00     0.000 HD 
HETATM   16  O   UNL     1     -10.012  15.838  65.008  1.00  0.00    -0.386 OA 
HETATM   17  C   UNL     1     -11.305  15.704  67.113  1.00  0.00    -0.082 C  
BRANCH   7  18
HETATM   18  C   UNL     1      -9.185  19.130  68.629  1.00  0.00    -0.380 C  
HETATM   19  O   UNL     1      -8.557  19.792  67.534  1.00  0.00    -0.307 OA 
HETATM   20  H   UNL     1      -8.360  20.690  67.768  1.00  0.00     0.000 HD 
ENDBRANCH   7  18
ENDBRANCH   5   6
ENDBRANCH   4   5
BRANCH   4  21
HETATM   21  C   UNL     1     -13.583  14.468  71.076  1.00  0.00    -0.238 C  
HETATM   22  H   UNL     1     -15.221  15.516  71.526  1.00  0.00     0.000 HD 
HETATM   23  O   UNL     1     -14.371  15.674  71.130  1.00  0.00    -0.485 OA 
BRANCH  21  24
HETATM   24  C   UNL     1     -13.486  13.924  72.505  1.00  0.00    -0.572 C  
HETATM   25  H   UNL     1     -12.863  12.264  73.363  1.00  0.00     0.000 HD 
HETATM   26  C   UNL     1     -12.597  14.761  73.412  1.00  0.00    -0.435 C  
HETATM   27  O   UNL     1     -12.923  12.601  72.477  1.00  0.00    -0.227 OA 
HETATM   28  O   UNL     1     -11.826  15.635  73.030  1.00  0.00    -0.445 OA 
ENDBRANCH  21  24
ENDBRANCH   4  21
ENDBRANCH   3   4
TORSDOF 6
ENDMDL
MODEL      131
REMARK 921   NORMALIZED FREE ENERGY PREDICTED BY IDOCK:   -4.18 KCAL/MOL
REMARK 922        TOTAL FREE ENERGY PREDICTED BY IDOCK:   -6.85 KCAL/MOL
REMARK 923 INTER-LIGAND FREE ENERGY PREDICTED BY IDOCK:   -5.76 KCAL/MOL
REMARK 924 INTRA-LIGAND FREE ENERGY PREDICTED BY IDOCK:   -1.09 KCAL/MOL
REMARK 927      BINDING AFFINITY PREDICTED BY RF-SCORE:    0.00 PKD
ROOT
HETATM    1  O   UNL     1      -8.825   8.810  72.556  1.00  0.00    -0.402 OA 
HETATM    2  H   UNL     1      -8.363   8.459  73.308  1.00  0.00     0.000 HD 
HETATM    3  C   UNL     1     -10.144   8.309  72.411  1.00  0.00    -0.312 C  
ENDROOT
BRANCH   3   4
HETATM    4  C   UNL     1     -10.896   8.880  71.186  1.00  0.00    -0.281 C  
BRANCH   4   5
HETATM    5  O   UNL     1     -10.160   9.837  70.403  1.00  0.00    -0.259 OA 
BRANCH   5   6
HETATM    6  C   UNL     1     -10.822  10.288  69.223  1.00  0.00    -0.238 C  
HETATM    7  C   UNL     1     -10.632  10.396  66.831  1.00  0.00    -0.230 C  
HETATM    8  O   UNL     1     -10.005  10.016  68.071  1.00  0.00    -0.143 OA 
HETATM    9  H   UNL     1     -12.114  13.051  70.531  1.00  0.00     0.000 HD 
HETATM   10  C   UNL     1     -10.971  11.893  66.804  1.00  0.00    -0.292 C  
HETATM   11  O   UNL     1     -11.929  12.122  70.470  1.00  0.00    -0.337 OA 
HETATM   12  O   UNL     1      -9.814  12.741  66.867  1.00  0.00    -0.226 OA 
HETATM   13  C   UNL     1     -11.842  12.227  68.022  1.00  0.00    -0.305 C  
HETATM   14  H   UNL     1     -10.023  13.668  66.850  1.00  0.00     0.000 HD 
HETATM   15  H   UNL     1     -12.721  13.826  68.760  1.00  0.00     0.000 HD 
HETATM   16  O   UNL     1     -12.181  13.619  68.007  1.00  0.00    -0.323 OA 
HETATM   17  C   UNL     1     -11.124  11.810  69.323  1.00  0.00    -0.218 C  
BRANCH   7  18
HETATM   18  C   UNL     1      -9.695  10.004  65.686  1.00  0.00    -0.272 C  
HETATM   19  O   UNL     1      -9.539   8.588  65.649  1.00  0.00    -0.447 OA 
HETATM   20  H   UNL     1      -8.957   8.345  64.938  1.00  0.00     0.000 HD 
ENDBRANCH   7  18
ENDBRANCH   5   6
ENDBRANCH   4   5
BRANCH   4  21
HETATM   21  C   UNL     1     -11.407   7.733  70.263  1.00  0.00    -0.163 C  
HETATM   22  H   UNL     1     -12.781   6.287  70.328  1.00  0.00     0.000 HD 
HETATM   23  O   UNL     1     -12.470   6.986  70.890  1.00  0.00    -0.366 OA 
BRANCH  21  24
HETATM   24  C   UNL     1     -10.310   6.733  69.885  1.00  0.00    -0.203 C  
HETATM   25  H   UNL     1      -9.905   4.845  70.269  1.00  0.00     0.000 HD 
HETATM   26  C   UNL     1     -10.211   6.481  68.389  1.00  0.00    -0.172 C  
HETATM   27  O   UNL     1     -10.585   5.464  70.503  1.00  0.00    -0.271 OA 
HETATM   28  O   UNL     1     -11.049   6.820  67.560  1.00  0.00    -0.301 OA 
ENDBRANCH  21  24
ENDBRANCH   4  21
ENDBRANCH   3   4
TORSDOF 6
ENDMDL
MODEL      132
REMARK 921   NORMALIZED FREE ENERGY PREDICTED BY IDOCK:   -4.17 KCAL/MOL
REMARK 922        TOTAL FREE ENERGY PREDICTED BY IDOCK:   -6.83 KCAL/MOL
REMARK 923 INTER-LIGAND FREE ENERGY PREDICTED BY IDOCK:   -5.75 KCAL/MOL
REMARK 924 INTRA-LIGAND FREE ENERGY PREDICTED BY IDOCK:   -1.08 KCAL/MOL
REMARK 927      BINDING AFFINITY PREDICTED BY RF-SCORE:    0.00 PKD
ROOT
HETATM    1  O   UNL     1      -8.422   9.239  67.872  1.00  0.00    -0.116 OA 
HETATM    2  H   UNL     1      -7.553   9.094  67.517  1.00  0.00     0.000 HD 
HETATM    3  C   UNL     1      -8.426   9.946  69.102  1.00  0.00    -0.148 C  
ENDROOT
BRANCH   3   4
HETATM    4  C   UNL     1      -9.841  10.182  69.680  1.00  0.00    -0.225 C  
BRANCH   4   5
HETATM    5  O   UNL     1     -10.809  10.695  68.747  1.00  0.00    -0.199 OA 
BRANCH   5   6
HETATM    6  C   UNL     1     -10.504  11.978  68.206  1.00  0.00    -0.204 C  
HETATM    7  C   UNL     1     -11.011  14.318  68.398  1.00  0.00    -0.253 C  
HETATM    8  O   UNL     1     -11.302  12.984  68.855  1.00  0.00    -0.253 OA 
HETATM    9  H   UNL     1     -10.146  10.999  65.055  1.00  0.00     0.000 HD 
HETATM   10  C   UNL     1     -11.241  14.462  66.886  1.00  0.00    -0.334 C  
HETATM   11  O   UNL     1      -9.989  10.992  65.992  1.00  0.00    -0.220 OA 
HETATM   12  O   UNL     1     -12.610  14.265  66.497  1.00  0.00    -0.545 OA 
HETATM   13  C   UNL     1     -10.407  13.402  66.155  1.00  0.00    -0.295 C  
HETATM   14  H   UNL     1     -12.752  14.354  65.561  1.00  0.00     0.000 HD 
HETATM   15  H   UNL     1     -10.081  12.873  64.288  1.00  0.00     0.000 HD 
HETATM   16  O   UNL     1     -10.597  13.529  64.741  1.00  0.00    -0.370 OA 
HETATM   17  C   UNL     1     -10.761  11.991  66.672  1.00  0.00    -0.245 C  
BRANCH   7  18
HETATM   18  C   UNL     1     -11.877  15.294  69.199  1.00  0.00    -0.321 C  
HETATM   19  O   UNL     1     -12.970  14.598  69.793  1.00  0.00    -0.550 OA 
HETATM   20  H   UNL     1     -13.507  15.203  70.290  1.00  0.00     0.000 HD 
ENDBRANCH   7  18
ENDBRANCH   5   6
ENDBRANCH   4   5
BRANCH   4  21
HETATM   21  C   UNL     1     -10.393   8.886  70.347  1.00  0.00    -0.204 C  
HETATM   22  H   UNL     1     -11.355   7.230  69.785  1.00  0.00     0.000 HD 
HETATM   23  O   UNL     1     -11.018   8.020  69.378  1.00  0.00    -0.150 OA 
BRANCH  21  24
HETATM   24  C   UNL     1     -11.429   9.168  71.441  1.00  0.00    -0.350 C  
HETATM   25  H   UNL     1     -13.393   9.217  71.569  1.00  0.00     0.000 HD 
HETATM   26  C   UNL     1     -11.346   8.204  72.614  1.00  0.00    -0.381 C  
HETATM   27  O   UNL     1     -12.751   9.042  70.891  1.00  0.00    -0.156 OA 
HETATM   28  O   UNL     1     -10.711   7.155  72.620  1.00  0.00    -0.232 OA 
ENDBRANCH  21  24
ENDBRANCH   4  21
ENDBRANCH   3   4
TORSDOF 6
ENDMDL
MODEL      133
REMARK 921   NORMALIZED FREE ENERGY PREDICTED BY IDOCK:   -4.15 KCAL/MOL
REMARK 922        TOTAL FREE ENERGY PREDICTED BY IDOCK:   -6.81 KCAL/MOL
REMARK 923 INTER-LIGAND FREE ENERGY PREDICTED BY IDOCK:   -5.83 KCAL/MOL
REMARK 924 INTRA-LIGAND FREE ENERGY PREDICTED BY IDOCK:   -0.98 KCAL/MOL
REMARK 927      BINDING AFFINITY PREDICTED BY RF-SCORE:    0.00 PKD
ROOT
HETATM    1  O   UNL     1      -7.503  12.875  69.076  1.00  0.00    -0.284 OA 
HETATM    2  H   UNL     1      -6.770  12.296  69.252  1.00  0.00     0.000 HD 
HETATM    3  C   UNL     1      -7.179  14.252  69.182  1.00  0.00    -0.104 C  
ENDROOT
BRANCH   3   4
HETATM    4  C   UNL     1      -8.372  15.196  68.896  1.00  0.00    -0.190 C  
BRANCH   4   5
HETATM    5  O   UNL     1      -8.170  16.136  67.825  1.00  0.00    -0.149 OA 
BRANCH   5   6
HETATM    6  C   UNL     1      -8.418  17.498  68.164  1.00  0.00    -0.254 C  
HETATM    7  C   UNL     1      -9.686  19.438  67.535  1.00  0.00    -0.335 C  
HETATM    8  O   UNL     1      -9.343  18.074  67.226  1.00  0.00    -0.251 OA 
HETATM    9  H   UNL     1      -5.320  18.240  69.098  1.00  0.00     0.000 HD 
HETATM   10  C   UNL     1      -8.445  20.342  67.561  1.00  0.00    -0.311 C  
HETATM   11  O   UNL     1      -6.134  17.749  69.092  1.00  0.00    -0.203 OA 
HETATM   12  O   UNL     1      -7.785  20.442  66.290  1.00  0.00    -0.457 OA 
HETATM   13  C   UNL     1      -7.428  19.760  68.552  1.00  0.00    -0.312 C  
HETATM   14  H   UNL     1      -7.017  21.001  66.306  1.00  0.00     0.000 HD 
HETATM   15  H   UNL     1      -5.638  20.237  69.215  1.00  0.00     0.000 HD 
HETATM   16  O   UNL     1      -6.267  20.597  68.601  1.00  0.00    -0.321 OA 
HETATM   17  C   UNL     1      -7.087  18.302  68.174  1.00  0.00    -0.236 C  
BRANCH   7  18
HETATM   18  C   UNL     1     -10.714  19.915  66.505  1.00  0.00    -0.333 C  
HETATM   19  O   UNL     1     -10.599  19.143  65.313  1.00  0.00    -0.414 OA 
HETATM   20  H   UNL     1     -11.237  19.438  64.674  1.00  0.00     0.000 HD 
ENDBRANCH   7  18
ENDBRANCH   5   6
ENDBRANCH   4   5
BRANCH   4  21
HETATM   21  C   UNL     1      -9.675  14.381  68.638  1.00  0.00    -0.216 C  
HETATM   22  H   UNL     1     -10.625  13.569  67.082  1.00  0.00     0.000 HD 
HETATM   23  O   UNL     1      -9.830  14.065  67.240  1.00  0.00    -0.235 OA 
BRANCH  21  24
HETATM   24  C   UNL     1     -10.942  15.121  69.081  1.00  0.00    -0.259 C  
HETATM   25  H   UNL     1     -12.379  16.142  68.205  1.00  0.00     0.000 HD 
HETATM   26  C   UNL     1     -11.958  14.221  69.766  1.00  0.00    -0.339 C  
HETATM   27  O   UNL     1     -11.594  15.684  67.930  1.00  0.00    -0.305 OA 
HETATM   28  O   UNL     1     -11.927  12.994  69.766  1.00  0.00    -0.316 OA 
ENDBRANCH  21  24
ENDBRANCH   4  21
ENDBRANCH   3   4
TORSDOF 6
ENDMDL
MODEL      134
REMARK 921   NORMALIZED FREE ENERGY PREDICTED BY IDOCK:   -4.12 KCAL/MOL
REMARK 922        TOTAL FREE ENERGY PREDICTED BY IDOCK:   -6.77 KCAL/MOL
REMARK 923 INTER-LIGAND FREE ENERGY PREDICTED BY IDOCK:   -5.80 KCAL/MOL
REMARK 924 INTRA-LIGAND FREE ENERGY PREDICTED BY IDOCK:   -0.97 KCAL/MOL
REMARK 927      BINDING AFFINITY PREDICTED BY RF-SCORE:    0.00 PKD
ROOT
HETATM    1  O   UNL     1      -6.808  10.791  70.601  1.00  0.00    -0.471 OA 
HETATM    2  H   UNL     1      -6.452  11.515  70.099  1.00  0.00     0.000 HD 
HETATM    3  C   UNL     1      -7.561   9.873  69.825  1.00  0.00    -0.150 C  
ENDROOT
BRANCH   3   4
HETATM    4  C   UNL     1      -8.140   8.694  70.642  1.00  0.00    -0.120 C  
BRANCH   4   5
HETATM    5  O   UNL     1      -9.156   9.048  71.597  1.00  0.00    -0.300 OA 
BRANCH   5   6
HETATM    6  C   UNL     1     -10.477   9.134  71.068  1.00  0.00    -0.298 C  
HETATM    7  C   UNL     1     -12.020  10.614  69.973  1.00  0.00    -0.329 C  
HETATM    8  O   UNL     1     -10.720  10.463  70.575  1.00  0.00    -0.236 OA 
HETATM    9  H   UNL     1     -11.940   7.220  73.351  1.00  0.00     0.000 HD 
HETATM   10  C   UNL     1     -13.145  10.286  70.966  1.00  0.00    -0.373 C  
HETATM   11  O   UNL     1     -11.302   7.446  72.684  1.00  0.00    -0.300 OA 
HETATM   12  O   UNL     1     -13.190  11.177  72.091  1.00  0.00    -0.586 OA 
HETATM   13  C   UNL     1     -12.921   8.872  71.520  1.00  0.00    -0.332 C  
HETATM   14  H   UNL     1     -13.886  10.974  72.706  1.00  0.00     0.000 HD 
HETATM   15  H   UNL     1     -13.831   7.666  72.780  1.00  0.00     0.000 HD 
HETATM   16  O   UNL     1     -13.969   8.541  72.438  1.00  0.00    -0.364 OA 
HETATM   17  C   UNL     1     -11.521   8.764  72.160  1.00  0.00    -0.351 C  
BRANCH   7  18
HETATM   18  C   UNL     1     -12.133  12.045  69.440  1.00  0.00    -0.202 C  
HETATM   19  O   UNL     1     -11.712  12.970  70.439  1.00  0.00    -0.525 OA 
HETATM   20  H   UNL     1     -11.782  13.857  70.108  1.00  0.00     0.000 HD 
ENDBRANCH   7  18
ENDBRANCH   5   6
ENDBRANCH   4   5
BRANCH   4  21
HETATM   21  C   UNL     1      -8.675   7.574  69.700  1.00  0.00    -0.137 C  
HETATM   22  H   UNL     1      -8.457   5.603  69.476  1.00  0.00     0.000 HD 
HETATM   23  O   UNL     1      -8.131   6.285  70.050  1.00  0.00    -0.115 OA 
BRANCH  21  24
HETATM   24  C   UNL     1      -8.344   7.822  68.225  1.00  0.00    -0.125 C  
HETATM   25  H   UNL     1      -7.311   6.908  66.820  1.00  0.00     0.000 HD 
HETATM   26  C   UNL     1      -9.573   7.873  67.330  1.00  0.00    -0.152 C  
HETATM   27  O   UNL     1      -7.516   6.754  67.734  1.00  0.00    -0.093 OA 
HETATM   28  O   UNL     1     -10.699   7.515  67.659  1.00  0.00    -0.239 OA 
ENDBRANCH  21  24
ENDBRANCH   4  21
ENDBRANCH   3   4
TORSDOF 6
ENDMDL
MODEL      135
REMARK 921   NORMALIZED FREE ENERGY PREDICTED BY IDOCK:   -4.11 KCAL/MOL
REMARK 922        TOTAL FREE ENERGY PREDICTED BY IDOCK:   -6.76 KCAL/MOL
REMARK 923 INTER-LIGAND FREE ENERGY PREDICTED BY IDOCK:   -5.53 KCAL/MOL
REMARK 924 INTRA-LIGAND FREE ENERGY PREDICTED BY IDOCK:   -1.23 KCAL/MOL
REMARK 927      BINDING AFFINITY PREDICTED BY RF-SCORE:    0.00 PKD
ROOT
HETATM    1  O   UNL     1     -11.511   6.257  67.951  1.00  0.00    -0.573 OA 
HETATM    2  H   UNL     1     -11.635   5.485  67.411  1.00  0.00     0.000 HD 
HETATM    3  C   UNL     1     -10.170   6.719  67.987  1.00  0.00    -0.171 C  
ENDROOT
BRANCH   3   4
HETATM    4  C   UNL     1      -9.968   7.977  68.866  1.00  0.00    -0.195 C  
BRANCH   4   5
HETATM    5  O   UNL     1     -10.845   9.080  68.571  1.00  0.00    -0.139 OA 
BRANCH   5   6
HETATM    6  C   UNL     1     -10.354   9.995  67.595  1.00  0.00    -0.224 C  
HETATM    7  C   UNL     1      -8.346  10.817  66.564  1.00  0.00    -0.146 C  
HETATM    8  O   UNL     1      -8.916   9.955  67.566  1.00  0.00    -0.134 OA 
HETATM    9  H   UNL     1     -12.581  12.393  68.151  1.00  0.00     0.000 HD 
HETATM   10  C   UNL     1      -8.754  12.282  66.778  1.00  0.00    -0.175 C  
HETATM   11  O   UNL     1     -12.279  11.513  67.959  1.00  0.00    -0.582 OA 
HETATM   12  O   UNL     1      -8.268  12.835  68.011  1.00  0.00    -0.147 OA 
HETATM   13  C   UNL     1     -10.285  12.369  66.817  1.00  0.00    -0.219 C  
HETATM   14  H   UNL     1      -8.521  13.741  68.143  1.00  0.00     0.000 HD 
HETATM   15  H   UNL     1     -11.635  13.786  67.025  1.00  0.00     0.000 HD 
HETATM   16  O   UNL     1     -10.687  13.731  67.002  1.00  0.00    -0.279 OA 
HETATM   17  C   UNL     1     -10.847  11.436  67.911  1.00  0.00    -0.225 C  
BRANCH   7  18
HETATM   18  C   UNL     1      -6.825  10.640  66.595  1.00  0.00    -0.114 C  
HETATM   19  O   UNL     1      -6.192  11.797  66.056  1.00  0.00    -0.444 OA 
HETATM   20  H   UNL     1      -5.248  11.688  66.076  1.00  0.00     0.000 HD 
ENDBRANCH   7  18
ENDBRANCH   5   6
ENDBRANCH   4   5
BRANCH   4  21
HETATM   21  C   UNL     1     -10.068   7.619  70.379  1.00  0.00    -0.190 C  
HETATM   22  H   UNL     1      -9.924   5.991  71.525  1.00  0.00     0.000 HD 
HETATM   23  O   UNL     1      -9.863   6.209  70.602  1.00  0.00    -0.175 OA 
BRANCH  21  24
HETATM   24  C   UNL     1     -11.423   7.985  70.994  1.00  0.00    -0.279 C  
HETATM   25  H   UNL     1     -13.200   7.148  71.136  1.00  0.00     0.000 HD 
HETATM   26  C   UNL     1     -11.367   8.192  72.499  1.00  0.00    -0.401 C  
HETATM   27  O   UNL     1     -12.360   6.921  70.755  1.00  0.00    -0.376 OA 
HETATM   28  O   UNL     1     -10.428   7.871  73.221  1.00  0.00    -0.339 OA 
ENDBRANCH  21  24
ENDBRANCH   4  21
ENDBRANCH   3   4
TORSDOF 6
ENDMDL
MODEL      136
REMARK 921   NORMALIZED FREE ENERGY PREDICTED BY IDOCK:   -4.09 KCAL/MOL
REMARK 922        TOTAL FREE ENERGY PREDICTED BY IDOCK:   -6.72 KCAL/MOL
REMARK 923 INTER-LIGAND FREE ENERGY PREDICTED BY IDOCK:   -6.20 KCAL/MOL
REMARK 924 INTRA-LIGAND FREE ENERGY PREDICTED BY IDOCK:   -0.52 KCAL/MOL
REMARK 927      BINDING AFFINITY PREDICTED BY RF-SCORE:    0.00 PKD
ROOT
HETATM    1  O   UNL     1     -13.115  14.067  66.362  1.00  0.00    -0.366 OA 
HETATM    2  H   UNL     1     -14.023  13.824  66.505  1.00  0.00     0.000 HD 
HETATM    3  C   UNL     1     -12.777  14.232  64.994  1.00  0.00    -0.280 C  
ENDROOT
BRANCH   3   4
HETATM    4  C   UNL     1     -11.300  14.627  64.760  1.00  0.00    -0.396 C  
BRANCH   4   5
HETATM    5  O   UNL     1     -10.883  15.850  65.394  1.00  0.00    -0.364 OA 
BRANCH   5   6
HETATM    6  C   UNL     1     -10.366  15.699  66.714  1.00  0.00    -0.287 C  
HETATM    7  C   UNL     1     -11.002  15.560  69.026  1.00  0.00    -0.256 C  
HETATM    8  O   UNL     1     -11.440  15.759  67.669  1.00  0.00    -0.254 OA 
HETATM    9  H   UNL     1      -7.591  17.461  66.253  1.00  0.00     0.000 HD 
HETATM   10  C   UNL     1      -9.962  16.610  69.445  1.00  0.00    -0.162 C  
HETATM   11  O   UNL     1      -8.233  16.784  66.071  1.00  0.00    -0.423 OA 
HETATM   12  O   UNL     1     -10.477  17.951  69.453  1.00  0.00    -0.408 OA 
HETATM   13  C   UNL     1      -8.797  16.580  68.448  1.00  0.00    -0.218 C  
HETATM   14  H   UNL     1      -9.834  18.601  69.712  1.00  0.00     0.000 HD 
HETATM   15  H   UNL     1      -7.087  17.525  68.213  1.00  0.00     0.000 HD 
HETATM   16  O   UNL     1      -7.809  17.544  68.830  1.00  0.00    -0.264 OA 
HETATM   17  C   UNL     1      -9.316  16.806  67.012  1.00  0.00    -0.233 C  
BRANCH   7  18
HETATM   18  C   UNL     1     -12.235  15.589  69.932  1.00  0.00    -0.325 C  
HETATM   19  O   UNL     1     -11.964  16.363  71.098  1.00  0.00    -0.602 OA 
HETATM   20  H   UNL     1     -12.729  16.381  71.660  1.00  0.00     0.000 HD 
ENDBRANCH   7  18
ENDBRANCH   5   6
ENDBRANCH   4   5
BRANCH   4  21
HETATM   21  C   UNL     1     -10.343  13.470  65.177  1.00  0.00    -0.353 C  
HETATM   22  H   UNL     1      -8.966  12.309  64.315  1.00  0.00     0.000 HD 
HETATM   23  O   UNL     1      -9.549  13.015  64.061  1.00  0.00     0.021 OA 
BRANCH  21  24
HETATM   24  C   UNL     1     -11.083  12.250  65.735  1.00  0.00    -0.323 C  
HETATM   25  H   UNL     1     -11.190  10.329  65.317  1.00  0.00     0.000 HD 
HETATM   26  C   UNL     1     -10.740  11.946  67.185  1.00  0.00    -0.240 C  
HETATM   27  O   UNL     1     -10.731  11.085  64.971  1.00  0.00    -0.274 OA 
HETATM   28  O   UNL     1      -9.800  12.435  67.804  1.00  0.00    -0.193 OA 
ENDBRANCH  21  24
ENDBRANCH   4  21
ENDBRANCH   3   4
TORSDOF 6
ENDMDL
MODEL      137
REMARK 921   NORMALIZED FREE ENERGY PREDICTED BY IDOCK:   -4.08 KCAL/MOL
REMARK 922        TOTAL FREE ENERGY PREDICTED BY IDOCK:   -6.72 KCAL/MOL
REMARK 923 INTER-LIGAND FREE ENERGY PREDICTED BY IDOCK:   -5.59 KCAL/MOL
REMARK 924 INTRA-LIGAND FREE ENERGY PREDICTED BY IDOCK:   -1.13 KCAL/MOL
REMARK 927      BINDING AFFINITY PREDICTED BY RF-SCORE:    0.00 PKD
ROOT
HETATM    1  O   UNL     1     -10.360   8.216  66.243  1.00  0.00    -0.452 OA 
HETATM    2  H   UNL     1     -10.565   8.958  65.686  1.00  0.00     0.000 HD 
HETATM    3  C   UNL     1     -10.167   8.561  67.606  1.00  0.00    -0.236 C  
ENDROOT
BRANCH   3   4
HETATM    4  C   UNL     1      -9.833   7.353  68.512  1.00  0.00    -0.159 C  
BRANCH   4   5
HETATM    5  O   UNL     1     -10.919   6.437  68.743  1.00  0.00    -0.291 OA 
BRANCH   5   6
HETATM    6  C   UNL     1     -11.385   6.382  70.089  1.00  0.00    -0.420 C  
HETATM    7  C   UNL     1     -12.389   7.691  71.835  1.00  0.00    -0.306 C  
HETATM    8  O   UNL     1     -11.852   7.679  70.499  1.00  0.00    -0.210 OA 
HETATM    9  H   UNL     1      -9.054   4.308  71.224  1.00  0.00     0.000 HD 
HETATM   10  C   UNL     1     -11.348   7.237  72.868  1.00  0.00    -0.246 C  
HETATM   11  O   UNL     1      -9.749   4.606  70.648  1.00  0.00    -0.174 OA 
HETATM   12  O   UNL     1     -10.213   8.112  72.956  1.00  0.00    -0.309 OA 
HETATM   13  C   UNL     1     -10.820   5.854  72.466  1.00  0.00    -0.247 C  
HETATM   14  H   UNL     1      -9.568   7.832  73.595  1.00  0.00     0.000 HD 
HETATM   15  H   UNL     1      -9.530   4.549  73.178  1.00  0.00     0.000 HD 
HETATM   16  O   UNL     1      -9.857   5.406  73.426  1.00  0.00    -0.155 OA 
HETATM   17  C   UNL     1     -10.248   5.895  71.033  1.00  0.00    -0.211 C  
BRANCH   7  18
HETATM   18  C   UNL     1     -12.902   9.104  72.128  1.00  0.00    -0.412 C  
HETATM   19  O   UNL     1     -13.922   9.053  73.121  1.00  0.00    -1.130 OA 
HETATM   20  H   UNL     1     -14.240   9.930  73.303  1.00  0.00     0.000 HD 
ENDBRANCH   7  18
ENDBRANCH   5   6
ENDBRANCH   4   5
BRANCH   4  21
HETATM   21  C   UNL     1      -8.599   6.572  67.966  1.00  0.00    -0.118 C  
HETATM   22  H   UNL     1      -7.077   6.902  66.718  1.00  0.00     0.000 HD 
HETATM   23  O   UNL     1      -7.829   7.378  67.051  1.00  0.00    -0.111 OA 
BRANCH  21  24
HETATM   24  C   UNL     1      -8.982   5.285  67.228  1.00  0.00    -0.111 C  
HETATM   25  H   UNL     1      -9.138   4.707  65.353  1.00  0.00     0.000 HD 
HETATM   26  C   UNL     1      -8.067   4.113  67.545  1.00  0.00    -0.095 C  
HETATM   27  O   UNL     1      -8.900   5.505  65.810  1.00  0.00    -0.147 OA 
HETATM   28  O   UNL     1      -6.987   4.197  68.122  1.00  0.00    -0.050 OA 
ENDBRANCH  21  24
ENDBRANCH   4  21
ENDBRANCH   3   4
TORSDOF 6
ENDMDL
MODEL      138
REMARK 921   NORMALIZED FREE ENERGY PREDICTED BY IDOCK:   -4.07 KCAL/MOL
REMARK 922        TOTAL FREE ENERGY PREDICTED BY IDOCK:   -6.70 KCAL/MOL
REMARK 923 INTER-LIGAND FREE ENERGY PREDICTED BY IDOCK:   -5.84 KCAL/MOL
REMARK 924 INTRA-LIGAND FREE ENERGY PREDICTED BY IDOCK:   -0.86 KCAL/MOL
REMARK 927      BINDING AFFINITY PREDICTED BY RF-SCORE:    0.00 PKD
ROOT
HETATM    1  O   UNL     1     -11.566  13.138  66.483  1.00  0.00    -0.323 OA 
HETATM    2  H   UNL     1     -11.973  13.242  65.630  1.00  0.00     0.000 HD 
HETATM    3  C   UNL     1     -11.311  11.787  66.832  1.00  0.00    -0.320 C  
ENDROOT
BRANCH   3   4
HETATM    4  C   UNL     1     -10.649  11.617  68.220  1.00  0.00    -0.205 C  
BRANCH   4   5
HETATM    5  O   UNL     1     -11.560  11.454  69.321  1.00  0.00    -0.257 OA 
BRANCH   5   6
HETATM    6  C   UNL     1     -12.234  12.643  69.727  1.00  0.00    -0.143 C  
HETATM    7  C   UNL     1     -12.098  15.041  69.689  1.00  0.00    -0.300 C  
HETATM    8  O   UNL     1     -11.456  13.795  69.359  1.00  0.00    -0.265 OA 
HETATM    9  H   UNL     1     -13.395  11.472  72.608  1.00  0.00     0.000 HD 
HETATM   10  C   UNL     1     -12.383  15.149  71.194  1.00  0.00    -0.341 C  
HETATM   11  O   UNL     1     -13.244  11.483  71.670  1.00  0.00    -0.411 OA 
HETATM   12  O   UNL     1     -11.195  15.161  72.001  1.00  0.00    -0.520 OA 
HETATM   13  C   UNL     1     -13.212  13.934  71.631  1.00  0.00    -0.370 C  
HETATM   14  H   UNL     1     -11.372  15.227  72.932  1.00  0.00     0.000 HD 
HETATM   15  H   UNL     1     -14.016  13.271  73.300  1.00  0.00     0.000 HD 
HETATM   16  O   UNL     1     -13.502  14.023  73.030  1.00  0.00    -0.655 OA 
HETATM   17  C   UNL     1     -12.479  12.626  71.263  1.00  0.00    -0.175 C  
BRANCH   7  18
HETATM   18  C   UNL     1     -11.203  16.182  69.198  1.00  0.00    -0.336 C  
HETATM   19  O   UNL     1     -10.553  15.802  67.988  1.00  0.00    -0.263 OA 
HETATM   20  H   UNL     1      -9.998  16.509  67.683  1.00  0.00     0.000 HD 
ENDBRANCH   7  18
ENDBRANCH   5   6
ENDBRANCH   4   5
BRANCH   4  21
HETATM   21  C   UNL     1      -9.627  10.440  68.208  1.00  0.00    -0.144 C  
HETATM   22  H   UNL     1      -7.672  10.184  67.901  1.00  0.00     0.000 HD 
HETATM   23  O   UNL     1      -8.294  10.902  67.909  1.00  0.00    -0.115 OA 
BRANCH  21  24
HETATM   24  C   UNL     1      -9.974   9.355  67.183  1.00  0.00    -0.204 C  
HETATM   25  H   UNL     1      -9.139   8.596  65.569  1.00  0.00     0.000 HD 
HETATM   26  C   UNL     1     -10.122   7.971  67.794  1.00  0.00    -0.195 C  
HETATM   27  O   UNL     1      -8.924   9.268  66.205  1.00  0.00    -0.147 OA 
HETATM   28  O   UNL     1      -9.769   7.660  68.927  1.00  0.00    -0.153 OA 
ENDBRANCH  21  24
ENDBRANCH   4  21
ENDBRANCH   3   4
TORSDOF 6
ENDMDL
MODEL      139
REMARK 921   NORMALIZED FREE ENERGY PREDICTED BY IDOCK:   -4.07 KCAL/MOL
REMARK 922        TOTAL FREE ENERGY PREDICTED BY IDOCK:   -6.70 KCAL/MOL
REMARK 923 INTER-LIGAND FREE ENERGY PREDICTED BY IDOCK:   -5.53 KCAL/MOL
REMARK 924 INTRA-LIGAND FREE ENERGY PREDICTED BY IDOCK:   -1.17 KCAL/MOL
REMARK 927      BINDING AFFINITY PREDICTED BY RF-SCORE:    0.00 PKD
ROOT
HETATM    1  O   UNL     1      -8.898  13.089  68.586  1.00  0.00    -0.354 OA 
HETATM    2  H   UNL     1      -8.645  13.951  68.277  1.00  0.00     0.000 HD 
HETATM    3  C   UNL     1      -8.596  12.045  67.675  1.00  0.00    -0.163 C  
ENDROOT
BRANCH   3   4
HETATM    4  C   UNL     1      -9.007  10.641  68.178  1.00  0.00    -0.141 C  
BRANCH   4   5
HETATM    5  O   UNL     1     -10.422  10.438  68.347  1.00  0.00    -0.170 OA 
BRANCH   5   6
HETATM    6  C   UNL     1     -10.862  10.360  69.701  1.00  0.00    -0.277 C  
HETATM    7  C   UNL     1     -11.694   8.846  71.370  1.00  0.00    -0.315 C  
HETATM    8  O   UNL     1     -11.285   9.018  70.000  1.00  0.00    -0.221 OA 
HETATM    9  H   UNL     1     -12.355  13.322  69.799  1.00  0.00     0.000 HD 
HETATM   10  C   UNL     1     -12.857   9.781  71.734  1.00  0.00    -0.434 C  
HETATM   11  O   UNL     1     -11.644  12.711  69.648  1.00  0.00    -0.285 OA 
HETATM   12  O   UNL     1     -14.056   9.515  70.991  1.00  0.00    -0.375 OA 
HETATM   13  C   UNL     1     -12.447  11.227  71.427  1.00  0.00    -0.287 C  
HETATM   14  H   UNL     1     -14.776  10.093  71.216  1.00  0.00     0.000 HD 
HETATM   15  H   UNL     1     -13.261  13.012  71.584  1.00  0.00     0.000 HD 
HETATM   16  O   UNL     1     -13.515  12.116  71.774  1.00  0.00    -0.327 OA 
HETATM   17  C   UNL     1     -12.026  11.360  69.948  1.00  0.00    -0.359 C  
BRANCH   7  18
HETATM   18  C   UNL     1     -12.062   7.375  71.575  1.00  0.00    -0.327 C  
HETATM   19  O   UNL     1     -12.891   6.928  70.505  1.00  0.00    -0.535 OA 
HETATM   20  H   UNL     1     -13.119   6.015  70.632  1.00  0.00     0.000 HD 
ENDBRANCH   7  18
ENDBRANCH   5   6
ENDBRANCH   4   5
BRANCH   4  21
HETATM   21  C   UNL     1      -8.426   9.527  67.255  1.00  0.00    -0.128 C  
HETATM   22  H   UNL     1      -7.123   9.387  65.750  1.00  0.00     0.000 HD 
HETATM   23  O   UNL     1      -7.477  10.066  66.313  1.00  0.00    -0.100 OA 
BRANCH  21  24
HETATM   24  C   UNL     1      -9.503   8.795  66.447  1.00  0.00    -0.228 C  
HETATM   25  H   UNL     1     -10.382   9.025  64.701  1.00  0.00     0.000 HD 
HETATM   26  C   UNL     1      -9.130   7.361  66.105  1.00  0.00    -0.126 C  
HETATM   27  O   UNL     1      -9.715   9.479  65.201  1.00  0.00    -0.277 OA 
HETATM   28  O   UNL     1      -8.009   6.878  66.219  1.00  0.00    -0.101 OA 
ENDBRANCH  21  24
ENDBRANCH   4  21
ENDBRANCH   3   4
TORSDOF 6
ENDMDL
MODEL      140
REMARK 921   NORMALIZED FREE ENERGY PREDICTED BY IDOCK:   -4.03 KCAL/MOL
REMARK 922        TOTAL FREE ENERGY PREDICTED BY IDOCK:   -6.65 KCAL/MOL
REMARK 923 INTER-LIGAND FREE ENERGY PREDICTED BY IDOCK:   -6.99 KCAL/MOL
REMARK 924 INTRA-LIGAND FREE ENERGY PREDICTED BY IDOCK:    0.34 KCAL/MOL
REMARK 927      BINDING AFFINITY PREDICTED BY RF-SCORE:    0.00 PKD
ROOT
HETATM    1  O   UNL     1     -13.001  14.312  64.707  1.00  0.00    -0.653 OA 
HETATM    2  H   UNL     1     -13.631  14.469  64.012  1.00  0.00     0.000 HD 
HETATM    3  C   UNL     1     -12.474  12.994  64.711  1.00  0.00    -0.427 C  
ENDROOT
BRANCH   3   4
HETATM    4  C   UNL     1     -11.450  12.737  65.842  1.00  0.00    -0.356 C  
BRANCH   4   5
HETATM    5  O   UNL     1     -11.919  11.909  66.921  1.00  0.00    -0.614 OA 
BRANCH   5   6
HETATM    6  C   UNL     1     -11.625  12.397  68.227  1.00  0.00    -0.333 C  
HETATM    7  C   UNL     1     -12.153  12.113  70.553  1.00  0.00    -0.293 C  
HETATM    8  O   UNL     1     -12.432  11.711  69.199  1.00  0.00    -0.208 OA 
HETATM    9  H   UNL     1     -11.253  15.585  67.379  1.00  0.00     0.000 HD 
HETATM   10  C   UNL     1     -12.382  13.618  70.755  1.00  0.00    -0.371 C  
HETATM   11  O   UNL     1     -11.098  14.649  67.335  1.00  0.00    -0.304 OA 
HETATM   12  O   UNL     1     -13.748  14.018  70.562  1.00  0.00    -0.075 OA 
HETATM   13  C   UNL     1     -11.538  14.390  69.733  1.00  0.00    -0.298 C  
HETATM   14  H   UNL     1     -13.890  14.949  70.687  1.00  0.00     0.000 HD 
HETATM   15  H   UNL     1     -11.204  16.276  69.282  1.00  0.00     0.000 HD 
HETATM   16  O   UNL     1     -11.727  15.798  69.915  1.00  0.00    -0.331 OA 
HETATM   17  C   UNL     1     -11.880  13.930  68.300  1.00  0.00    -0.376 C  
BRANCH   7  18
HETATM   18  C   UNL     1     -13.028  11.275  71.488  1.00  0.00    -0.415 C  
HETATM   19  O   UNL     1     -13.206   9.969  70.945  1.00  0.00    -0.490 OA 
HETATM   20  H   UNL     1     -13.749   9.449  71.525  1.00  0.00     0.000 HD 
ENDBRANCH   7  18
ENDBRANCH   5   6
ENDBRANCH   4   5
BRANCH   4  21
HETATM   21  C   UNL     1     -10.126  12.148  65.268  1.00  0.00    -0.265 C  
HETATM   22  H   UNL     1      -9.300  11.840  63.478  1.00  0.00     0.000 HD 
HETATM   23  O   UNL     1     -10.107  12.199  63.827  1.00  0.00    -0.371 OA 
BRANCH  21  24
HETATM   24  C   UNL     1      -9.892  10.690  65.675  1.00  0.00    -0.251 C  
HETATM   25  H   UNL     1      -9.682   8.965  64.750  1.00  0.00     0.000 HD 
HETATM   26  C   UNL     1      -8.592  10.475  66.434  1.00  0.00    -0.144 C  
HETATM   27  O   UNL     1      -9.827   9.869  64.497  1.00  0.00    -0.261 OA 
HETATM   28  O   UNL     1      -7.682  11.293  66.518  1.00  0.00    -0.152 OA 
ENDBRANCH  21  24
ENDBRANCH   4  21
ENDBRANCH   3   4
TORSDOF 6
ENDMDL
MODEL      141
REMARK 921   NORMALIZED FREE ENERGY PREDICTED BY IDOCK:   -4.03 KCAL/MOL
REMARK 922        TOTAL FREE ENERGY PREDICTED BY IDOCK:   -6.64 KCAL/MOL
REMARK 923 INTER-LIGAND FREE ENERGY PREDICTED BY IDOCK:   -5.94 KCAL/MOL
REMARK 924 INTRA-LIGAND FREE ENERGY PREDICTED BY IDOCK:   -0.70 KCAL/MOL
REMARK 927      BINDING AFFINITY PREDICTED BY RF-SCORE:    0.00 PKD
ROOT
HETATM    1  O   UNL     1     -12.613  14.354  68.589  1.00  0.00    -0.542 OA 
HETATM    2  H   UNL     1     -13.070  14.158  69.399  1.00  0.00     0.000 HD 
HETATM    3  C   UNL     1     -11.255  13.942  68.587  1.00  0.00    -0.270 C  
ENDROOT
BRANCH   3   4
HETATM    4  C   UNL     1     -10.509  14.261  67.270  1.00  0.00    -0.269 C  
BRANCH   4   5
HETATM    5  O   UNL     1      -9.086  14.429  67.394  1.00  0.00    -0.183 OA 
BRANCH   5   6
HETATM    6  C   UNL     1      -8.676  15.447  68.304  1.00  0.00    -0.164 C  
HETATM    7  C   UNL     1      -9.173  17.675  69.051  1.00  0.00    -0.054 C  
HETATM    8  O   UNL     1      -9.492  16.617  68.127  1.00  0.00    -0.220 OA 
HETATM    9  H   UNL     1      -5.415  14.859  68.107  1.00  0.00     0.000 HD 
HETATM   10  C   UNL     1      -7.708  18.118  68.920  1.00  0.00    -0.199 C  
HETATM   11  O   UNL     1      -6.331  14.647  68.241  1.00  0.00    -0.102 OA 
HETATM   12  O   UNL     1      -7.398  18.688  67.639  1.00  0.00    -0.221 OA 
HETATM   13  C   UNL     1      -6.801  16.894  69.100  1.00  0.00    -0.238 C  
HETATM   14  H   UNL     1      -6.492  18.963  67.557  1.00  0.00     0.000 HD 
HETATM   15  H   UNL     1      -4.867  16.533  69.108  1.00  0.00     0.000 HD 
HETATM   16  O   UNL     1      -5.429  17.290  68.995  1.00  0.00    -0.149 OA 
HETATM   17  C   UNL     1      -7.177  15.795  68.084  1.00  0.00    -0.118 C  
BRANCH   7  18
HETATM   18  C   UNL     1     -10.142  18.833  68.801  1.00  0.00    -0.354 C  
HETATM   19  O   UNL     1     -10.600  18.800  67.452  1.00  0.00    -0.411 OA 
HETATM   20  H   UNL     1     -11.202  19.518  67.297  1.00  0.00     0.000 HD 
ENDBRANCH   7  18
ENDBRANCH   5   6
ENDBRANCH   4   5
BRANCH   4  21
HETATM   21  C   UNL     1     -10.817  13.186  66.183  1.00  0.00    -0.279 C  
HETATM   22  H   UNL     1      -9.957  11.542  65.448  1.00  0.00     0.000 HD 
HETATM   23  O   UNL     1      -9.770  12.196  66.111  1.00  0.00    -0.232 OA 
BRANCH  21  24
HETATM   24  C   UNL     1     -10.978  13.781  64.780  1.00  0.00    -0.392 C  
HETATM   25  H   UNL     1     -10.857  13.125  62.928  1.00  0.00     0.000 HD 
HETATM   26  C   UNL     1     -12.365  14.348  64.521  1.00  0.00    -0.418 C  
HETATM   27  O   UNL     1     -10.757  12.756  63.797  1.00  0.00    -0.413 OA 
HETATM   28  O   UNL     1     -13.349  14.154  65.226  1.00  0.00    -0.715 OA 
ENDBRANCH  21  24
ENDBRANCH   4  21
ENDBRANCH   3   4
TORSDOF 6
ENDMDL
MODEL      142
REMARK 921   NORMALIZED FREE ENERGY PREDICTED BY IDOCK:   -4.02 KCAL/MOL
REMARK 922        TOTAL FREE ENERGY PREDICTED BY IDOCK:   -6.64 KCAL/MOL
REMARK 923 INTER-LIGAND FREE ENERGY PREDICTED BY IDOCK:   -5.94 KCAL/MOL
REMARK 924 INTRA-LIGAND FREE ENERGY PREDICTED BY IDOCK:   -0.70 KCAL/MOL
REMARK 927      BINDING AFFINITY PREDICTED BY RF-SCORE:    0.00 PKD
ROOT
HETATM    1  O   UNL     1     -11.456   6.367  66.738  1.00  0.00    -0.733 OA 
HETATM    2  H   UNL     1     -11.516   5.429  66.603  1.00  0.00     0.000 HD 
HETATM    3  C   UNL     1     -10.606   6.736  67.813  1.00  0.00    -0.249 C  
ENDROOT
BRANCH   3   4
HETATM    4  C   UNL     1     -10.509   8.264  68.034  1.00  0.00    -0.181 C  
BRANCH   4   5
HETATM    5  O   UNL     1      -9.639   8.677  69.103  1.00  0.00    -0.160 OA 
BRANCH   5   6
HETATM    6  C   UNL     1     -10.257   8.758  70.385  1.00  0.00    -0.197 C  
HETATM    7  C   UNL     1     -11.311   7.448  72.100  1.00  0.00    -0.271 C  
HETATM    8  O   UNL     1     -10.721   7.457  70.787  1.00  0.00    -0.225 OA 
HETATM    9  H   UNL     1     -11.739  11.692  69.922  1.00  0.00     0.000 HD 
HETATM   10  C   UNL     1     -12.510   8.404  72.189  1.00  0.00    -0.370 C  
HETATM   11  O   UNL     1     -11.016  11.075  69.943  1.00  0.00    -0.239 OA 
HETATM   12  O   UNL     1     -13.599   8.035  71.330  1.00  0.00    -0.521 OA 
HETATM   13  C   UNL     1     -12.057   9.808  71.766  1.00  0.00    -0.346 C  
HETATM   14  H   UNL     1     -14.341   8.627  71.385  1.00  0.00     0.000 HD 
HETATM   15  H   UNL     1     -12.878  11.588  71.594  1.00  0.00     0.000 HD 
HETATM   16  O   UNL     1     -13.158  10.719  71.856  1.00  0.00    -0.481 OA 
HETATM   17  C   UNL     1     -11.440   9.767  70.351  1.00  0.00    -0.280 C  
BRANCH   7  18
HETATM   18  C   UNL     1     -11.709   6.007  72.432  1.00  0.00    -0.271 C  
HETATM   19  O   UNL     1     -10.541   5.217  72.638  1.00  0.00    -0.208 OA 
HETATM   20  H   UNL     1     -10.788   4.323  72.844  1.00  0.00     0.000 HD 
ENDBRANCH   7  18
ENDBRANCH   5   6
ENDBRANCH   4   5
BRANCH   4  21
HETATM   21  C   UNL     1     -10.101   8.991  66.717  1.00  0.00    -0.274 C  
HETATM   22  H   UNL     1      -9.014   8.599  65.089  1.00  0.00     0.000 HD 
HETATM   23  O   UNL     1      -9.264   8.156  65.892  1.00  0.00    -0.171 OA 
BRANCH  21  24
HETATM   24  C   UNL     1      -9.337  10.297  66.965  1.00  0.00    -0.154 C  
HETATM   25  H   UNL     1      -7.512  10.965  66.651  1.00  0.00     0.000 HD 
HETATM   26  C   UNL     1      -9.932  11.492  66.237  1.00  0.00    -0.220 C  
HETATM   27  O   UNL     1      -7.985  10.156  66.497  1.00  0.00    -0.114 OA 
HETATM   28  O   UNL     1     -10.773  11.427  65.346  1.00  0.00    -0.277 OA 
ENDBRANCH  21  24
ENDBRANCH   4  21
ENDBRANCH   3   4
TORSDOF 6
ENDMDL
MODEL      143
REMARK 921   NORMALIZED FREE ENERGY PREDICTED BY IDOCK:   -4.02 KCAL/MOL
REMARK 922        TOTAL FREE ENERGY PREDICTED BY IDOCK:   -6.64 KCAL/MOL
REMARK 923 INTER-LIGAND FREE ENERGY PREDICTED BY IDOCK:   -5.73 KCAL/MOL
REMARK 924 INTRA-LIGAND FREE ENERGY PREDICTED BY IDOCK:   -0.91 KCAL/MOL
REMARK 927      BINDING AFFINITY PREDICTED BY RF-SCORE:    0.00 PKD
ROOT
HETATM    1  O   UNL     1     -12.224  10.822  68.232  1.00  0.00    -0.815 OA 
HETATM    2  H   UNL     1     -12.460   9.944  68.508  1.00  0.00     0.000 HD 
HETATM    3  C   UNL     1     -10.824  11.038  68.154  1.00  0.00    -0.226 C  
ENDROOT
BRANCH   3   4
HETATM    4  C   UNL     1     -10.439  12.468  67.705  1.00  0.00    -0.217 C  
BRANCH   4   5
HETATM    5  O   UNL     1      -9.937  12.576  66.360  1.00  0.00    -0.240 OA 
BRANCH   5   6
HETATM    6  C   UNL     1      -9.438  11.362  65.804  1.00  0.00    -0.233 C  
HETATM    7  C   UNL     1      -7.448  10.044  65.532  1.00  0.00    -0.137 C  
HETATM    8  O   UNL     1      -8.019  11.273  66.020  1.00  0.00    -0.102 OA 
HETATM    9  H   UNL     1     -11.362  11.349  63.100  1.00  0.00     0.000 HD 
HETATM   10  C   UNL     1      -7.689   9.867  64.025  1.00  0.00    -0.141 C  
HETATM   11  O   UNL     1     -11.166  11.390  64.029  1.00  0.00    -0.368 OA 
HETATM   12  O   UNL     1      -7.053  10.874  63.224  1.00  0.00    -0.342 OA 
HETATM   13  C   UNL     1      -9.196   9.958  63.750  1.00  0.00    -0.243 C  
HETATM   14  H   UNL     1      -7.202  10.765  62.292  1.00  0.00     0.000 HD 
HETATM   15  H   UNL     1     -10.377   9.836  62.181  1.00  0.00     0.000 HD 
HETATM   16  O   UNL     1      -9.444   9.781  62.351  1.00  0.00    -0.259 OA 
HETATM   17  C   UNL     1      -9.758  11.293  64.284  1.00  0.00    -0.256 C  
BRANCH   7  18
HETATM   18  C   UNL     1      -5.955  10.046  65.871  1.00  0.00    -0.077 C  
HETATM   19  O   UNL     1      -5.340  11.221  65.350  1.00  0.00    -0.461 OA 
HETATM   20  H   UNL     1      -4.414  11.222  65.560  1.00  0.00     0.000 HD 
ENDBRANCH   7  18
ENDBRANCH   5   6
ENDBRANCH   4   5
BRANCH   4  21
HETATM   21  C   UNL     1     -11.632  13.451  67.898  1.00  0.00    -0.339 C  
HETATM   22  H   UNL     1     -12.911  14.466  66.749  1.00  0.00     0.000 HD 
HETATM   23  O   UNL     1     -12.183  13.866  66.631  1.00  0.00    -0.437 OA 
BRANCH  21  24
HETATM   24  C   UNL     1     -11.245  14.721  68.663  1.00  0.00    -0.273 C  
HETATM   25  H   UNL     1     -11.896  16.576  68.775  1.00  0.00     0.000 HD 
HETATM   26  C   UNL     1     -11.336  14.567  70.173  1.00  0.00    -0.197 C  
HETATM   27  O   UNL     1     -12.136  15.789  68.300  1.00  0.00    -0.106 OA 
HETATM   28  O   UNL     1     -11.888  13.638  70.755  1.00  0.00    -0.256 OA 
ENDBRANCH  21  24
ENDBRANCH   4  21
ENDBRANCH   3   4
TORSDOF 6
ENDMDL
MODEL      144
REMARK 921   NORMALIZED FREE ENERGY PREDICTED BY IDOCK:   -4.02 KCAL/MOL
REMARK 922        TOTAL FREE ENERGY PREDICTED BY IDOCK:   -6.64 KCAL/MOL
REMARK 923 INTER-LIGAND FREE ENERGY PREDICTED BY IDOCK:   -5.92 KCAL/MOL
REMARK 924 INTRA-LIGAND FREE ENERGY PREDICTED BY IDOCK:   -0.72 KCAL/MOL
REMARK 927      BINDING AFFINITY PREDICTED BY RF-SCORE:    0.00 PKD
ROOT
HETATM    1  O   UNL     1      -6.027  17.331  66.800  1.00  0.00    -0.160 OA 
HETATM    2  H   UNL     1      -5.206  17.617  66.414  1.00  0.00     0.000 HD 
HETATM    3  C   UNL     1      -7.125  17.379  65.903  1.00  0.00    -0.117 C  
ENDROOT
BRANCH   3   4
HETATM    4  C   UNL     1      -8.461  16.914  66.530  1.00  0.00    -0.271 C  
BRANCH   4   5
HETATM    5  O   UNL     1      -8.336  16.042  67.668  1.00  0.00    -0.148 OA 
BRANCH   5   6
HETATM    6  C   UNL     1      -9.136  14.863  67.614  1.00  0.00    -0.183 C  
HETATM    7  C   UNL     1     -10.343  13.422  66.119  1.00  0.00    -0.295 C  
HETATM    8  O   UNL     1      -9.571  14.629  66.263  1.00  0.00    -0.282 OA 
HETATM    9  H   UNL     1     -10.717  15.332  70.495  1.00  0.00     0.000 HD 
HETATM   10  C   UNL     1     -11.599  13.444  67.002  1.00  0.00    -0.356 C  
HETATM   11  O   UNL     1      -9.968  15.248  69.917  1.00  0.00    -0.244 OA 
HETATM   12  O   UNL     1     -12.528  14.480  66.647  1.00  0.00    -0.494 OA 
HETATM   13  C   UNL     1     -11.179  13.695  68.456  1.00  0.00    -0.280 C  
HETATM   14  H   UNL     1     -13.305  14.494  67.193  1.00  0.00     0.000 HD 
HETATM   15  H   UNL     1     -12.076  13.860  70.200  1.00  0.00     0.000 HD 
HETATM   16  O   UNL     1     -12.337  13.705  69.299  1.00  0.00    -0.288 OA 
HETATM   17  C   UNL     1     -10.363  15.001  68.560  1.00  0.00    -0.230 C  
BRANCH   7  18
HETATM   18  C   UNL     1     -10.693  13.256  64.638  1.00  0.00    -0.400 C  
HETATM   19  O   UNL     1     -11.261  11.968  64.414  1.00  0.00    -0.315 OA 
HETATM   20  H   UNL     1     -11.478  11.866  63.495  1.00  0.00     0.000 HD 
ENDBRANCH   7  18
ENDBRANCH   5   6
ENDBRANCH   4   5
BRANCH   4  21
HETATM   21  C   UNL     1      -9.355  18.135  66.903  1.00  0.00    -0.278 C  
HETATM   22  H   UNL     1     -11.244  18.720  66.632  1.00  0.00     0.000 HD 
HETATM   23  O   UNL     1     -10.699  17.975  66.405  1.00  0.00    -0.284 OA 
BRANCH  21  24
HETATM   24  C   UNL     1      -8.820  19.461  66.351  1.00  0.00    -0.359 C  
HETATM   25  H   UNL     1      -9.586  21.083  65.541  1.00  0.00     0.000 HD 
HETATM   26  C   UNL     1      -8.080  20.291  67.388  1.00  0.00    -0.336 C  
HETATM   27  O   UNL     1      -9.918  20.262  65.882  1.00  0.00    -0.411 OA 
HETATM   28  O   UNL     1      -8.097  20.088  68.597  1.00  0.00    -0.185 OA 
ENDBRANCH  21  24
ENDBRANCH   4  21
ENDBRANCH   3   4
TORSDOF 6
ENDMDL
MODEL      145
REMARK 921   NORMALIZED FREE ENERGY PREDICTED BY IDOCK:   -4.01 KCAL/MOL
REMARK 922        TOTAL FREE ENERGY PREDICTED BY IDOCK:   -6.62 KCAL/MOL
REMARK 923 INTER-LIGAND FREE ENERGY PREDICTED BY IDOCK:   -5.96 KCAL/MOL
REMARK 924 INTRA-LIGAND FREE ENERGY PREDICTED BY IDOCK:   -0.66 KCAL/MOL
REMARK 927      BINDING AFFINITY PREDICTED BY RF-SCORE:    0.00 PKD
ROOT
HETATM    1  O   UNL     1      -6.550  10.392  67.797  1.00  0.00    -0.064 OA 
HETATM    2  H   UNL     1      -5.614  10.270  67.685  1.00  0.00     0.000 HD 
HETATM    3  C   UNL     1      -7.252  10.572  66.577  1.00  0.00    -0.124 C  
ENDROOT
BRANCH   3   4
HETATM    4  C   UNL     1      -8.775  10.770  66.759  1.00  0.00    -0.143 C  
BRANCH   4   5
HETATM    5  O   UNL     1      -9.483  11.207  65.584  1.00  0.00    -0.208 OA 
BRANCH   5   6
HETATM    6  C   UNL     1      -9.967  12.547  65.635  1.00  0.00    -0.245 C  
HETATM    7  C   UNL     1     -10.108  14.490  67.039  1.00  0.00    -0.254 C  
HETATM    8  O   UNL     1      -9.695  13.115  66.928  1.00  0.00    -0.230 OA 
HETATM    9  H   UNL     1     -12.738  12.030  63.882  1.00  0.00     0.000 HD 
HETATM   10  C   UNL     1     -11.613  14.652  66.781  1.00  0.00    -0.360 C  
HETATM   11  O   UNL     1     -11.805  12.010  64.062  1.00  0.00    -0.391 OA 
HETATM   12  O   UNL     1     -12.434  13.977  67.746  1.00  0.00    -0.490 OA 
HETATM   13  C   UNL     1     -11.948  14.054  65.408  1.00  0.00    -0.380 C  
HETATM   14  H   UNL     1     -13.365  14.077  67.586  1.00  0.00     0.000 HD 
HETATM   15  H   UNL     1     -13.553  13.839  64.291  1.00  0.00     0.000 HD 
HETATM   16  O   UNL     1     -13.346  14.208  65.141  1.00  0.00    -0.684 OA 
HETATM   17  C   UNL     1     -11.494  12.580  65.341  1.00  0.00    -0.344 C  
BRANCH   7  18
HETATM   18  C   UNL     1      -9.714  14.993  68.431  1.00  0.00    -0.216 C  
HETATM   19  O   UNL     1      -9.035  13.964  69.145  1.00  0.00    -0.368 OA 
HETATM   20  H   UNL     1      -8.791  14.276  70.008  1.00  0.00     0.000 HD 
ENDBRANCH   7  18
ENDBRANCH   5   6
ENDBRANCH   4   5
BRANCH   4  21
HETATM   21  C   UNL     1      -9.441   9.478  67.321  1.00  0.00    -0.136 C  
HETATM   22  H   UNL     1     -10.989   8.300  66.874  1.00  0.00     0.000 HD 
HETATM   23  O   UNL     1     -10.583   9.088  66.531  1.00  0.00    -0.178 OA 
BRANCH  21  24
HETATM   24  C   UNL     1      -9.919   9.631  68.768  1.00  0.00    -0.173 C  
HETATM   25  H   UNL     1      -9.263  10.507  70.404  1.00  0.00     0.000 HD 
HETATM   26  C   UNL     1     -11.259  10.339  68.890  1.00  0.00    -0.207 C  
HETATM   27  O   UNL     1      -8.966  10.413  69.507  1.00  0.00    -0.182 OA 
HETATM   28  O   UNL     1     -11.814  10.958  67.988  1.00  0.00    -0.585 OA 
ENDBRANCH  21  24
ENDBRANCH   4  21
ENDBRANCH   3   4
TORSDOF 6
ENDMDL
MODEL      146
REMARK 921   NORMALIZED FREE ENERGY PREDICTED BY IDOCK:   -4.00 KCAL/MOL
REMARK 922        TOTAL FREE ENERGY PREDICTED BY IDOCK:   -6.61 KCAL/MOL
REMARK 923 INTER-LIGAND FREE ENERGY PREDICTED BY IDOCK:   -5.32 KCAL/MOL
REMARK 924 INTRA-LIGAND FREE ENERGY PREDICTED BY IDOCK:   -1.28 KCAL/MOL
REMARK 927      BINDING AFFINITY PREDICTED BY RF-SCORE:    0.00 PKD
ROOT
HETATM    1  O   UNL     1      -7.202  13.550  69.869  1.00  0.00    -0.246 OA 
HETATM    2  H   UNL     1      -6.770  13.246  70.659  1.00  0.00     0.000 HD 
HETATM    3  C   UNL     1      -7.159  14.958  69.702  1.00  0.00    -0.179 C  
ENDROOT
BRANCH   3   4
HETATM    4  C   UNL     1      -7.862  15.455  68.417  1.00  0.00    -0.129 C  
BRANCH   4   5
HETATM    5  O   UNL     1      -7.015  16.140  67.476  1.00  0.00    -0.136 OA 
BRANCH   5   6
HETATM    6  C   UNL     1      -7.168  17.557  67.449  1.00  0.00    -0.169 C  
HETATM    7  C   UNL     1      -8.657  19.345  68.048  1.00  0.00    -0.324 C  
HETATM    8  O   UNL     1      -8.449  17.921  67.992  1.00  0.00    -0.243 OA 
HETATM    9  H   UNL     1      -5.680  18.055  64.524  1.00  0.00     0.000 HD 
HETATM   10  C   UNL     1      -8.556  19.986  66.656  1.00  0.00    -0.321 C  
HETATM   11  O   UNL     1      -5.766  17.732  65.414  1.00  0.00    -0.091 OA 
HETATM   12  O   UNL     1      -9.570  19.535  65.745  1.00  0.00    -0.393 OA 
HETATM   13  C   UNL     1      -7.200  19.620  66.038  1.00  0.00    -0.291 C  
HETATM   14  H   UNL     1      -9.508  19.932  64.884  1.00  0.00     0.000 HD 
HETATM   15  H   UNL     1      -6.240  19.995  64.362  1.00  0.00     0.000 HD 
HETATM   16  O   UNL     1      -7.080  20.221  64.744  1.00  0.00    -0.243 OA 
HETATM   17  C   UNL     1      -7.029  18.086  65.993  1.00  0.00    -0.305 C  
BRANCH   7  18
HETATM   18  C   UNL     1     -10.021  19.601  68.693  1.00  0.00    -0.458 C  
HETATM   19  O   UNL     1     -10.978  18.672  68.191  1.00  0.00    -0.260 OA 
HETATM   20  H   UNL     1     -11.824  18.831  68.592  1.00  0.00     0.000 HD 
ENDBRANCH   7  18
ENDBRANCH   5   6
ENDBRANCH   4   5
BRANCH   4  21
HETATM   21  C   UNL     1      -8.600  14.284  67.699  1.00  0.00    -0.183 C  
HETATM   22  H   UNL     1      -8.120  12.574  66.788  1.00  0.00     0.000 HD 
HETATM   23  O   UNL     1      -7.671  13.288  67.226  1.00  0.00    -0.157 OA 
BRANCH  21  24
HETATM   24  C   UNL     1      -9.426  14.744  66.494  1.00  0.00    -0.293 C  
HETATM   25  H   UNL     1     -10.350  13.884  64.983  1.00  0.00     0.000 HD 
HETATM   26  C   UNL     1     -10.692  15.494  66.880  1.00  0.00    -0.317 C  
HETATM   27  O   UNL     1      -9.838  13.598  65.730  1.00  0.00    -0.274 OA 
HETATM   28  O   UNL     1     -11.171  15.533  68.009  1.00  0.00    -0.313 OA 
ENDBRANCH  21  24
ENDBRANCH   4  21
ENDBRANCH   3   4
TORSDOF 6
ENDMDL
MODEL      147
REMARK 921   NORMALIZED FREE ENERGY PREDICTED BY IDOCK:   -3.99 KCAL/MOL
REMARK 922        TOTAL FREE ENERGY PREDICTED BY IDOCK:   -6.60 KCAL/MOL
REMARK 923 INTER-LIGAND FREE ENERGY PREDICTED BY IDOCK:   -5.74 KCAL/MOL
REMARK 924 INTRA-LIGAND FREE ENERGY PREDICTED BY IDOCK:   -0.86 KCAL/MOL
REMARK 927      BINDING AFFINITY PREDICTED BY RF-SCORE:    0.00 PKD
ROOT
HETATM    1  O   UNL     1      -9.935  10.246  64.557  1.00  0.00    -0.339 OA 
HETATM    2  H   UNL     1      -9.999   9.961  63.652  1.00  0.00     0.000 HD 
HETATM    3  C   UNL     1     -10.692  11.411  64.844  1.00  0.00    -0.286 C  
ENDROOT
BRANCH   3   4
HETATM    4  C   UNL     1     -10.587  11.874  66.317  1.00  0.00    -0.253 C  
BRANCH   4   5
HETATM    5  O   UNL     1     -11.276  13.098  66.627  1.00  0.00    -0.289 OA 
BRANCH   5   6
HETATM    6  C   UNL     1     -10.591  13.963  67.531  1.00  0.00    -0.256 C  
HETATM    7  C   UNL     1     -10.768  15.044  69.668  1.00  0.00    -0.257 C  
HETATM    8  O   UNL     1     -11.415  14.219  68.681  1.00  0.00    -0.263 OA 
HETATM    9  H   UNL     1      -9.181  15.896  65.231  1.00  0.00     0.000 HD 
HETATM   10  C   UNL     1     -10.363  16.407  69.088  1.00  0.00    -0.289 C  
HETATM   11  O   UNL     1      -9.407  15.080  65.663  1.00  0.00    -0.247 OA 
HETATM   12  O   UNL     1     -11.481  17.203  68.667  1.00  0.00    -0.050 OA 
HETATM   13  C   UNL     1      -9.482  16.179  67.853  1.00  0.00    -0.214 C  
HETATM   14  H   UNL     1     -11.231  18.047  68.308  1.00  0.00     0.000 HD 
HETATM   15  H   UNL     1      -8.535  17.299  66.541  1.00  0.00     0.000 HD 
HETATM   16  O   UNL     1      -9.081  17.440  67.305  1.00  0.00    -0.232 OA 
HETATM   17  C   UNL     1     -10.221  15.298  66.824  1.00  0.00    -0.272 C  
BRANCH   7  18
HETATM   18  C   UNL     1     -11.718  15.194  70.859  1.00  0.00    -0.332 C  
HETATM   19  O   UNL     1     -13.069  15.195  70.405  1.00  0.00    -0.617 OA 
HETATM   20  H   UNL     1     -13.659  15.288  71.144  1.00  0.00     0.000 HD 
ENDBRANCH   7  18
ENDBRANCH   5   6
ENDBRANCH   4   5
BRANCH   4  21
HETATM   21  C   UNL     1     -11.056  10.749  67.288  1.00  0.00    -0.270 C  
HETATM   22  H   UNL     1     -12.535  10.447  68.594  1.00  0.00     0.000 HD 
HETATM   23  O   UNL     1     -12.249  11.133  68.002  1.00  0.00    -0.584 OA 
BRANCH  21  24
HETATM   24  C   UNL     1      -9.999  10.380  68.334  1.00  0.00    -0.162 C  
HETATM   25  H   UNL     1      -9.722  10.695  70.258  1.00  0.00     0.000 HD 
HETATM   26  C   UNL     1      -9.836   8.881  68.526  1.00  0.00    -0.167 C  
HETATM   27  O   UNL     1     -10.378  10.924  69.610  1.00  0.00    -0.170 OA 
HETATM   28  O   UNL     1     -10.610   8.028  68.102  1.00  0.00    -0.193 OA 
ENDBRANCH  21  24
ENDBRANCH   4  21
ENDBRANCH   3   4
TORSDOF 6
ENDMDL
MODEL      148
REMARK 921   NORMALIZED FREE ENERGY PREDICTED BY IDOCK:   -3.97 KCAL/MOL
REMARK 922        TOTAL FREE ENERGY PREDICTED BY IDOCK:   -6.57 KCAL/MOL
REMARK 923 INTER-LIGAND FREE ENERGY PREDICTED BY IDOCK:   -6.50 KCAL/MOL
REMARK 924 INTRA-LIGAND FREE ENERGY PREDICTED BY IDOCK:   -0.07 KCAL/MOL
REMARK 927      BINDING AFFINITY PREDICTED BY RF-SCORE:    0.00 PKD
ROOT
HETATM    1  O   UNL     1     -13.014  15.671  70.127  1.00  0.00    -0.633 OA 
HETATM    2  H   UNL     1     -13.142  16.003  71.008  1.00  0.00     0.000 HD 
HETATM    3  C   UNL     1     -11.775  15.006  69.942  1.00  0.00    -0.307 C  
ENDROOT
BRANCH   3   4
HETATM    4  C   UNL     1     -11.567  14.464  68.508  1.00  0.00    -0.314 C  
BRANCH   4   5
HETATM    5  O   UNL     1     -11.336  15.464  67.500  1.00  0.00    -0.328 OA 
BRANCH   5   6
HETATM    6  C   UNL     1     -10.186  16.279  67.712  1.00  0.00    -0.270 C  
HETATM    7  C   UNL     1      -9.457  18.383  68.614  1.00  0.00    -0.335 C  
HETATM    8  O   UNL     1     -10.575  17.524  68.318  1.00  0.00    -0.372 OA 
HETATM    9  H   UNL     1      -8.611  15.476  64.903  1.00  0.00     0.000 HD 
HETATM   10  C   UNL     1      -8.655  18.724  67.350  1.00  0.00    -0.273 C  
HETATM   11  O   UNL     1      -9.059  15.318  65.726  1.00  0.00    -0.234 OA 
HETATM   12  O   UNL     1      -9.407  19.475  66.384  1.00  0.00    -0.346 OA 
HETATM   13  C   UNL     1      -8.221  17.420  66.670  1.00  0.00    -0.256 C  
HETATM   14  H   UNL     1      -8.911  19.686  65.601  1.00  0.00     0.000 HD 
HETATM   15  H   UNL     1      -7.190  16.909  65.073  1.00  0.00     0.000 HD 
HETATM   16  O   UNL     1      -7.459  17.717  65.494  1.00  0.00    -0.491 OA 
HETATM   17  C   UNL     1      -9.453  16.540  66.366  1.00  0.00    -0.288 C  
BRANCH   7  18
HETATM   18  C   UNL     1      -9.993  19.640  69.304  1.00  0.00    -0.269 C  
HETATM   19  O   UNL     1     -10.997  20.246  68.494  1.00  0.00    -0.044 OA 
HETATM   20  H   UNL     1     -11.330  21.026  68.922  1.00  0.00     0.000 HD 
ENDBRANCH   7  18
ENDBRANCH   5   6
ENDBRANCH   4   5
BRANCH   4  21
HETATM   21  C   UNL     1     -10.419  13.410  68.473  1.00  0.00    -0.252 C  
HETATM   22  H   UNL     1      -8.447  13.364  68.778  1.00  0.00     0.000 HD 
HETATM   23  O   UNL     1      -9.147  14.006  68.800  1.00  0.00    -0.144 OA 
BRANCH  21  24
HETATM   24  C   UNL     1     -10.267  12.735  67.106  1.00  0.00    -0.233 C  
HETATM   25  H   UNL     1      -8.873  11.707  66.168  1.00  0.00     0.000 HD 
HETATM   26  C   UNL     1     -11.287  11.635  66.858  1.00  0.00    -0.295 C  
HETATM   27  O   UNL     1      -8.968  12.125  67.015  1.00  0.00    -0.187 OA 
HETATM   28  O   UNL     1     -12.008  11.137  67.716  1.00  0.00    -0.630 OA 
ENDBRANCH  21  24
ENDBRANCH   4  21
ENDBRANCH   3   4
TORSDOF 6
ENDMDL
MODEL      149
REMARK 921   NORMALIZED FREE ENERGY PREDICTED BY IDOCK:   -3.97 KCAL/MOL
REMARK 922        TOTAL FREE ENERGY PREDICTED BY IDOCK:   -6.56 KCAL/MOL
REMARK 923 INTER-LIGAND FREE ENERGY PREDICTED BY IDOCK:   -6.23 KCAL/MOL
REMARK 924 INTRA-LIGAND FREE ENERGY PREDICTED BY IDOCK:   -0.33 KCAL/MOL
REMARK 927      BINDING AFFINITY PREDICTED BY RF-SCORE:    0.00 PKD
ROOT
HETATM    1  O   UNL     1      -6.420  16.617  69.255  1.00  0.00    -0.181 OA 
HETATM    2  H   UNL     1      -5.971  16.108  69.920  1.00  0.00     0.000 HD 
HETATM    3  C   UNL     1      -7.810  16.346  69.171  1.00  0.00    -0.214 C  
ENDROOT
BRANCH   3   4
HETATM    4  C   UNL     1      -8.541  17.175  68.088  1.00  0.00    -0.232 C  
BRANCH   4   5
HETATM    5  O   UNL     1      -9.841  17.666  68.462  1.00  0.00    -0.309 OA 
BRANCH   5   6
HETATM    6  C   UNL     1     -10.890  16.702  68.400  1.00  0.00    -0.361 C  
HETATM    7  C   UNL     1     -12.113  15.100  69.708  1.00  0.00    -0.319 C  
HETATM    8  O   UNL     1     -11.033  16.053  69.675  1.00  0.00    -0.275 OA 
HETATM    9  H   UNL     1     -10.251  15.625  65.326  1.00  0.00     0.000 HD 
HETATM   10  C   UNL     1     -11.925  13.997  68.656  1.00  0.00    -0.354 C  
HETATM   11  O   UNL     1     -10.432  16.265  66.004  1.00  0.00    -0.325 OA 
HETATM   12  O   UNL     1     -10.758  13.189  68.879  1.00  0.00    -0.306 OA 
HETATM   13  C   UNL     1     -11.765  14.648  67.276  1.00  0.00    -0.385 C  
HETATM   14  H   UNL     1     -10.642  12.506  68.229  1.00  0.00     0.000 HD 
HETATM   15  H   UNL     1     -11.505  14.037  65.424  1.00  0.00     0.000 HD 
HETATM   16  O   UNL     1     -11.603  13.634  66.279  1.00  0.00    -0.324 OA 
HETATM   17  C   UNL     1     -10.593  15.653  67.291  1.00  0.00    -0.305 C  
BRANCH   7  18
HETATM   18  C   UNL     1     -12.197  14.526  71.124  1.00  0.00    -0.345 C  
HETATM   19  O   UNL     1     -12.762  13.219  71.085  1.00  0.00    -0.357 OA 
HETATM   20  H   UNL     1     -12.814  12.862  71.964  1.00  0.00     0.000 HD 
ENDBRANCH   7  18
ENDBRANCH   5   6
ENDBRANCH   4   5
BRANCH   4  21
HETATM   21  C   UNL     1      -7.654  18.360  67.602  1.00  0.00    -0.229 C  
HETATM   22  H   UNL     1      -6.685  19.908  68.409  1.00  0.00     0.000 HD 
HETATM   23  O   UNL     1      -7.226  19.184  68.705  1.00  0.00    -0.306 OA 
BRANCH  21  24
HETATM   24  C   UNL     1      -8.370  19.275  66.602  1.00  0.00    -0.306 C  
HETATM   25  H   UNL     1      -9.516  20.873  66.696  1.00  0.00     0.000 HD 
HETATM   26  C   UNL     1      -7.425  19.972  65.637  1.00  0.00    -0.257 C  
HETATM   27  O   UNL     1      -9.072  20.307  67.316  1.00  0.00    -0.356 OA 
HETATM   28  O   UNL     1      -6.206  20.027  65.760  1.00  0.00    -0.185 OA 
ENDBRANCH  21  24
ENDBRANCH   4  21
ENDBRANCH   3   4
TORSDOF 6
ENDMDL
MODEL      150
REMARK 921   NORMALIZED FREE ENERGY PREDICTED BY IDOCK:   -3.97 KCAL/MOL
REMARK 922        TOTAL FREE ENERGY PREDICTED BY IDOCK:   -6.56 KCAL/MOL
REMARK 923 INTER-LIGAND FREE ENERGY PREDICTED BY IDOCK:   -5.74 KCAL/MOL
REMARK 924 INTRA-LIGAND FREE ENERGY PREDICTED BY IDOCK:   -0.82 KCAL/MOL
REMARK 927      BINDING AFFINITY PREDICTED BY RF-SCORE:    0.00 PKD
ROOT
HETATM    1  O   UNL     1     -11.109   7.898  67.916  1.00  0.00    -0.471 OA 
HETATM    2  H   UNL     1     -11.396   7.024  68.153  1.00  0.00     0.000 HD 
HETATM    3  C   UNL     1      -9.738   7.969  67.555  1.00  0.00    -0.161 C  
ENDROOT
BRANCH   3   4
HETATM    4  C   UNL     1      -9.269   9.392  67.168  1.00  0.00    -0.134 C  
BRANCH   4   5
HETATM    5  O   UNL     1     -10.252  10.430  67.334  1.00  0.00    -0.192 OA 
BRANCH   5   6
HETATM    6  C   UNL     1     -10.908  10.834  66.135  1.00  0.00    -0.054 C  
HETATM    7  C   UNL     1     -10.603  11.095  63.766  1.00  0.00    -0.356 C  
HETATM    8  O   UNL     1      -9.995  10.752  65.026  1.00  0.00    -0.255 OA 
HETATM    9  H   UNL     1     -12.689  13.294  67.474  1.00  0.00     0.000 HD 
HETATM   10  C   UNL     1     -11.170  12.522  63.782  1.00  0.00    -0.462 C  
HETATM   11  O   UNL     1     -12.357  12.408  67.385  1.00  0.00    -0.343 OA 
HETATM   12  O   UNL     1     -10.165  13.533  63.955  1.00  0.00    -0.723 OA 
HETATM   13  C   UNL     1     -12.150  12.654  64.954  1.00  0.00    -0.438 C  
HETATM   14  H   UNL     1     -10.516  14.416  63.964  1.00  0.00     0.000 HD 
HETATM   15  H   UNL     1     -13.308  14.057  65.703  1.00  0.00     0.000 HD 
HETATM   16  O   UNL     1     -12.701  13.976  64.977  1.00  0.00    -0.632 OA 
HETATM   17  C   UNL     1     -11.450  12.285  66.280  1.00  0.00    -0.380 C  
BRANCH   7  18
HETATM   18  C   UNL     1      -9.553  10.912  62.667  1.00  0.00    -0.255 C  
HETATM   19  O   UNL     1      -8.252  11.167  63.192  1.00  0.00    -0.393 OA 
HETATM   20  H   UNL     1      -7.601  11.054  62.510  1.00  0.00     0.000 HD 
ENDBRANCH   7  18
ENDBRANCH   5   6
ENDBRANCH   4   5
BRANCH   4  21
HETATM   21  C   UNL     1      -7.968   9.776  67.936  1.00  0.00    -0.104 C  
HETATM   22  H   UNL     1      -7.445  10.959  69.456  1.00  0.00     0.000 HD 
HETATM   23  O   UNL     1      -8.238  10.725  68.988  1.00  0.00    -0.142 OA 
BRANCH  21  24
HETATM   24  C   UNL     1      -6.897  10.392  67.031  1.00  0.00    -0.085 C  
HETATM   25  H   UNL     1      -5.143  11.252  67.276  1.00  0.00     0.000 HD 
HETATM   26  C   UNL     1      -6.309   9.407  66.034  1.00  0.00    -0.068 C  
HETATM   27  O   UNL     1      -5.806  10.870  67.837  1.00  0.00    -0.046 OA 
HETATM   28  O   UNL     1      -6.458   8.190  66.074  1.00  0.00    -0.045 OA 
ENDBRANCH  21  24
ENDBRANCH   4  21
ENDBRANCH   3   4
TORSDOF 6
ENDMDL
MODEL      151
REMARK 921   NORMALIZED FREE ENERGY PREDICTED BY IDOCK:   -3.93 KCAL/MOL
REMARK 922        TOTAL FREE ENERGY PREDICTED BY IDOCK:   -6.52 KCAL/MOL
REMARK 923 INTER-LIGAND FREE ENERGY PREDICTED BY IDOCK:   -6.23 KCAL/MOL
REMARK 924 INTRA-LIGAND FREE ENERGY PREDICTED BY IDOCK:   -0.29 KCAL/MOL
REMARK 927      BINDING AFFINITY PREDICTED BY RF-SCORE:    0.00 PKD
ROOT
HETATM    1  O   UNL     1     -11.204  17.485  64.496  1.00  0.00    -0.926 OA 
HETATM    2  H   UNL     1     -11.709  18.249  64.749  1.00  0.00     0.000 HD 
HETATM    3  C   UNL     1     -11.281  16.417  65.427  1.00  0.00     0.080 C  
ENDROOT
BRANCH   3   4
HETATM    4  C   UNL     1     -10.459  15.172  65.016  1.00  0.00    -0.389 C  
BRANCH   4   5
HETATM    5  O   UNL     1      -9.448  14.765  65.955  1.00  0.00    -0.297 OA 
BRANCH   5   6
HETATM    6  C   UNL     1      -8.923  15.813  66.767  1.00  0.00    -0.260 C  
HETATM    7  C   UNL     1      -8.359  18.148  66.771  1.00  0.00    -0.254 C  
HETATM    8  O   UNL     1      -8.832  17.026  66.001  1.00  0.00    -0.477 OA 
HETATM    9  H   UNL     1      -6.719  13.961  68.420  1.00  0.00     0.000 HD 
HETATM   10  C   UNL     1      -6.967  17.880  67.364  1.00  0.00    -0.186 C  
HETATM   11  O   UNL     1      -7.573  14.203  68.082  1.00  0.00    -0.112 OA 
HETATM   12  O   UNL     1      -5.948  17.704  66.368  1.00  0.00    -0.171 OA 
HETATM   13  C   UNL     1      -7.020  16.589  68.190  1.00  0.00    -0.144 C  
HETATM   14  H   UNL     1      -5.087  17.538  66.735  1.00  0.00     0.000 HD 
HETATM   15  H   UNL     1      -5.766  15.530  69.276  1.00  0.00     0.000 HD 
HETATM   16  O   UNL     1      -5.734  16.329  68.764  1.00  0.00    -0.108 OA 
HETATM   17  C   UNL     1      -7.524  15.417  67.320  1.00  0.00    -0.207 C  
BRANCH   7  18
HETATM   18  C   UNL     1      -8.363  19.382  65.865  1.00  0.00    -0.081 C  
HETATM   19  O   UNL     1      -7.460  20.360  66.373  1.00  0.00    -0.375 OA 
HETATM   20  H   UNL     1      -7.462  21.126  65.811  1.00  0.00     0.000 HD 
ENDBRANCH   7  18
ENDBRANCH   5   6
ENDBRANCH   4   5
BRANCH   4  21
HETATM   21  C   UNL     1     -11.396  13.967  64.701  1.00  0.00    -0.375 C  
HETATM   22  H   UNL     1     -12.839  13.519  63.397  1.00  0.00     0.000 HD 
HETATM   23  O   UNL     1     -12.267  14.254  63.589  1.00  0.00    -0.610 OA 
BRANCH  21  24
HETATM   24  C   UNL     1     -12.285  13.573  65.886  1.00  0.00    -0.460 C  
HETATM   25  H   UNL     1     -14.172  13.081  66.153  1.00  0.00     0.000 HD 
HETATM   26  C   UNL     1     -11.823  12.309  66.593  1.00  0.00    -0.289 C  
HETATM   27  O   UNL     1     -13.622  13.325  65.419  1.00  0.00    -0.299 OA 
HETATM   28  O   UNL     1     -10.992  11.520  66.155  1.00  0.00    -0.287 OA 
ENDBRANCH  21  24
ENDBRANCH   4  21
ENDBRANCH   3   4
TORSDOF 6
ENDMDL
MODEL      152
REMARK 921   NORMALIZED FREE ENERGY PREDICTED BY IDOCK:   -3.93 KCAL/MOL
REMARK 922        TOTAL FREE ENERGY PREDICTED BY IDOCK:   -6.52 KCAL/MOL
REMARK 923 INTER-LIGAND FREE ENERGY PREDICTED BY IDOCK:   -5.76 KCAL/MOL
REMARK 924 INTRA-LIGAND FREE ENERGY PREDICTED BY IDOCK:   -0.75 KCAL/MOL
REMARK 927      BINDING AFFINITY PREDICTED BY RF-SCORE:    0.00 PKD
ROOT
HETATM    1  O   UNL     1      -8.567   7.423  64.442  1.00  0.00    -0.362 OA 
HETATM    2  H   UNL     1      -7.912   7.140  63.814  1.00  0.00     0.000 HD 
HETATM    3  C   UNL     1      -8.157   7.289  65.794  1.00  0.00    -0.129 C  
ENDROOT
BRANCH   3   4
HETATM    4  C   UNL     1      -9.223   7.750  66.816  1.00  0.00    -0.163 C  
BRANCH   4   5
HETATM    5  O   UNL     1     -10.279   8.566  66.278  1.00  0.00    -0.237 OA 
BRANCH   5   6
HETATM    6  C   UNL     1     -10.082   9.971  66.410  1.00  0.00    -0.241 C  
HETATM    7  C   UNL     1     -10.774  11.904  67.657  1.00  0.00    -0.215 C  
HETATM    8  O   UNL     1     -10.954  10.494  67.427  1.00  0.00    -0.293 OA 
HETATM    9  H   UNL     1      -9.665  10.614  63.180  1.00  0.00     0.000 HD 
HETATM   10  C   UNL     1     -11.024  12.722  66.382  1.00  0.00    -0.276 C  
HETATM   11  O   UNL     1      -9.502  10.179  64.010  1.00  0.00    -0.271 OA 
HETATM   12  O   UNL     1     -12.374  12.630  65.902  1.00  0.00    -0.593 OA 
HETATM   13  C   UNL     1     -10.112  12.194  65.267  1.00  0.00    -0.265 C  
HETATM   14  H   UNL     1     -12.529  13.136  65.112  1.00  0.00     0.000 HD 
HETATM   15  H   UNL     1      -9.755  12.627  63.381  1.00  0.00     0.000 HD 
HETATM   16  O   UNL     1     -10.320  12.954  64.071  1.00  0.00    -0.422 OA 
HETATM   17  C   UNL     1     -10.348  10.683  65.053  1.00  0.00    -0.271 C  
BRANCH   7  18
HETATM   18  C   UNL     1     -11.710  12.323  68.794  1.00  0.00    -0.340 C  
HETATM   19  O   UNL     1     -11.192  11.870  70.042  1.00  0.00    -0.495 OA 
HETATM   20  H   UNL     1     -11.773  12.130  70.747  1.00  0.00     0.000 HD 
ENDBRANCH   7  18
ENDBRANCH   5   6
ENDBRANCH   4   5
BRANCH   4  21
HETATM   21  C   UNL     1      -9.835   6.530  67.568  1.00  0.00    -0.124 C  
HETATM   22  H   UNL     1     -11.403   5.310  67.374  1.00  0.00     0.000 HD 
HETATM   23  O   UNL     1     -11.029   6.054  66.915  1.00  0.00    -0.318 OA 
BRANCH  21  24
HETATM   24  C   UNL     1     -10.207   6.847  69.021  1.00  0.00    -0.181 C  
HETATM   25  H   UNL     1     -10.970   5.863  70.546  1.00  0.00     0.000 HD 
HETATM   26  C   UNL     1      -9.024   7.296  69.863  1.00  0.00    -0.142 C  
HETATM   27  O   UNL     1     -10.739   5.667  69.646  1.00  0.00    -0.311 OA 
HETATM   28  O   UNL     1      -7.846   7.194  69.535  1.00  0.00    -0.114 OA 
ENDBRANCH  21  24
ENDBRANCH   4  21
ENDBRANCH   3   4
TORSDOF 6
ENDMDL
MODEL      153
REMARK 921   NORMALIZED FREE ENERGY PREDICTED BY IDOCK:   -3.93 KCAL/MOL
REMARK 922        TOTAL FREE ENERGY PREDICTED BY IDOCK:   -6.51 KCAL/MOL
REMARK 923 INTER-LIGAND FREE ENERGY PREDICTED BY IDOCK:   -5.46 KCAL/MOL
REMARK 924 INTRA-LIGAND FREE ENERGY PREDICTED BY IDOCK:   -1.05 KCAL/MOL
REMARK 927      BINDING AFFINITY PREDICTED BY RF-SCORE:    0.00 PKD
ROOT
HETATM    1  O   UNL     1      -7.107  13.633  69.899  1.00  0.00    -0.336 OA 
HETATM    2  H   UNL     1      -6.388  13.516  70.509  1.00  0.00     0.000 HD 
HETATM    3  C   UNL     1      -7.562  14.974  69.804  1.00  0.00    -0.072 C  
ENDROOT
BRANCH   3   4
HETATM    4  C   UNL     1      -8.733  15.166  68.812  1.00  0.00    -0.194 C  
BRANCH   4   5
HETATM    5  O   UNL     1      -8.399  14.988  67.424  1.00  0.00    -0.163 OA 
BRANCH   5   6
HETATM    6  C   UNL     1      -8.686  16.105  66.587  1.00  0.00    -0.265 C  
HETATM    7  C   UNL     1      -8.808  18.504  66.552  1.00  0.00    -0.293 C  
HETATM    8  O   UNL     1      -8.583  17.323  67.345  1.00  0.00    -0.202 OA 
HETATM    9  H   UNL     1     -11.124  14.674  64.847  1.00  0.00     0.000 HD 
HETATM   10  C   UNL     1     -10.198  18.492  65.900  1.00  0.00    -0.240 C  
HETATM   11  O   UNL     1     -10.254  14.758  65.220  1.00  0.00    -0.358 OA 
HETATM   12  O   UNL     1     -11.274  18.518  66.852  1.00  0.00     0.063 OA 
HETATM   13  C   UNL     1     -10.352  17.204  65.081  1.00  0.00     0.274 C  
HETATM   14  H   UNL     1     -12.134  18.510  66.449  1.00  0.00     0.000 HD 
HETATM   15  H   UNL     1     -11.733  16.383  63.946  1.00  0.00     0.000 HD 
HETATM   16  O   UNL     1     -11.639  17.180  64.454  1.00  0.00    -0.849 OA 
HETATM   17  C   UNL     1     -10.110  15.969  65.976  1.00  0.00    -0.341 C  
BRANCH   7  18
HETATM   18  C   UNL     1      -8.613  19.726  67.453  1.00  0.00    -0.322 C  
HETATM   19  O   UNL     1      -9.349  20.832  66.937  1.00  0.00    -0.627 OA 
HETATM   20  H   UNL     1      -9.228  21.590  67.497  1.00  0.00     0.000 HD 
ENDBRANCH   7  18
ENDBRANCH   5   6
ENDBRANCH   4   5
BRANCH   4  21
HETATM   21  C   UNL     1      -9.933  14.244  69.183  1.00  0.00    -0.022 C  
HETATM   22  H   UNL     1     -10.686  12.491  68.596  1.00  0.00     0.000 HD 
HETATM   23  O   UNL     1      -9.954  13.053  68.369  1.00  0.00    -0.231 OA 
BRANCH  21  24
HETATM   24  C   UNL     1     -11.292  14.931  69.018  1.00  0.00    -0.292 C  
HETATM   25  H   UNL     1     -13.020  14.497  68.181  1.00  0.00     0.000 HD 
HETATM   26  C   UNL     1     -11.976  15.243  70.340  1.00  0.00    -0.335 C  
HETATM   27  O   UNL     1     -12.178  14.070  68.283  1.00  0.00    -0.328 OA 
HETATM   28  O   UNL     1     -11.640  14.793  71.430  1.00  0.00    -0.325 OA 
ENDBRANCH  21  24
ENDBRANCH   4  21
ENDBRANCH   3   4
TORSDOF 6
ENDMDL
MODEL      154
REMARK 921   NORMALIZED FREE ENERGY PREDICTED BY IDOCK:   -3.92 KCAL/MOL
REMARK 922        TOTAL FREE ENERGY PREDICTED BY IDOCK:   -6.50 KCAL/MOL
REMARK 923 INTER-LIGAND FREE ENERGY PREDICTED BY IDOCK:   -8.19 KCAL/MOL
REMARK 924 INTRA-LIGAND FREE ENERGY PREDICTED BY IDOCK:    1.69 KCAL/MOL
REMARK 927      BINDING AFFINITY PREDICTED BY RF-SCORE:    0.00 PKD
ROOT
HETATM    1  O   UNL     1     -11.385  16.512  64.107  1.00  0.00    -1.381 OA 
HETATM    2  H   UNL     1     -11.272  16.386  63.172  1.00  0.00     0.000 HD 
HETATM    3  C   UNL     1     -10.494  15.741  64.898  1.00  0.00    -0.189 C  
ENDROOT
BRANCH   3   4
HETATM    4  C   UNL     1     -10.679  15.946  66.421  1.00  0.00    -0.256 C  
BRANCH   4   5
HETATM    5  O   UNL     1     -11.503  14.966  67.078  1.00  0.00    -0.353 OA 
BRANCH   5   6
HETATM    6  C   UNL     1     -11.416  13.648  66.541  1.00  0.00    -0.335 C  
HETATM    7  C   UNL     1      -9.880  11.872  66.038  1.00  0.00    -0.235 C  
HETATM    8  O   UNL     1     -10.044  13.219  66.519  1.00  0.00    -0.262 OA 
HETATM    9  H   UNL     1     -13.753  14.018  64.213  1.00  0.00     0.000 HD 
HETATM   10  C   UNL     1     -10.429  11.708  64.613  1.00  0.00    -0.302 C  
HETATM   11  O   UNL     1     -13.385  14.042  65.089  1.00  0.00    -0.703 OA 
HETATM   12  O   UNL     1      -9.731  12.499  63.639  1.00  0.00    -0.672 OA 
HETATM   13  C   UNL     1     -11.896  12.159  64.592  1.00  0.00    -0.328 C  
HETATM   14  H   UNL     1     -10.071  12.398  62.757  1.00  0.00     0.000 HD 
HETATM   15  H   UNL     1     -13.339  12.279  63.261  1.00  0.00     0.000 HD 
HETATM   16  O   UNL     1     -12.431  12.001  63.274  1.00  0.00    -0.566 OA 
HETATM   17  C   UNL     1     -12.018  13.609  65.108  1.00  0.00    -0.372 C  
BRANCH   7  18
HETATM   18  C   UNL     1      -8.393  11.517  66.118  1.00  0.00    -0.018 C  
HETATM   19  O   UNL     1      -7.988  10.853  64.924  1.00  0.00    -0.357 OA 
HETATM   20  H   UNL     1      -7.065  10.633  64.973  1.00  0.00     0.000 HD 
ENDBRANCH   7  18
ENDBRANCH   5   6
ENDBRANCH   4   5
BRANCH   4  21
HETATM   21  C   UNL     1      -9.299  16.035  67.140  1.00  0.00    -0.211 C  
HETATM   22  H   UNL     1      -8.580  15.812  68.989  1.00  0.00     0.000 HD 
HETATM   23  O   UNL     1      -9.422  15.757  68.550  1.00  0.00    -0.192 OA 
BRANCH  21  24
HETATM   24  C   UNL     1      -8.639  17.411  67.003  1.00  0.00    -0.233 C  
HETATM   25  H   UNL     1      -7.839  18.473  65.551  1.00  0.00     0.000 HD 
HETATM   26  C   UNL     1      -9.558  18.562  67.379  1.00  0.00    -0.293 C  
HETATM   27  O   UNL     1      -8.248  17.620  65.636  1.00  0.00    -0.501 OA 
HETATM   28  O   UNL     1     -10.771  18.472  67.538  1.00  0.00    -0.427 OA 
ENDBRANCH  21  24
ENDBRANCH   4  21
ENDBRANCH   3   4
TORSDOF 6
ENDMDL
MODEL      155
REMARK 921   NORMALIZED FREE ENERGY PREDICTED BY IDOCK:   -3.92 KCAL/MOL
REMARK 922        TOTAL FREE ENERGY PREDICTED BY IDOCK:   -6.49 KCAL/MOL
REMARK 923 INTER-LIGAND FREE ENERGY PREDICTED BY IDOCK:   -6.46 KCAL/MOL
REMARK 924 INTRA-LIGAND FREE ENERGY PREDICTED BY IDOCK:   -0.03 KCAL/MOL
REMARK 927      BINDING AFFINITY PREDICTED BY RF-SCORE:    0.00 PKD
ROOT
HETATM    1  O   UNL     1      -6.529  16.550  66.417  1.00  0.00    -0.218 OA 
HETATM    2  H   UNL     1      -5.585  16.498  66.324  1.00  0.00     0.000 HD 
HETATM    3  C   UNL     1      -6.971  16.533  67.766  1.00  0.00    -0.142 C  
ENDROOT
BRANCH   3   4
HETATM    4  C   UNL     1      -8.509  16.618  67.918  1.00  0.00    -0.194 C  
BRANCH   4   5
HETATM    5  O   UNL     1      -9.024  16.203  69.196  1.00  0.00    -0.242 OA 
BRANCH   5   6
HETATM    6  C   UNL     1     -10.374  15.746  69.181  1.00  0.00    -0.240 C  
HETATM    7  C   UNL     1     -12.338  15.498  70.543  1.00  0.00    -0.418 C  
HETATM    8  O   UNL     1     -10.953  15.890  70.490  1.00  0.00    -0.328 OA 
HETATM    9  H   UNL     1      -9.893  13.168  67.146  1.00  0.00     0.000 HD 
HETATM   10  C   UNL     1     -12.527  14.033  70.122  1.00  0.00    -0.319 C  
HETATM   11  O   UNL     1      -9.856  14.075  67.426  1.00  0.00    -0.233 OA 
HETATM   12  O   UNL     1     -11.881  13.099  71.001  1.00  0.00    -0.396 OA 
HETATM   13  C   UNL     1     -11.920  13.834  68.727  1.00  0.00    -0.365 C  
HETATM   14  H   UNL     1     -11.998  12.193  70.741  1.00  0.00     0.000 HD 
HETATM   15  H   UNL     1     -11.723  12.353  67.447  1.00  0.00     0.000 HD 
HETATM   16  O   UNL     1     -12.099  12.476  68.311  1.00  0.00    -0.284 OA 
HETATM   17  C   UNL     1     -10.436  14.260  68.725  1.00  0.00    -0.249 C  
BRANCH   7  18
HETATM   18  C   UNL     1     -12.850  15.752  71.963  1.00  0.00    -0.442 C  
HETATM   19  O   UNL     1     -11.822  15.467  72.907  1.00  0.00    -0.420 OA 
HETATM   20  H   UNL     1     -12.139  15.624  73.789  1.00  0.00     0.000 HD 
ENDBRANCH   7  18
ENDBRANCH   5   6
ENDBRANCH   4   5
BRANCH   4  21
HETATM   21  C   UNL     1      -9.022  18.052  67.588  1.00  0.00    -0.251 C  
HETATM   22  H   UNL     1      -9.490  19.718  68.582  1.00  0.00     0.000 HD 
HETATM   23  O   UNL     1      -9.177  18.844  68.783  1.00  0.00    -0.340 OA 
BRANCH  21  24
HETATM   24  C   UNL     1     -10.371  18.054  66.863  1.00  0.00    -0.370 C  
HETATM   25  H   UNL     1     -11.438  19.350  65.833  1.00  0.00     0.000 HD 
HETATM   26  C   UNL     1     -10.449  17.043  65.729  1.00  0.00    -0.251 C  
HETATM   27  O   UNL     1     -10.601  19.349  66.282  1.00  0.00    -0.454 OA 
HETATM   28  O   UNL     1      -9.490  16.449  65.247  1.00  0.00    -0.307 OA 
ENDBRANCH  21  24
ENDBRANCH   4  21
ENDBRANCH   3   4
TORSDOF 6
ENDMDL
MODEL      156
REMARK 921   NORMALIZED FREE ENERGY PREDICTED BY IDOCK:   -3.91 KCAL/MOL
REMARK 922        TOTAL FREE ENERGY PREDICTED BY IDOCK:   -6.49 KCAL/MOL
REMARK 923 INTER-LIGAND FREE ENERGY PREDICTED BY IDOCK:   -5.48 KCAL/MOL
REMARK 924 INTRA-LIGAND FREE ENERGY PREDICTED BY IDOCK:   -1.01 KCAL/MOL
REMARK 927      BINDING AFFINITY PREDICTED BY RF-SCORE:    0.00 PKD
ROOT
HETATM    1  O   UNL     1      -8.716  10.082  65.516  1.00  0.00    -0.143 OA 
HETATM    2  H   UNL     1      -8.401   9.726  64.693  1.00  0.00     0.000 HD 
HETATM    3  C   UNL     1     -10.011  10.657  65.430  1.00  0.00    -0.281 C  
ENDROOT
BRANCH   3   4
HETATM    4  C   UNL     1     -10.524  11.237  66.770  1.00  0.00    -0.248 C  
BRANCH   4   5
HETATM    5  O   UNL     1      -9.525  11.401  67.792  1.00  0.00    -0.159 OA 
BRANCH   5   6
HETATM    6  C   UNL     1      -9.530  10.397  68.805  1.00  0.00    -0.175 C  
HETATM    7  C   UNL     1      -9.086   8.072  69.214  1.00  0.00    -0.148 C  
HETATM    8  O   UNL     1      -9.155   9.130  68.239  1.00  0.00    -0.133 OA 
HETATM    9  H   UNL     1     -12.209  11.494  70.429  1.00  0.00     0.000 HD 
HETATM   10  C   UNL     1     -10.431   7.871  69.928  1.00  0.00    -0.229 C  
HETATM   11  O   UNL     1     -11.349  11.552  70.028  1.00  0.00    -0.244 OA 
HETATM   12  O   UNL     1     -11.484   7.447  69.049  1.00  0.00    -0.347 OA 
HETATM   13  C   UNL     1     -10.869   9.205  70.546  1.00  0.00    -0.255 C  
HETATM   14  H   UNL     1     -12.316   7.322  69.490  1.00  0.00     0.000 HD 
HETATM   15  H   UNL     1     -12.387   9.860  71.613  1.00  0.00     0.000 HD 
HETATM   16  O   UNL     1     -12.116   9.034  71.229  1.00  0.00    -0.295 OA 
HETATM   17  C   UNL     1     -10.937  10.301  69.461  1.00  0.00    -0.258 C  
BRANCH   7  18
HETATM   18  C   UNL     1      -8.624   6.798  68.502  1.00  0.00    -0.125 C  
HETATM   19  O   UNL     1      -9.326   6.649  67.271  1.00  0.00    -0.128 OA 
HETATM   20  H   UNL     1      -9.040   5.859  66.829  1.00  0.00     0.000 HD 
ENDBRANCH   7  18
ENDBRANCH   5   6
ENDBRANCH   4   5
BRANCH   4  21
HETATM   21  C   UNL     1     -11.264  12.590  66.542  1.00  0.00    -0.307 C  
HETATM   22  H   UNL     1     -12.937  13.481  67.167  1.00  0.00     0.000 HD 
HETATM   23  O   UNL     1     -12.486  12.656  67.306  1.00  0.00    -0.203 OA 
BRANCH  21  24
HETATM   24  C   UNL     1     -11.632  12.833  65.074  1.00  0.00    -0.337 C  
HETATM   25  H   UNL     1     -13.290  13.010  64.028  1.00  0.00     0.000 HD 
HETATM   26  C   UNL     1     -11.114  14.155  64.533  1.00  0.00    -0.330 C  
HETATM   27  O   UNL     1     -13.063  12.859  64.937  1.00  0.00    -0.799 OA 
HETATM   28  O   UNL     1     -10.665  15.070  65.216  1.00  0.00    -0.332 OA 
ENDBRANCH  21  24
ENDBRANCH   4  21
ENDBRANCH   3   4
TORSDOF 6
ENDMDL
MODEL      157
REMARK 921   NORMALIZED FREE ENERGY PREDICTED BY IDOCK:   -3.91 KCAL/MOL
REMARK 922        TOTAL FREE ENERGY PREDICTED BY IDOCK:   -6.49 KCAL/MOL
REMARK 923 INTER-LIGAND FREE ENERGY PREDICTED BY IDOCK:   -5.79 KCAL/MOL
REMARK 924 INTRA-LIGAND FREE ENERGY PREDICTED BY IDOCK:   -0.70 KCAL/MOL
REMARK 927      BINDING AFFINITY PREDICTED BY RF-SCORE:    0.00 PKD
ROOT
HETATM    1  O   UNL     1      -9.373   8.737  67.404  1.00  0.00    -0.134 OA 
HETATM    2  H   UNL     1      -8.957   7.999  67.834  1.00  0.00     0.000 HD 
HETATM    3  C   UNL     1      -8.613   9.276  66.333  1.00  0.00    -0.131 C  
ENDROOT
BRANCH   3   4
HETATM    4  C   UNL     1      -9.290  10.478  65.633  1.00  0.00    -0.200 C  
BRANCH   4   5
HETATM    5  O   UNL     1      -9.034  11.762  66.231  1.00  0.00    -0.204 OA 
BRANCH   5   6
HETATM    6  C   UNL     1     -10.193  12.554  66.476  1.00  0.00    -0.240 C  
HETATM    7  C   UNL     1     -11.162  14.719  66.093  1.00  0.00    -0.337 C  
HETATM    8  O   UNL     1     -10.007  13.873  65.932  1.00  0.00    -0.299 OA 
HETATM    9  H   UNL     1     -10.832  11.384  69.516  1.00  0.00     0.000 HD 
HETATM   10  C   UNL     1     -11.538  14.887  67.573  1.00  0.00    -0.339 C  
HETATM   11  O   UNL     1     -10.658  11.335  68.583  1.00  0.00    -0.184 OA 
HETATM   12  O   UNL     1     -10.526  15.550  68.346  1.00  0.00    -0.232 OA 
HETATM   13  C   UNL     1     -11.743  13.499  68.194  1.00  0.00    -0.361 C  
HETATM   14  H   UNL     1     -10.758  15.654  69.262  1.00  0.00     0.000 HD 
HETATM   15  H   UNL     1     -12.237  12.776  69.956  1.00  0.00     0.000 HD 
HETATM   16  O   UNL     1     -12.109  13.635  69.572  1.00  0.00    -0.318 OA 
HETATM   17  C   UNL     1     -10.478  12.635  68.002  1.00  0.00    -0.224 C  
BRANCH   7  18
HETATM   18  C   UNL     1     -10.861  16.064  65.427  1.00  0.00    -0.328 C  
HETATM   19  O   UNL     1     -11.174  15.998  64.038  1.00  0.00    -1.078 OA 
HETATM   20  H   UNL     1     -10.988  16.833  63.625  1.00  0.00     0.000 HD 
ENDBRANCH   7  18
ENDBRANCH   5   6
ENDBRANCH   4   5
BRANCH   4  21
HETATM   21  C   UNL     1      -8.916  10.522  64.120  1.00  0.00    -0.218 C  
HETATM   22  H   UNL     1      -9.845  10.817  62.378  1.00  0.00     0.000 HD 
HETATM   23  O   UNL     1     -10.072  10.791  63.300  1.00  0.00    -0.325 OA 
BRANCH  21  24
HETATM   24  C   UNL     1      -8.295   9.215  63.617  1.00  0.00    -0.187 C  
HETATM   25  H   UNL     1      -8.509   8.043  62.050  1.00  0.00     0.000 HD 
HETATM   26  C   UNL     1      -6.797   9.311  63.379  1.00  0.00    -0.091 C  
HETATM   27  O   UNL     1      -8.894   8.853  62.361  1.00  0.00    -0.216 OA 
HETATM   28  O   UNL     1      -6.155  10.356  63.338  1.00  0.00    -0.144 OA 
ENDBRANCH  21  24
ENDBRANCH   4  21
ENDBRANCH   3   4
TORSDOF 6
ENDMDL
MODEL      158
REMARK 921   NORMALIZED FREE ENERGY PREDICTED BY IDOCK:   -3.91 KCAL/MOL
REMARK 922        TOTAL FREE ENERGY PREDICTED BY IDOCK:   -6.48 KCAL/MOL
REMARK 923 INTER-LIGAND FREE ENERGY PREDICTED BY IDOCK:   -6.80 KCAL/MOL
REMARK 924 INTRA-LIGAND FREE ENERGY PREDICTED BY IDOCK:    0.32 KCAL/MOL
REMARK 927      BINDING AFFINITY PREDICTED BY RF-SCORE:    0.00 PKD
ROOT
HETATM    1  O   UNL     1      -5.895  16.804  66.589  1.00  0.00    -0.288 OA 
HETATM    2  H   UNL     1      -4.990  17.072  66.701  1.00  0.00     0.000 HD 
HETATM    3  C   UNL     1      -6.708  17.050  67.726  1.00  0.00    -0.148 C  
ENDROOT
BRANCH   3   4
HETATM    4  C   UNL     1      -8.181  16.614  67.543  1.00  0.00    -0.164 C  
BRANCH   4   5
HETATM    5  O   UNL     1      -8.375  15.390  66.812  1.00  0.00    -0.235 OA 
BRANCH   5   6
HETATM    6  C   UNL     1      -9.735  15.057  66.544  1.00  0.00    -0.266 C  
HETATM    7  C   UNL     1     -11.242  13.210  66.246  1.00  0.00    -0.301 C  
HETATM    8  O   UNL     1      -9.881  13.629  66.462  1.00  0.00    -0.276 OA 
HETATM    9  H   UNL     1     -10.346  17.559  64.451  1.00  0.00     0.000 HD 
HETATM   10  C   UNL     1     -11.816  13.800  64.950  1.00  0.00    -0.375 C  
HETATM   11  O   UNL     1     -10.060  17.151  65.260  1.00  0.00    -0.507 OA 
HETATM   12  O   UNL     1     -11.136  13.349  63.768  1.00  0.00    -0.562 OA 
HETATM   13  C   UNL     1     -11.677  15.327  64.995  1.00  0.00    -0.174 C  
HETATM   14  H   UNL     1     -11.491  13.714  62.966  1.00  0.00     0.000 HD 
HETATM   15  H   UNL     1     -12.135  16.843  63.827  1.00  0.00     0.000 HD 
HETATM   16  O   UNL     1     -12.221  15.898  63.799  1.00  0.00    -0.817 OA 
HETATM   17  C   UNL     1     -10.202  15.724  65.219  1.00  0.00    -0.289 C  
BRANCH   7  18
HETATM   18  C   UNL     1     -11.273  11.680  66.237  1.00  0.00    -0.271 C  
HETATM   19  O   UNL     1     -11.842  11.198  67.451  1.00  0.00    -0.570 OA 
HETATM   20  H   UNL     1     -11.862  10.249  67.445  1.00  0.00     0.000 HD 
ENDBRANCH   7  18
ENDBRANCH   5   6
ENDBRANCH   4   5
BRANCH   4  21
HETATM   21  C   UNL     1      -8.907  16.521  68.919  1.00  0.00    -0.244 C  
HETATM   22  H   UNL     1      -9.348  15.115  70.265  1.00  0.00     0.000 HD 
HETATM   23  O   UNL     1      -8.905  15.172  69.426  1.00  0.00    -0.220 OA 
BRANCH  21  24
HETATM   24  C   UNL     1     -10.368  16.982  68.858  1.00  0.00    -0.337 C  
HETATM   25  H   UNL     1     -11.950  16.871  70.025  1.00  0.00     0.000 HD 
HETATM   26  C   UNL     1     -10.521  18.490  68.743  1.00  0.00    -0.016 C  
HETATM   27  O   UNL     1     -11.045  16.586  70.063  1.00  0.00    -0.345 OA 
HETATM   28  O   UNL     1      -9.623  19.306  68.925  1.00  0.00    -0.396 OA 
ENDBRANCH  21  24
ENDBRANCH   4  21
ENDBRANCH   3   4
TORSDOF 6
ENDMDL
MODEL      159
REMARK 921   NORMALIZED FREE ENERGY PREDICTED BY IDOCK:   -3.90 KCAL/MOL
REMARK 922        TOTAL FREE ENERGY PREDICTED BY IDOCK:   -6.47 KCAL/MOL
REMARK 923 INTER-LIGAND FREE ENERGY PREDICTED BY IDOCK:   -5.72 KCAL/MOL
REMARK 924 INTRA-LIGAND FREE ENERGY PREDICTED BY IDOCK:   -0.75 KCAL/MOL
REMARK 927      BINDING AFFINITY PREDICTED BY RF-SCORE:    0.00 PKD
ROOT
HETATM    1  O   UNL     1      -8.255  13.147  68.736  1.00  0.00    -0.332 OA 
HETATM    2  H   UNL     1      -8.630  12.590  69.409  1.00  0.00     0.000 HD 
HETATM    3  C   UNL     1      -8.931  14.384  68.577  1.00  0.00    -0.187 C  
ENDROOT
BRANCH   3   4
HETATM    4  C   UNL     1      -8.321  15.291  67.481  1.00  0.00    -0.175 C  
BRANCH   4   5
HETATM    5  O   UNL     1      -9.143  15.487  66.317  1.00  0.00    -0.289 OA 
BRANCH   5   6
HETATM    6  C   UNL     1      -9.931  14.360  65.939  1.00  0.00    -0.328 C  
HETATM    7  C   UNL     1      -9.833  11.999  65.510  1.00  0.00    -0.229 C  
HETATM    8  O   UNL     1      -9.097  13.193  65.837  1.00  0.00     0.084 OA 
HETATM    9  H   UNL     1     -11.918  15.965  63.819  1.00  0.00     0.000 HD 
HETATM   10  C   UNL     1     -10.579  12.141  64.176  1.00  0.00    -0.365 C  
HETATM   11  O   UNL     1     -11.480  15.798  64.646  1.00  0.00    -0.393 OA 
HETATM   12  O   UNL     1      -9.705  12.315  63.050  1.00  0.00    -0.470 OA 
HETATM   13  C   UNL     1     -11.481  13.380  64.241  1.00  0.00    -0.393 C  
HETATM   14  H   UNL     1     -10.166  12.403  62.224  1.00  0.00     0.000 HD 
HETATM   15  H   UNL     1     -12.757  14.290  63.050  1.00  0.00     0.000 HD 
HETATM   16  O   UNL     1     -12.198  13.523  63.009  1.00  0.00    -0.557 OA 
HETATM   17  C   UNL     1     -10.647  14.632  64.586  1.00  0.00    -0.240 C  
BRANCH   7  18
HETATM   18  C   UNL     1      -8.849  10.826  65.489  1.00  0.00    -0.190 C  
HETATM   19  O   UNL     1      -7.829  11.066  64.523  1.00  0.00    -0.326 OA 
HETATM   20  H   UNL     1      -7.219  10.338  64.510  1.00  0.00     0.000 HD 
ENDBRANCH   7  18
ENDBRANCH   5   6
ENDBRANCH   4   5
BRANCH   4  21
HETATM   21  C   UNL     1      -7.909  16.674  68.070  1.00  0.00    -0.170 C  
HETATM   22  H   UNL     1      -7.259  17.405  69.810  1.00  0.00     0.000 HD 
HETATM   23  O   UNL     1      -7.509  16.561  69.451  1.00  0.00    -0.223 OA 
BRANCH  21  24
HETATM   24  C   UNL     1      -9.034  17.712  68.005  1.00  0.00    -0.264 C  
HETATM   25  H   UNL     1     -10.359  18.462  69.253  1.00  0.00     0.000 HD 
HETATM   26  C   UNL     1      -8.550  19.105  67.635  1.00  0.00    -0.296 C  
HETATM   27  O   UNL     1      -9.662  17.819  69.294  1.00  0.00    -0.146 OA 
HETATM   28  O   UNL     1      -7.377  19.464  67.625  1.00  0.00    -0.238 OA 
ENDBRANCH  21  24
ENDBRANCH   4  21
ENDBRANCH   3   4
TORSDOF 6
ENDMDL
MODEL      160
REMARK 921   NORMALIZED FREE ENERGY PREDICTED BY IDOCK:   -3.90 KCAL/MOL
REMARK 922        TOTAL FREE ENERGY PREDICTED BY IDOCK:   -6.47 KCAL/MOL
REMARK 923 INTER-LIGAND FREE ENERGY PREDICTED BY IDOCK:   -5.38 KCAL/MOL
REMARK 924 INTRA-LIGAND FREE ENERGY PREDICTED BY IDOCK:   -1.09 KCAL/MOL
REMARK 927      BINDING AFFINITY PREDICTED BY RF-SCORE:    0.00 PKD
ROOT
HETATM    1  O   UNL     1     -11.228  14.806  63.999  1.00  0.00    -0.527 OA 
HETATM    2  H   UNL     1     -11.413  14.841  63.068  1.00  0.00     0.000 HD 
HETATM    3  C   UNL     1     -11.220  13.490  64.531  1.00  0.00    -0.375 C  
ENDROOT
BRANCH   3   4
HETATM    4  C   UNL     1     -10.917  13.433  66.047  1.00  0.00    -0.271 C  
BRANCH   4   5
HETATM    5  O   UNL     1     -12.025  13.755  66.908  1.00  0.00    -0.388 OA 
BRANCH   5   6
HETATM    6  C   UNL     1     -11.894  14.981  67.625  1.00  0.00    -0.182 C  
HETATM    7  C   UNL     1     -10.696  17.062  67.677  1.00  0.00    -0.295 C  
HETATM    8  O   UNL     1     -10.852  15.781  67.039  1.00  0.00    -0.318 OA 
HETATM    9  H   UNL     1     -12.403  13.720  70.653  1.00  0.00     0.000 HD 
HETATM   10  C   UNL     1     -10.368  16.914  69.170  1.00  0.00    -0.319 C  
HETATM   11  O   UNL     1     -12.594  13.892  69.738  1.00  0.00    -0.262 OA 
HETATM   12  O   UNL     1      -9.113  16.262  69.416  1.00  0.00    -0.215 OA 
HETATM   13  C   UNL     1     -11.457  16.062  69.835  1.00  0.00    -0.326 C  
HETATM   14  H   UNL     1      -8.910  16.170  70.340  1.00  0.00     0.000 HD 
HETATM   15  H   UNL     1     -11.852  15.398  71.645  1.00  0.00     0.000 HD 
HETATM   16  O   UNL     1     -11.177  15.924  71.233  1.00  0.00    -0.353 OA 
HETATM   17  C   UNL     1     -11.580  14.699  69.122  1.00  0.00    -0.301 C  
BRANCH   7  18
HETATM   18  C   UNL     1      -9.605  17.835  66.930  1.00  0.00    -0.288 C  
HETATM   19  O   UNL     1      -8.629  16.929  66.424  1.00  0.00    -0.252 OA 
HETATM   20  H   UNL     1      -7.952  17.408  65.961  1.00  0.00     0.000 HD 
ENDBRANCH   7  18
ENDBRANCH   5   6
ENDBRANCH   4   5
BRANCH   4  21
HETATM   21  C   UNL     1     -10.333  12.045  66.445  1.00  0.00    -0.216 C  
HETATM   22  H   UNL     1      -9.025  11.316  67.766  1.00  0.00     0.000 HD 
HETATM   23  O   UNL     1      -9.382  12.163  67.523  1.00  0.00    -0.173 OA 
BRANCH  21  24
HETATM   24  C   UNL     1      -9.621  11.339  65.286  1.00  0.00    -0.232 C  
HETATM   25  H   UNL     1      -7.761  10.923  64.794  1.00  0.00     0.000 HD 
HETATM   26  C   UNL     1     -10.020   9.880  65.131  1.00  0.00    -0.208 C  
HETATM   27  O   UNL     1      -8.201  11.360  65.512  1.00  0.00     0.093 OA 
HETATM   28  O   UNL     1     -10.644   9.227  65.962  1.00  0.00     0.028 OA 
ENDBRANCH  21  24
ENDBRANCH   4  21
ENDBRANCH   3   4
TORSDOF 6
ENDMDL
MODEL      161
REMARK 921   NORMALIZED FREE ENERGY PREDICTED BY IDOCK:   -3.88 KCAL/MOL
REMARK 922        TOTAL FREE ENERGY PREDICTED BY IDOCK:   -6.45 KCAL/MOL
REMARK 923 INTER-LIGAND FREE ENERGY PREDICTED BY IDOCK:   -5.42 KCAL/MOL
REMARK 924 INTRA-LIGAND FREE ENERGY PREDICTED BY IDOCK:   -1.03 KCAL/MOL
REMARK 927      BINDING AFFINITY PREDICTED BY RF-SCORE:    0.00 PKD
ROOT
HETATM    1  O   UNL     1      -6.341  12.785  67.992  1.00  0.00    -0.075 OA 
HETATM    2  H   UNL     1      -5.521  12.991  67.558  1.00  0.00     0.000 HD 
HETATM    3  C   UNL     1      -7.392  13.686  67.684  1.00  0.00    -0.176 C  
ENDROOT
BRANCH   3   4
HETATM    4  C   UNL     1      -8.727  13.350  68.390  1.00  0.00    -0.134 C  
BRANCH   4   5
HETATM    5  O   UNL     1      -9.761  14.343  68.256  1.00  0.00    -0.209 OA 
BRANCH   5   6
HETATM    6  C   UNL     1      -9.480  15.383  67.322  1.00  0.00    -0.210 C  
HETATM    7  C   UNL     1      -8.671  17.637  67.138  1.00  0.00    -0.243 C  
HETATM    8  O   UNL     1      -9.027  16.556  68.020  1.00  0.00    -0.199 OA 
HETATM    9  H   UNL     1     -12.009  14.758  65.266  1.00  0.00     0.000 HD 
HETATM   10  C   UNL     1      -9.855  18.062  66.257  1.00  0.00    -0.307 C  
HETATM   11  O   UNL     1     -11.235  14.559  65.779  1.00  0.00    -0.322 OA 
HETATM   12  O   UNL     1     -10.961  18.591  67.005  1.00  0.00    -0.293 OA 
HETATM   13  C   UNL     1     -10.371  16.836  65.494  1.00  0.00    -0.215 C  
HETATM   14  H   UNL     1     -11.694  18.854  66.460  1.00  0.00     0.000 HD 
HETATM   15  H   UNL     1     -11.788  16.455  64.182  1.00  0.00     0.000 HD 
HETATM   16  O   UNL     1     -11.468  17.215  64.655  1.00  0.00    -0.754 OA 
HETATM   17  C   UNL     1     -10.747  15.710  66.482  1.00  0.00    -0.293 C  
BRANCH   7  18
HETATM   18  C   UNL     1      -8.153  18.797  67.993  1.00  0.00    -0.283 C  
HETATM   19  O   UNL     1      -8.494  20.039  67.383  1.00  0.00    -0.314 OA 
HETATM   20  H   UNL     1      -8.174  20.759  67.913  1.00  0.00     0.000 HD 
ENDBRANCH   7  18
ENDBRANCH   5   6
ENDBRANCH   4   5
BRANCH   4  21
HETATM   21  C   UNL     1      -9.269  11.965  67.923  1.00  0.00    -0.187 C  
HETATM   22  H   UNL     1      -9.051  10.744  66.360  1.00  0.00     0.000 HD 
HETATM   23  O   UNL     1      -8.721  11.589  66.644  1.00  0.00    -0.172 OA 
BRANCH  21  24
HETATM   24  C   UNL     1     -10.795  11.931  67.792  1.00  0.00    -0.211 C  
HETATM   25  H   UNL     1     -12.098  11.438  66.401  1.00  0.00     0.000 HD 
HETATM   26  C   UNL     1     -11.467  11.004  68.793  1.00  0.00    -0.305 C  
HETATM   27  O   UNL     1     -11.153  11.459  66.482  1.00  0.00    -0.292 OA 
HETATM   28  O   UNL     1     -10.887  10.168  69.478  1.00  0.00    -0.223 OA 
ENDBRANCH  21  24
ENDBRANCH   4  21
ENDBRANCH   3   4
TORSDOF 6
ENDMDL
MODEL      162
REMARK 921   NORMALIZED FREE ENERGY PREDICTED BY IDOCK:   -3.88 KCAL/MOL
REMARK 922        TOTAL FREE ENERGY PREDICTED BY IDOCK:   -6.45 KCAL/MOL
REMARK 923 INTER-LIGAND FREE ENERGY PREDICTED BY IDOCK:   -5.88 KCAL/MOL
REMARK 924 INTRA-LIGAND FREE ENERGY PREDICTED BY IDOCK:   -0.57 KCAL/MOL
REMARK 927      BINDING AFFINITY PREDICTED BY RF-SCORE:    0.00 PKD
ROOT
HETATM    1  O   UNL     1     -10.817  17.041  65.020  1.00  0.00    -0.678 OA 
HETATM    2  H   UNL     1     -10.454  17.291  64.178  1.00  0.00     0.000 HD 
HETATM    3  C   UNL     1     -10.163  15.932  65.616  1.00  0.00    -0.379 C  
ENDROOT
BRANCH   3   4
HETATM    4  C   UNL     1     -10.754  15.524  66.986  1.00  0.00    -0.321 C  
BRANCH   4   5
HETATM    5  O   UNL     1     -10.648  14.126  67.310  1.00  0.00    -0.273 OA 
BRANCH   5   6
HETATM    6  C   UNL     1      -9.838  13.361  66.420  1.00  0.00    -0.296 C  
HETATM    7  C   UNL     1      -9.874  12.141  64.351  1.00  0.00    -0.128 C  
HETATM    8  O   UNL     1     -10.636  12.880  65.325  1.00  0.00    -0.284 OA 
HETATM    9  H   UNL     1      -7.988  11.883  68.746  1.00  0.00     0.000 HD 
HETATM   10  C   UNL     1      -9.185  10.921  64.980  1.00  0.00    -0.207 C  
HETATM   11  O   UNL     1      -8.387  12.611  68.284  1.00  0.00    -0.166 OA 
HETATM   12  O   UNL     1     -10.107   9.947  65.494  1.00  0.00    -0.303 OA 
HETATM   13  C   UNL     1      -8.322  11.391  66.158  1.00  0.00    -0.071 C  
HETATM   14  H   UNL     1      -9.680   9.192  65.883  1.00  0.00     0.000 HD 
HETATM   15  H   UNL     1      -7.124  10.560  67.479  1.00  0.00     0.000 HD 
HETATM   16  O   UNL     1      -7.659  10.269  66.750  1.00  0.00    -0.102 OA 
HETATM   17  C   UNL     1      -9.184  12.169  67.176  1.00  0.00    -0.193 C  
BRANCH   7  18
HETATM   18  C   UNL     1     -10.819  11.737  63.216  1.00  0.00    -0.326 C  
HETATM   19  O   UNL     1     -11.817  12.738  63.036  1.00  0.00    -0.780 OA 
HETATM   20  H   UNL     1     -12.403  12.488  62.332  1.00  0.00     0.000 HD 
ENDBRANCH   7  18
ENDBRANCH   5   6
ENDBRANCH   4   5
BRANCH   4  21
HETATM   21  C   UNL     1     -10.135  16.375  68.135  1.00  0.00    -0.251 C  
HETATM   22  H   UNL     1      -8.698  17.744  68.350  1.00  0.00     0.000 HD 
HETATM   23  O   UNL     1      -9.076  17.225  67.649  1.00  0.00    -0.225 OA 
BRANCH  21  24
HETATM   24  C   UNL     1      -9.551  15.523  69.266  1.00  0.00    -0.266 C  
HETATM   25  H   UNL     1      -7.910  15.523  70.354  1.00  0.00     0.000 HD 
HETATM   26  C   UNL     1     -10.416  15.504  70.517  1.00  0.00    -0.118 C  
HETATM   27  O   UNL     1      -8.272  16.052  69.653  1.00  0.00    -0.115 OA 
HETATM   28  O   UNL     1     -11.353  16.264  70.737  1.00  0.00    -0.395 OA 
ENDBRANCH  21  24
ENDBRANCH   4  21
ENDBRANCH   3   4
TORSDOF 6
ENDMDL
MODEL      163
REMARK 921   NORMALIZED FREE ENERGY PREDICTED BY IDOCK:   -3.87 KCAL/MOL
REMARK 922        TOTAL FREE ENERGY PREDICTED BY IDOCK:   -6.43 KCAL/MOL
REMARK 923 INTER-LIGAND FREE ENERGY PREDICTED BY IDOCK:   -5.22 KCAL/MOL
REMARK 924 INTRA-LIGAND FREE ENERGY PREDICTED BY IDOCK:   -1.21 KCAL/MOL
REMARK 927      BINDING AFFINITY PREDICTED BY RF-SCORE:    0.00 PKD
ROOT
HETATM    1  O   UNL     1     -12.574   7.039  70.824  1.00  0.00    -0.567 OA 
HETATM    2  H   UNL     1     -12.954   6.666  71.611  1.00  0.00     0.000 HD 
HETATM    3  C   UNL     1     -11.427   6.345  70.359  1.00  0.00    -0.393 C  
ENDROOT
BRANCH   3   4
HETATM    4  C   UNL     1     -10.809   6.953  69.078  1.00  0.00    -0.212 C  
BRANCH   4   5
HETATM    5  O   UNL     1     -10.060   8.167  69.272  1.00  0.00    -0.191 OA 
BRANCH   5   6
HETATM    6  C   UNL     1     -10.649   9.335  68.705  1.00  0.00    -0.187 C  
HETATM    7  C   UNL     1     -10.328  11.038  67.042  1.00  0.00    -0.228 C  
HETATM    8  O   UNL     1      -9.776   9.883  67.701  1.00  0.00    -0.150 OA 
HETATM    9  H   UNL     1     -11.958  10.520  71.515  1.00  0.00     0.000 HD 
HETATM   10  C   UNL     1     -10.636  12.165  68.039  1.00  0.00    -0.210 C  
HETATM   11  O   UNL     1     -11.787   9.875  70.838  1.00  0.00    -0.304 OA 
HETATM   12  O   UNL     1      -9.469  12.680  68.696  1.00  0.00    -0.378 OA 
HETATM   13  C   UNL     1     -11.566  11.620  69.131  1.00  0.00    -0.314 C  
HETATM   14  H   UNL     1      -9.659  13.378  69.313  1.00  0.00     0.000 HD 
HETATM   15  H   UNL     1     -12.454  12.324  70.740  1.00  0.00     0.000 HD 
HETATM   16  O   UNL     1     -11.878  12.661  70.064  1.00  0.00    -0.329 OA 
HETATM   17  C   UNL     1     -10.928  10.391  69.812  1.00  0.00    -0.293 C  
BRANCH   7  18
HETATM   18  C   UNL     1      -9.337  11.488  65.965  1.00  0.00    -0.223 C  
HETATM   19  O   UNL     1      -9.388  12.905  65.820  1.00  0.00    -0.461 OA 
HETATM   20  H   UNL     1      -8.773  13.184  65.152  1.00  0.00     0.000 HD 
ENDBRANCH   7  18
ENDBRANCH   5   6
ENDBRANCH   4   5
BRANCH   4  21
HETATM   21  C   UNL     1      -9.923   5.906  68.337  1.00  0.00    -0.150 C  
HETATM   22  H   UNL     1      -9.395   3.995  68.564  1.00  0.00     0.000 HD 
HETATM   23  O   UNL     1      -9.935   4.633  69.015  1.00  0.00    -0.175 OA 
BRANCH  21  24
HETATM   24  C   UNL     1      -8.459   6.341  68.211  1.00  0.00    -0.114 C  
HETATM   25  H   UNL     1      -6.697   5.552  68.595  1.00  0.00     0.000 HD 
HETATM   26  C   UNL     1      -8.043   6.650  66.782  1.00  0.00    -0.113 C  
HETATM   27  O   UNL     1      -7.604   5.282  68.674  1.00  0.00    -0.080 OA 
HETATM   28  O   UNL     1      -8.690   6.361  65.780  1.00  0.00    -0.151 OA 
ENDBRANCH  21  24
ENDBRANCH   4  21
ENDBRANCH   3   4
TORSDOF 6
ENDMDL
MODEL      164
REMARK 921   NORMALIZED FREE ENERGY PREDICTED BY IDOCK:   -3.87 KCAL/MOL
REMARK 922        TOTAL FREE ENERGY PREDICTED BY IDOCK:   -6.43 KCAL/MOL
REMARK 923 INTER-LIGAND FREE ENERGY PREDICTED BY IDOCK:   -5.61 KCAL/MOL
REMARK 924 INTRA-LIGAND FREE ENERGY PREDICTED BY IDOCK:   -0.82 KCAL/MOL
REMARK 927      BINDING AFFINITY PREDICTED BY RF-SCORE:    0.00 PKD
ROOT
HETATM    1  O   UNL     1     -11.398  12.417  69.653  1.00  0.00    -0.431 OA 
HETATM    2  H   UNL     1     -12.287  12.731  69.534  1.00  0.00     0.000 HD 
HETATM    3  C   UNL     1     -10.948  11.569  68.608  1.00  0.00    -0.223 C  
ENDROOT
BRANCH   3   4
HETATM    4  C   UNL     1      -9.501  11.057  68.801  1.00  0.00    -0.183 C  
BRANCH   4   5
HETATM    5  O   UNL     1      -9.328  10.085  69.848  1.00  0.00    -0.220 OA 
BRANCH   5   6
HETATM    6  C   UNL     1     -10.459   9.252  70.091  1.00  0.00    -0.230 C  
HETATM    7  C   UNL     1     -12.502   9.098  71.346  1.00  0.00    -0.328 C  
HETATM    8  O   UNL     1     -11.306   9.857  71.084  1.00  0.00    -0.357 OA 
HETATM    9  H   UNL     1      -8.863   6.350  69.882  1.00  0.00     0.000 HD 
HETATM   10  C   UNL     1     -12.176   7.678  71.831  1.00  0.00    -0.304 C  
HETATM   11  O   UNL     1      -9.143   7.211  69.597  1.00  0.00    -0.141 OA 
HETATM   12  O   UNL     1     -11.480   7.650  73.087  1.00  0.00    -0.604 OA 
HETATM   13  C   UNL     1     -11.270   6.996  70.798  1.00  0.00    -0.285 C  
HETATM   14  H   UNL     1     -11.279   6.771  73.387  1.00  0.00     0.000 HD 
HETATM   15  H   UNL     1     -10.405   5.241  70.586  1.00  0.00     0.000 HD 
HETATM   16  O   UNL     1     -10.966   5.664  71.226  1.00  0.00    -0.246 OA 
HETATM   17  C   UNL     1     -10.000   7.842  70.559  1.00  0.00    -0.187 C  
BRANCH   7  18
HETATM   18  C   UNL     1     -13.340   9.870  72.369  1.00  0.00    -0.229 C  
HETATM   19  O   UNL     1     -13.275  11.267  72.094  1.00  0.00    -0.579 OA 
HETATM   20  H   UNL     1     -13.795  11.745  72.729  1.00  0.00     0.000 HD 
ENDBRANCH   7  18
ENDBRANCH   5   6
ENDBRANCH   4   5
BRANCH   4  21
HETATM   21  C   UNL     1      -8.928  10.494  67.465  1.00  0.00    -0.135 C  
HETATM   22  H   UNL     1      -7.841  11.159  65.929  1.00  0.00     0.000 HD 
HETATM   23  O   UNL     1      -8.190  11.502  66.743  1.00  0.00    -0.158 OA 
BRANCH  21  24
HETATM   24  C   UNL     1     -10.013   9.962  66.524  1.00  0.00    -0.228 C  
HETATM   25  H   UNL     1     -10.688  10.405  64.728  1.00  0.00     0.000 HD 
HETATM   26  C   UNL     1      -9.803   8.511  66.119  1.00  0.00    -0.157 C  
HETATM   27  O   UNL     1     -10.016  10.735  65.312  1.00  0.00    -0.246 OA 
HETATM   28  O   UNL     1      -8.771   7.873  66.296  1.00  0.00    -0.138 OA 
ENDBRANCH  21  24
ENDBRANCH   4  21
ENDBRANCH   3   4
TORSDOF 6
ENDMDL
MODEL      165
REMARK 921   NORMALIZED FREE ENERGY PREDICTED BY IDOCK:   -3.86 KCAL/MOL
REMARK 922        TOTAL FREE ENERGY PREDICTED BY IDOCK:   -6.42 KCAL/MOL
REMARK 923 INTER-LIGAND FREE ENERGY PREDICTED BY IDOCK:   -5.79 KCAL/MOL
REMARK 924 INTRA-LIGAND FREE ENERGY PREDICTED BY IDOCK:   -0.63 KCAL/MOL
REMARK 927      BINDING AFFINITY PREDICTED BY RF-SCORE:    0.00 PKD
ROOT
HETATM    1  O   UNL     1     -11.104   8.096  68.453  1.00  0.00    -0.414 OA 
HETATM    2  H   UNL     1     -11.607   7.318  68.664  1.00  0.00     0.000 HD 
HETATM    3  C   UNL     1     -10.760   8.200  67.081  1.00  0.00    -0.194 C  
ENDROOT
BRANCH   3   4
HETATM    4  C   UNL     1      -9.941   9.466  66.738  1.00  0.00    -0.239 C  
BRANCH   4   5
HETATM    5  O   UNL     1     -10.215  10.617  67.558  1.00  0.00    -0.183 OA 
BRANCH   5   6
HETATM    6  C   UNL     1     -10.913  11.672  66.902  1.00  0.00    -0.292 C  
HETATM    7  C   UNL     1     -11.786  12.374  64.777  1.00  0.00    -0.382 C  
HETATM    8  O   UNL     1     -11.042  11.376  65.501  1.00  0.00    -0.239 OA 
HETATM    9  H   UNL     1      -9.548  14.168  68.613  1.00  0.00     0.000 HD 
HETATM   10  C   UNL     1     -11.132  13.759  64.889  1.00  0.00    -0.362 C  
HETATM   11  O   UNL     1     -10.006  13.344  68.490  1.00  0.00    -0.233 OA 
HETATM   12  O   UNL     1      -9.825  13.822  64.298  1.00  0.00    -0.692 OA 
HETATM   13  C   UNL     1     -10.973  14.114  66.373  1.00  0.00    -0.311 C  
HETATM   14  H   UNL     1      -9.420  14.679  64.367  1.00  0.00     0.000 HD 
HETATM   15  H   UNL     1     -10.279  15.631  67.418  1.00  0.00     0.000 HD 
HETATM   16  O   UNL     1     -10.377  15.410  66.499  1.00  0.00    -0.273 OA 
HETATM   17  C   UNL     1     -10.164  13.020  67.102  1.00  0.00    -0.243 C  
BRANCH   7  18
HETATM   18  C   UNL     1     -11.903  11.917  63.321  1.00  0.00    -0.318 C  
HETATM   19  O   UNL     1     -10.726  11.211  62.938  1.00  0.00    -0.779 OA 
HETATM   20  H   UNL     1     -10.798  10.927  62.035  1.00  0.00     0.000 HD 
ENDBRANCH   7  18
ENDBRANCH   5   6
ENDBRANCH   4   5
BRANCH   4  21
HETATM   21  C   UNL     1      -8.413   9.162  66.757  1.00  0.00    -0.123 C  
HETATM   22  H   UNL     1      -6.817   9.543  65.621  1.00  0.00     0.000 HD 
HETATM   23  O   UNL     1      -7.748   9.729  65.609  1.00  0.00    -0.107 OA 
BRANCH  21  24
HETATM   24  C   UNL     1      -8.100   7.662  66.769  1.00  0.00    -0.115 C  
HETATM   25  H   UNL     1      -6.637   6.503  66.142  1.00  0.00     0.000 HD 
HETATM   26  C   UNL     1      -8.003   7.077  68.169  1.00  0.00    -0.119 C  
HETATM   27  O   UNL     1      -6.830   7.433  66.134  1.00  0.00    -0.055 OA 
HETATM   28  O   UNL     1      -7.928   7.733  69.204  1.00  0.00    -0.115 OA 
ENDBRANCH  21  24
ENDBRANCH   4  21
ENDBRANCH   3   4
TORSDOF 6
ENDMDL
MODEL      166
REMARK 921   NORMALIZED FREE ENERGY PREDICTED BY IDOCK:   -3.82 KCAL/MOL
REMARK 922        TOTAL FREE ENERGY PREDICTED BY IDOCK:   -6.36 KCAL/MOL
REMARK 923 INTER-LIGAND FREE ENERGY PREDICTED BY IDOCK:   -5.32 KCAL/MOL
REMARK 924 INTRA-LIGAND FREE ENERGY PREDICTED BY IDOCK:   -1.04 KCAL/MOL
REMARK 927      BINDING AFFINITY PREDICTED BY RF-SCORE:    0.00 PKD
ROOT
HETATM    1  O   UNL     1     -12.480  15.462  68.256  1.00  0.00    -0.343 OA 
HETATM    2  H   UNL     1     -13.393  15.346  68.494  1.00  0.00     0.000 HD 
HETATM    3  C   UNL     1     -11.593  14.617  68.970  1.00  0.00    -0.298 C  
ENDROOT
BRANCH   3   4
HETATM    4  C   UNL     1     -10.107  14.804  68.583  1.00  0.00    -0.238 C  
BRANCH   4   5
HETATM    5  O   UNL     1      -9.786  14.506  67.212  1.00  0.00    -0.225 OA 
BRANCH   5   6
HETATM    6  C   UNL     1      -9.217  13.217  66.993  1.00  0.00    -0.237 C  
HETATM    7  C   UNL     1      -9.623  10.864  67.256  1.00  0.00    -0.164 C  
HETATM    8  O   UNL     1     -10.105  12.201  67.490  1.00  0.00    -0.194 OA 
HETATM    9  H   UNL     1      -6.075  14.057  67.657  1.00  0.00     0.000 HD 
HETATM   10  C   UNL     1      -8.255  10.633  67.914  1.00  0.00    -0.112 C  
HETATM   11  O   UNL     1      -6.922  14.121  67.230  1.00  0.00    -0.189 OA 
HETATM   12  O   UNL     1      -8.288  10.731  69.347  1.00  0.00    -0.331 OA 
HETATM   13  C   UNL     1      -7.275  11.701  67.412  1.00  0.00    -0.128 C  
HETATM   14  H   UNL     1      -7.441  10.588  69.754  1.00  0.00     0.000 HD 
HETATM   15  H   UNL     1      -5.381  12.155  67.692  1.00  0.00     0.000 HD 
HETATM   16  O   UNL     1      -5.988  11.494  68.004  1.00  0.00    -0.046 OA 
HETATM   17  C   UNL     1      -7.832  13.113  67.693  1.00  0.00    -0.169 C  
BRANCH   7  18
HETATM   18  C   UNL     1     -10.676   9.882  67.774  1.00  0.00    -0.277 C  
HETATM   19  O   UNL     1     -11.800  10.597  68.280  1.00  0.00    -0.731 OA 
HETATM   20  H   UNL     1     -12.453   9.987  68.601  1.00  0.00     0.000 HD 
ENDBRANCH   7  18
ENDBRANCH   5   6
ENDBRANCH   4   5
BRANCH   4  21
HETATM   21  C   UNL     1      -9.618  16.243  68.933  1.00  0.00    -0.243 C  
HETATM   22  H   UNL     1     -10.312  17.842  69.905  1.00  0.00     0.000 HD 
HETATM   23  O   UNL     1     -10.610  16.965  69.692  1.00  0.00    -0.301 OA 
BRANCH  21  24
HETATM   24  C   UNL     1      -9.291  17.083  67.695  1.00  0.00    -0.241 C  
HETATM   25  H   UNL     1     -10.261  18.327  66.516  1.00  0.00     0.000 HD 
HETATM   26  C   UNL     1      -8.201  18.115  67.936  1.00  0.00    -0.249 C  
HETATM   27  O   UNL     1     -10.464  17.806  67.283  1.00  0.00    -0.356 OA 
HETATM   28  O   UNL     1      -7.776  18.447  69.038  1.00  0.00    -0.251 OA 
ENDBRANCH  21  24
ENDBRANCH   4  21
ENDBRANCH   3   4
TORSDOF 6
ENDMDL
MODEL      167
REMARK 921   NORMALIZED FREE ENERGY PREDICTED BY IDOCK:   -3.81 KCAL/MOL
REMARK 922        TOTAL FREE ENERGY PREDICTED BY IDOCK:   -6.35 KCAL/MOL
REMARK 923 INTER-LIGAND FREE ENERGY PREDICTED BY IDOCK:   -5.71 KCAL/MOL
REMARK 924 INTRA-LIGAND FREE ENERGY PREDICTED BY IDOCK:   -0.65 KCAL/MOL
REMARK 927      BINDING AFFINITY PREDICTED BY RF-SCORE:    0.00 PKD
ROOT
HETATM    1  O   UNL     1      -9.198   7.010  65.547  1.00  0.00    -0.376 OA 
HETATM    2  H   UNL     1      -8.842   6.266  65.074  1.00  0.00     0.000 HD 
HETATM    3  C   UNL     1      -8.276   7.608  66.446  1.00  0.00    -0.124 C  
ENDROOT
BRANCH   3   4
HETATM    4  C   UNL     1      -8.855   8.818  67.217  1.00  0.00    -0.132 C  
BRANCH   4   5
HETATM    5  O   UNL     1     -10.135   9.286  66.756  1.00  0.00    -0.225 OA 
BRANCH   5   6
HETATM    6  C   UNL     1     -10.179  10.664  66.394  1.00  0.00    -0.234 C  
HETATM    7  C   UNL     1     -11.166  12.776  66.972  1.00  0.00    -0.292 C  
HETATM    8  O   UNL     1     -11.107  11.363  67.242  1.00  0.00    -0.270 OA 
HETATM    9  H   UNL     1      -9.944  10.215  63.114  1.00  0.00     0.000 HD 
HETATM   10  C   UNL     1     -11.579  13.058  65.520  1.00  0.00    -0.347 C  
HETATM   11  O   UNL     1      -9.693  10.122  64.025  1.00  0.00    -0.306 OA 
HETATM   12  O   UNL     1     -12.903  12.600  65.205  1.00  0.00    -0.721 OA 
HETATM   13  C   UNL     1     -10.613  12.326  64.579  1.00  0.00    -0.311 C  
HETATM   14  H   UNL     1     -13.159  12.774  64.306  1.00  0.00     0.000 HD 
HETATM   15  H   UNL     1     -10.374  12.136  62.635  1.00  0.00     0.000 HD 
HETATM   16  O   UNL     1     -10.973  12.588  63.218  1.00  0.00    -0.425 OA 
HETATM   17  C   UNL     1     -10.591  10.817  64.902  1.00  0.00    -0.188 C  
BRANCH   7  18
HETATM   18  C   UNL     1     -12.137  13.410  67.972  1.00  0.00    -0.248 C  
HETATM   19  O   UNL     1     -12.293  14.797  67.684  1.00  0.00    -0.551 OA 
HETATM   20  H   UNL     1     -12.895  15.190  68.304  1.00  0.00     0.000 HD 
ENDBRANCH   7  18
ENDBRANCH   5   6
ENDBRANCH   4   5
BRANCH   4  21
HETATM   21  C   UNL     1      -8.926   8.521  68.745  1.00  0.00    -0.139 C  
HETATM   22  H   UNL     1     -10.183   7.643  70.023  1.00  0.00     0.000 HD 
HETATM   23  O   UNL     1     -10.139   7.823  69.091  1.00  0.00    -0.185 OA 
BRANCH  21  24
HETATM   24  C   UNL     1      -8.868   9.788  69.605  1.00  0.00    -0.211 C  
HETATM   25  H   UNL     1      -8.939  10.214  71.526  1.00  0.00     0.000 HD 
HETATM   26  C   UNL     1      -7.571  10.565  69.450  1.00  0.00    -0.145 C  
HETATM   27  O   UNL     1      -8.974   9.429  70.993  1.00  0.00    -0.231 OA 
HETATM   28  O   UNL     1      -6.556  10.142  68.906  1.00  0.00    -0.048 OA 
ENDBRANCH  21  24
ENDBRANCH   4  21
ENDBRANCH   3   4
TORSDOF 6
ENDMDL
MODEL      168
REMARK 921   NORMALIZED FREE ENERGY PREDICTED BY IDOCK:   -3.81 KCAL/MOL
REMARK 922        TOTAL FREE ENERGY PREDICTED BY IDOCK:   -6.34 KCAL/MOL
REMARK 923 INTER-LIGAND FREE ENERGY PREDICTED BY IDOCK:   -5.46 KCAL/MOL
REMARK 924 INTRA-LIGAND FREE ENERGY PREDICTED BY IDOCK:   -0.89 KCAL/MOL
REMARK 927      BINDING AFFINITY PREDICTED BY RF-SCORE:    0.00 PKD
ROOT
HETATM    1  O   UNL     1      -9.826   8.617  66.945  1.00  0.00    -0.193 OA 
HETATM    2  H   UNL     1     -10.428   8.456  66.227  1.00  0.00     0.000 HD 
HETATM    3  C   UNL     1     -10.251   8.060  68.180  1.00  0.00    -0.207 C  
ENDROOT
BRANCH   3   4
HETATM    4  C   UNL     1      -9.271   8.321  69.349  1.00  0.00    -0.155 C  
BRANCH   4   5
HETATM    5  O   UNL     1      -9.882   8.448  70.646  1.00  0.00    -0.176 OA 
BRANCH   5   6
HETATM    6  C   UNL     1     -11.293   8.651  70.630  1.00  0.00    -0.247 C  
HETATM    7  C   UNL     1     -13.018  10.229  71.182  1.00  0.00    -0.409 C  
HETATM    8  O   UNL     1     -11.610   9.928  71.211  1.00  0.00    -0.360 OA 
HETATM    9  H   UNL     1     -12.146   5.522  71.338  1.00  0.00     0.000 HD 
HETATM   10  C   UNL     1     -13.838   9.172  71.936  1.00  0.00    -0.395 C  
HETATM   11  O   UNL     1     -11.708   6.219  70.863  1.00  0.00    -0.333 OA 
HETATM   12  O   UNL     1     -13.538   9.110  73.338  1.00  0.00    -0.867 OA 
HETATM   13  C   UNL     1     -13.527   7.790  71.347  1.00  0.00    -0.264 C  
HETATM   14  H   UNL     1     -14.045   8.456  73.805  1.00  0.00     0.000 HD 
HETATM   15  H   UNL     1     -14.103   5.935  71.662  1.00  0.00     0.000 HD 
HETATM   16  O   UNL     1     -14.295   6.791  72.027  1.00  0.00    -0.274 OA 
HETATM   17  C   UNL     1     -12.010   7.511  71.408  1.00  0.00    -0.309 C  
BRANCH   7  18
HETATM   18  C   UNL     1     -13.216  11.628  71.771  1.00  0.00    -0.333 C  
HETATM   19  O   UNL     1     -12.174  12.494  71.328  1.00  0.00    -0.285 OA 
HETATM   20  H   UNL     1     -12.297  13.362  71.694  1.00  0.00     0.000 HD 
ENDBRANCH   7  18
ENDBRANCH   5   6
ENDBRANCH   4   5
BRANCH   4  21
HETATM   21  C   UNL     1      -8.162   7.227  69.399  1.00  0.00    -0.131 C  
HETATM   22  H   UNL     1      -6.906   6.339  68.127  1.00  0.00     0.000 HD 
HETATM   23  O   UNL     1      -7.582   7.006  68.097  1.00  0.00    -0.103 OA 
BRANCH  21  24
HETATM   24  C   UNL     1      -8.674   5.875  69.905  1.00  0.00    -0.129 C  
HETATM   25  H   UNL     1      -8.464   3.986  69.393  1.00  0.00     0.000 HD 
HETATM   26  C   UNL     1      -8.255   5.566  71.333  1.00  0.00    -0.118 C  
HETATM   27  O   UNL     1      -8.146   4.823  69.079  1.00  0.00    -0.078 OA 
HETATM   28  O   UNL     1      -7.399   6.177  71.964  1.00  0.00    -0.090 OA 
ENDBRANCH  21  24
ENDBRANCH   4  21
ENDBRANCH   3   4
TORSDOF 6
ENDMDL
MODEL      169
REMARK 921   NORMALIZED FREE ENERGY PREDICTED BY IDOCK:   -3.79 KCAL/MOL
REMARK 922        TOTAL FREE ENERGY PREDICTED BY IDOCK:   -6.32 KCAL/MOL
REMARK 923 INTER-LIGAND FREE ENERGY PREDICTED BY IDOCK:   -5.53 KCAL/MOL
REMARK 924 INTRA-LIGAND FREE ENERGY PREDICTED BY IDOCK:   -0.80 KCAL/MOL
REMARK 927      BINDING AFFINITY PREDICTED BY RF-SCORE:    0.00 PKD
ROOT
HETATM    1  O   UNL     1     -11.778  12.095  64.243  1.00  0.00    -0.350 OA 
HETATM    2  H   UNL     1     -12.064  12.111  63.337  1.00  0.00     0.000 HD 
HETATM    3  C   UNL     1     -10.406  12.412  64.414  1.00  0.00    -0.343 C  
ENDROOT
BRANCH   3   4
HETATM    4  C   UNL     1      -9.940  12.386  65.889  1.00  0.00    -0.255 C  
BRANCH   4   5
HETATM    5  O   UNL     1     -10.855  12.971  66.834  1.00  0.00    -0.260 OA 
BRANCH   5   6
HETATM    6  C   UNL     1     -10.528  14.295  67.248  1.00  0.00    -0.269 C  
HETATM    7  C   UNL     1     -10.533  16.590  66.540  1.00  0.00    -0.270 C  
HETATM    8  O   UNL     1     -10.789  15.220  66.178  1.00  0.00    -0.316 OA 
HETATM    9  H   UNL     1      -7.823  13.502  69.000  1.00  0.00     0.000 HD 
HETATM   10  C   UNL     1      -9.075  16.798  66.974  1.00  0.00    -0.224 C  
HETATM   11  O   UNL     1      -8.735  13.454  68.738  1.00  0.00    -0.035 OA 
HETATM   12  O   UNL     1      -8.126  16.546  65.926  1.00  0.00    -0.289 OA 
HETATM   13  C   UNL     1      -8.753  15.826  68.116  1.00  0.00    -0.173 C  
HETATM   14  H   UNL     1      -7.224  16.675  66.194  1.00  0.00     0.000 HD 
HETATM   15  H   UNL     1      -7.201  15.413  69.253  1.00  0.00     0.000 HD 
HETATM   16  O   UNL     1      -7.400  16.014  68.546  1.00  0.00    -0.135 OA 
HETATM   17  C   UNL     1      -9.035  14.373  67.677  1.00  0.00    -0.192 C  
BRANCH   7  18
HETATM   18  C   UNL     1     -10.902  17.473  65.345  1.00  0.00     0.059 C  
HETATM   19  O   UNL     1     -11.064  16.670  64.179  1.00  0.00    -1.338 OA 
HETATM   20  H   UNL     1     -11.292  17.218  63.438  1.00  0.00     0.000 HD 
ENDBRANCH   7  18
ENDBRANCH   5   6
ENDBRANCH   4   5
BRANCH   4  21
HETATM   21  C   UNL     1      -9.585  10.935  66.334  1.00  0.00    -0.197 C  
HETATM   22  H   UNL     1      -9.352   9.145  65.484  1.00  0.00     0.000 HD 
HETATM   23  O   UNL     1      -9.568  10.029  65.212  1.00  0.00    -0.247 OA 
BRANCH  21  24
HETATM   24  C   UNL     1     -10.567  10.366  67.364  1.00  0.00    -0.269 C  
HETATM   25  H   UNL     1     -11.555   8.682  67.616  1.00  0.00     0.000 HD 
HETATM   26  C   UNL     1      -9.985  10.269  68.765  1.00  0.00    -0.179 C  
HETATM   27  O   UNL     1     -10.947   9.034  66.978  1.00  0.00    -0.091 OA 
HETATM   28  O   UNL     1      -8.796  10.384  69.044  1.00  0.00    -0.154 OA 
ENDBRANCH  21  24
ENDBRANCH   4  21
ENDBRANCH   3   4
TORSDOF 6
ENDMDL
MODEL      170
REMARK 921   NORMALIZED FREE ENERGY PREDICTED BY IDOCK:   -3.78 KCAL/MOL
REMARK 922        TOTAL FREE ENERGY PREDICTED BY IDOCK:   -6.31 KCAL/MOL
REMARK 923 INTER-LIGAND FREE ENERGY PREDICTED BY IDOCK:   -6.46 KCAL/MOL
REMARK 924 INTRA-LIGAND FREE ENERGY PREDICTED BY IDOCK:    0.14 KCAL/MOL
REMARK 927      BINDING AFFINITY PREDICTED BY RF-SCORE:    0.00 PKD
ROOT
HETATM    1  O   UNL     1     -11.901  12.271  70.487  1.00  0.00    -0.509 OA 
HETATM    2  H   UNL     1     -12.618  12.894  70.503  1.00  0.00     0.000 HD 
HETATM    3  C   UNL     1     -11.961  11.361  69.399  1.00  0.00    -0.339 C  
ENDROOT
BRANCH   3   4
HETATM    4  C   UNL     1     -10.794  10.346  69.371  1.00  0.00    -0.248 C  
BRANCH   4   5
HETATM    5  O   UNL     1      -9.534  10.870  68.912  1.00  0.00    -0.188 OA 
BRANCH   5   6
HETATM    6  C   UNL     1      -9.597  11.615  67.699  1.00  0.00    -0.181 C  
HETATM    7  C   UNL     1     -10.511  13.602  66.706  1.00  0.00    -0.270 C  
HETATM    8  O   UNL     1     -10.440  12.767  67.877  1.00  0.00    -0.211 OA 
HETATM    9  H   UNL     1      -9.659   9.011  65.642  1.00  0.00     0.000 HD 
HETATM   10  C   UNL     1     -11.048  12.830  65.492  1.00  0.00    -0.285 C  
HETATM   11  O   UNL     1      -9.329   9.556  66.346  1.00  0.00    -0.157 OA 
HETATM   12  O   UNL     1     -12.399  12.373  65.659  1.00  0.00    -0.639 OA 
HETATM   13  C   UNL     1     -10.176  11.588  65.268  1.00  0.00    -0.267 C  
HETATM   14  H   UNL     1     -12.732  11.896  64.908  1.00  0.00     0.000 HD 
HETATM   15  H   UNL     1     -10.113  10.092  63.991  1.00  0.00     0.000 HD 
HETATM   16  O   UNL     1     -10.653  10.861  64.130  1.00  0.00    -0.375 OA 
HETATM   17  C   UNL     1     -10.139  10.723  66.546  1.00  0.00    -0.228 C  
BRANCH   7  18
HETATM   18  C   UNL     1     -11.383  14.815  67.039  1.00  0.00    -0.353 C  
HETATM   19  O   UNL     1     -12.720  14.587  66.600  1.00  0.00    -0.423 OA 
HETATM   20  H   UNL     1     -13.261  15.340  66.808  1.00  0.00     0.000 HD 
ENDBRANCH   7  18
ENDBRANCH   5   6
ENDBRANCH   4   5
BRANCH   4  21
HETATM   21  C   UNL     1     -10.605   9.677  70.766  1.00  0.00    -0.322 C  
HETATM   22  H   UNL     1      -9.134   8.818  71.805  1.00  0.00     0.000 HD 
HETATM   23  O   UNL     1      -9.248   9.226  70.955  1.00  0.00    -0.246 OA 
BRANCH  21  24
HETATM   24  C   UNL     1     -11.521   8.468  70.980  1.00  0.00    -0.273 C  
HETATM   25  H   UNL     1     -11.384   6.711  71.859  1.00  0.00     0.000 HD 
HETATM   26  C   UNL     1     -12.782   8.795  71.764  1.00  0.00    -0.359 C  
HETATM   27  O   UNL     1     -10.817   7.461  71.727  1.00  0.00    -0.221 OA 
HETATM   28  O   UNL     1     -12.972   9.833  72.390  1.00  0.00    -0.363 OA 
ENDBRANCH  21  24
ENDBRANCH   4  21
ENDBRANCH   3   4
TORSDOF 6
ENDMDL
MODEL      171
REMARK 921   NORMALIZED FREE ENERGY PREDICTED BY IDOCK:   -3.78 KCAL/MOL
REMARK 922        TOTAL FREE ENERGY PREDICTED BY IDOCK:   -6.31 KCAL/MOL
REMARK 923 INTER-LIGAND FREE ENERGY PREDICTED BY IDOCK:   -5.37 KCAL/MOL
REMARK 924 INTRA-LIGAND FREE ENERGY PREDICTED BY IDOCK:   -0.93 KCAL/MOL
REMARK 927      BINDING AFFINITY PREDICTED BY RF-SCORE:    0.00 PKD
ROOT
HETATM    1  O   UNL     1     -13.937   7.880  70.960  1.00  0.00    -0.609 OA 
HETATM    2  H   UNL     1     -14.418   8.660  71.210  1.00  0.00     0.000 HD 
HETATM    3  C   UNL     1     -12.846   7.582  71.817  1.00  0.00    -0.327 C  
ENDROOT
BRANCH   3   4
HETATM    4  C   UNL     1     -12.063   6.312  71.411  1.00  0.00    -0.072 C  
BRANCH   4   5
HETATM    5  O   UNL     1     -11.751   6.203  70.010  1.00  0.00    -0.336 OA 
BRANCH   5   6
HETATM    6  C   UNL     1     -10.693   7.046  69.561  1.00  0.00    -0.241 C  
HETATM    7  C   UNL     1     -10.123   9.328  69.076  1.00  0.00    -0.199 C  
HETATM    8  O   UNL     1     -11.154   8.405  69.473  1.00  0.00    -0.111 OA 
HETATM    9  H   UNL     1      -9.388   4.909  67.381  1.00  0.00     0.000 HD 
HETATM   10  C   UNL     1      -9.530   8.961  67.708  1.00  0.00    -0.141 C  
HETATM   11  O   UNL     1      -9.709   5.205  68.226  1.00  0.00    -0.129 OA 
HETATM   12  O   UNL     1     -10.482   9.040  66.635  1.00  0.00    -0.246 OA 
HETATM   13  C   UNL     1      -9.026   7.513  67.758  1.00  0.00    -0.131 C  
HETATM   14  H   UNL     1     -10.115   8.813  65.788  1.00  0.00     0.000 HD 
HETATM   15  H   UNL     1      -8.144   6.259  66.525  1.00  0.00     0.000 HD 
HETATM   16  O   UNL     1      -8.457   7.155  66.494  1.00  0.00    -0.115 OA 
HETATM   17  C   UNL     1     -10.169   6.563  68.179  1.00  0.00    -0.168 C  
BRANCH   7  18
HETATM   18  C   UNL     1     -10.721  10.738  69.076  1.00  0.00    -0.228 C  
HETATM   19  O   UNL     1     -12.045  10.703  68.550  1.00  0.00    -0.801 OA 
HETATM   20  H   UNL     1     -12.416  11.577  68.551  1.00  0.00     0.000 HD 
ENDBRANCH   7  18
ENDBRANCH   5   6
ENDBRANCH   4   5
BRANCH   4  21
HETATM   21  C   UNL     1     -10.757   6.172  72.249  1.00  0.00    -0.229 C  
HETATM   22  H   UNL     1      -9.932   4.842  73.488  1.00  0.00     0.000 HD 
HETATM   23  O   UNL     1     -10.728   4.927  72.977  1.00  0.00    -0.207 OA 
BRANCH  21  24
HETATM   24  C   UNL     1     -10.576   7.300  73.271  1.00  0.00    -0.382 C  
HETATM   25  H   UNL     1     -10.162   7.435  75.191  1.00  0.00     0.000 HD 
HETATM   26  C   UNL     1      -9.438   8.249  72.928  1.00  0.00    -0.250 C  
HETATM   27  O   UNL     1     -10.274   6.736  74.558  1.00  0.00    -0.321 OA 
HETATM   28  O   UNL     1      -8.576   8.038  72.081  1.00  0.00    -0.128 OA 
ENDBRANCH  21  24
ENDBRANCH   4  21
ENDBRANCH   3   4
TORSDOF 6
ENDMDL
MODEL      172
REMARK 921   NORMALIZED FREE ENERGY PREDICTED BY IDOCK:   -3.78 KCAL/MOL
REMARK 922        TOTAL FREE ENERGY PREDICTED BY IDOCK:   -6.30 KCAL/MOL
REMARK 923 INTER-LIGAND FREE ENERGY PREDICTED BY IDOCK:   -5.72 KCAL/MOL
REMARK 924 INTRA-LIGAND FREE ENERGY PREDICTED BY IDOCK:   -0.59 KCAL/MOL
REMARK 927      BINDING AFFINITY PREDICTED BY RF-SCORE:    0.00 PKD
ROOT
HETATM    1  O   UNL     1     -11.106  15.694  65.034  1.00  0.00    -0.395 OA 
HETATM    2  H   UNL     1     -10.930  15.454  64.131  1.00  0.00     0.000 HD 
HETATM    3  C   UNL     1      -9.939  16.004  65.779  1.00  0.00    -0.351 C  
ENDROOT
BRANCH   3   4
HETATM    4  C   UNL     1     -10.224  16.396  67.248  1.00  0.00    -0.278 C  
BRANCH   4   5
HETATM    5  O   UNL     1      -9.724  15.478  68.238  1.00  0.00    -0.199 OA 
BRANCH   5   6
HETATM    6  C   UNL     1      -9.407  14.178  67.748  1.00  0.00    -0.200 C  
HETATM    7  C   UNL     1      -9.950  11.849  67.975  1.00  0.00    -0.190 C  
HETATM    8  O   UNL     1     -10.177  13.188  68.452  1.00  0.00    -0.243 OA 
HETATM    9  H   UNL     1      -6.155  14.698  67.331  1.00  0.00     0.000 HD 
HETATM   10  C   UNL     1      -8.474  11.446  68.098  1.00  0.00    -0.152 C  
HETATM   11  O   UNL     1      -7.084  14.870  67.231  1.00  0.00    -0.189 OA 
HETATM   12  O   UNL     1      -8.007  11.401  69.456  1.00  0.00    -0.355 OA 
HETATM   13  C   UNL     1      -7.614  12.480  67.360  1.00  0.00    -0.156 C  
HETATM   14  H   UNL     1      -7.093  11.152  69.532  1.00  0.00     0.000 HD 
HETATM   15  H   UNL     1      -5.700  12.754  66.994  1.00  0.00     0.000 HD 
HETATM   16  O   UNL     1      -6.232  12.114  67.452  1.00  0.00    -0.111 OA 
HETATM   17  C   UNL     1      -7.886  13.895  67.913  1.00  0.00    -0.161 C  
BRANCH   7  18
HETATM   18  C   UNL     1     -10.865  10.904  68.759  1.00  0.00    -0.209 C  
HETATM   19  O   UNL     1     -11.353   9.877  67.900  1.00  0.00    -0.517 OA 
HETATM   20  H   UNL     1     -11.920   9.291  68.386  1.00  0.00     0.000 HD 
ENDBRANCH   7  18
ENDBRANCH   5   6
ENDBRANCH   4   5
BRANCH   4  21
HETATM   21  C   UNL     1      -9.698  17.831  67.553  1.00  0.00    -0.284 C  
HETATM   22  H   UNL     1     -10.011  19.261  68.910  1.00  0.00     0.000 HD 
HETATM   23  O   UNL     1     -10.331  18.386  68.724  1.00  0.00    -0.349 OA 
BRANCH  21  24
HETATM   24  C   UNL     1      -9.933  18.813  66.401  1.00  0.00    -0.392 C  
HETATM   25  H   UNL     1     -11.204  20.259  65.993  1.00  0.00     0.000 HD 
HETATM   26  C   UNL     1      -8.753  19.738  66.146  1.00  0.00    -0.332 C  
HETATM   27  O   UNL     1     -11.060  19.651  66.708  1.00  0.00    -0.377 OA 
HETATM   28  O   UNL     1      -7.801  19.891  66.905  1.00  0.00    -0.275 OA 
ENDBRANCH  21  24
ENDBRANCH   4  21
ENDBRANCH   3   4
TORSDOF 6
ENDMDL
MODEL      173
REMARK 921   NORMALIZED FREE ENERGY PREDICTED BY IDOCK:   -3.77 KCAL/MOL
REMARK 922        TOTAL FREE ENERGY PREDICTED BY IDOCK:   -6.30 KCAL/MOL
REMARK 923 INTER-LIGAND FREE ENERGY PREDICTED BY IDOCK:   -5.67 KCAL/MOL
REMARK 924 INTRA-LIGAND FREE ENERGY PREDICTED BY IDOCK:   -0.63 KCAL/MOL
REMARK 927      BINDING AFFINITY PREDICTED BY RF-SCORE:    0.00 PKD
ROOT
HETATM    1  O   UNL     1     -11.028   8.274  67.637  1.00  0.00    -0.502 OA 
HETATM    2  H   UNL     1     -11.622   8.724  67.046  1.00  0.00     0.000 HD 
HETATM    3  C   UNL     1     -11.056   6.862  67.508  1.00  0.00    -0.213 C  
ENDROOT
BRANCH   3   4
HETATM    4  C   UNL     1     -10.090   6.130  68.469  1.00  0.00    -0.162 C  
BRANCH   4   5
HETATM    5  O   UNL     1     -10.722   5.371  69.516  1.00  0.00    -0.295 OA 
BRANCH   5   6
HETATM    6  C   UNL     1     -10.929   6.083  70.734  1.00  0.00    -0.297 C  
HETATM    7  C   UNL     1     -12.485   7.495  71.898  1.00  0.00    -0.303 C  
HETATM    8  O   UNL     1     -12.179   6.793  70.679  1.00  0.00    -0.386 OA 
HETATM    9  H   UNL     1      -7.774   7.005  71.191  1.00  0.00     0.000 HD 
HETATM   10  C   UNL     1     -11.397   8.520  72.250  1.00  0.00    -0.371 C  
HETATM   11  O   UNL     1      -8.490   6.400  71.037  1.00  0.00    -0.125 OA 
HETATM   12  O   UNL     1     -11.269   9.572  71.280  1.00  0.00    -0.330 OA 
HETATM   13  C   UNL     1     -10.043   7.802  72.317  1.00  0.00    -0.220 C  
HETATM   14  H   UNL     1     -10.595  10.206  71.498  1.00  0.00     0.000 HD 
HETATM   15  H   UNL     1      -8.176   8.294  72.700  1.00  0.00     0.000 HD 
HETATM   16  O   UNL     1      -9.015   8.739  72.658  1.00  0.00    -0.380 OA 
HETATM   17  C   UNL     1      -9.757   7.073  70.987  1.00  0.00    -0.173 C  
BRANCH   7  18
HETATM   18  C   UNL     1     -13.856   8.157  71.734  1.00  0.00    -0.393 C  
HETATM   19  O   UNL     1     -14.072   9.093  72.786  1.00  0.00    -0.877 OA 
HETATM   20  H   UNL     1     -14.923   9.504  72.683  1.00  0.00     0.000 HD 
ENDBRANCH   7  18
ENDBRANCH   5   6
ENDBRANCH   4   5
BRANCH   4  21
HETATM   21  C   UNL     1      -9.109   5.212  67.679  1.00  0.00    -0.111 C  
HETATM   22  H   UNL     1      -7.798   3.761  68.079  1.00  0.00     0.000 HD 
HETATM   23  O   UNL     1      -8.397   4.320  68.560  1.00  0.00    -0.083 OA 
BRANCH  21  24
HETATM   24  C   UNL     1      -8.061   5.999  66.884  1.00  0.00    -0.105 C  
HETATM   25  H   UNL     1      -6.102   5.976  66.691  1.00  0.00     0.000 HD 
HETATM   26  C   UNL     1      -8.241   5.894  65.378  1.00  0.00    -0.139 C  
HETATM   27  O   UNL     1      -6.751   5.488  67.183  1.00  0.00    -0.055 OA 
HETATM   28  O   UNL     1      -8.969   5.087  64.810  1.00  0.00    -0.151 OA 
ENDBRANCH  21  24
ENDBRANCH   4  21
ENDBRANCH   3   4
TORSDOF 6
ENDMDL
MODEL      174
REMARK 921   NORMALIZED FREE ENERGY PREDICTED BY IDOCK:   -3.77 KCAL/MOL
REMARK 922        TOTAL FREE ENERGY PREDICTED BY IDOCK:   -6.29 KCAL/MOL
REMARK 923 INTER-LIGAND FREE ENERGY PREDICTED BY IDOCK:   -5.31 KCAL/MOL
REMARK 924 INTRA-LIGAND FREE ENERGY PREDICTED BY IDOCK:   -0.98 KCAL/MOL
REMARK 927      BINDING AFFINITY PREDICTED BY RF-SCORE:    0.00 PKD
ROOT
HETATM    1  O   UNL     1     -12.801  10.538  69.390  1.00  0.00    -0.654 OA 
HETATM    2  H   UNL     1     -13.293  10.222  70.140  1.00  0.00     0.000 HD 
HETATM    3  C   UNL     1     -11.484  10.960  69.708  1.00  0.00    -0.313 C  
ENDROOT
BRANCH   3   4
HETATM    4  C   UNL     1     -10.684  11.475  68.489  1.00  0.00    -0.209 C  
BRANCH   4   5
HETATM    5  O   UNL     1     -10.924  10.774  67.255  1.00  0.00    -0.290 OA 
BRANCH   5   6
HETATM    6  C   UNL     1     -10.226   9.538  67.118  1.00  0.00    -0.242 C  
HETATM    7  C   UNL     1     -10.252   7.229  67.780  1.00  0.00    -0.195 C  
HETATM    8  O   UNL     1     -10.870   8.524  67.908  1.00  0.00    -0.125 OA 
HETATM    9  H   UNL     1      -7.165  10.821  67.067  1.00  0.00     0.000 HD 
HETATM   10  C   UNL     1      -8.776   7.263  68.201  1.00  0.00    -0.128 C  
HETATM   11  O   UNL     1      -8.071  10.719  66.798  1.00  0.00    -0.126 OA 
HETATM   12  O   UNL     1      -8.586   7.589  69.587  1.00  0.00    -0.134 OA 
HETATM   13  C   UNL     1      -8.050   8.337  67.381  1.00  0.00    -0.121 C  
HETATM   14  H   UNL     1      -7.672   7.609  69.847  1.00  0.00     0.000 HD 
HETATM   15  H   UNL     1      -6.217   9.039  67.241  1.00  0.00     0.000 HD 
HETATM   16  O   UNL     1      -6.667   8.374  67.750  1.00  0.00    -0.063 OA 
HETATM   17  C   UNL     1      -8.744   9.705  67.558  1.00  0.00    -0.125 C  
BRANCH   7  18
HETATM   18  C   UNL     1     -11.059   6.233  68.616  1.00  0.00    -0.325 C  
HETATM   19  O   UNL     1     -11.583   6.881  69.772  1.00  0.00    -0.540 OA 
HETATM   20  H   UNL     1     -12.084   6.263  70.291  1.00  0.00     0.000 HD 
ENDBRANCH   7  18
ENDBRANCH   5   6
ENDBRANCH   4   5
BRANCH   4  21
HETATM   21  C   UNL     1     -10.916  13.002  68.276  1.00  0.00    -0.260 C  
HETATM   22  H   UNL     1     -12.146  14.418  68.958  1.00  0.00     0.000 HD 
HETATM   23  O   UNL     1     -12.005  13.487  69.088  1.00  0.00    -0.322 OA 
BRANCH  21  24
HETATM   24  C   UNL     1     -11.236  13.363  66.822  1.00  0.00    -0.310 C  
HETATM   25  H   UNL     1     -12.840  13.861  65.794  1.00  0.00     0.000 HD 
HETATM   26  C   UNL     1     -10.501  14.600  66.331  1.00  0.00    -0.295 C  
HETATM   27  O   UNL     1     -12.642  13.637  66.696  1.00  0.00    -0.306 OA 
HETATM   28  O   UNL     1      -9.905  15.397  67.049  1.00  0.00    -0.227 OA 
ENDBRANCH  21  24
ENDBRANCH   4  21
ENDBRANCH   3   4
TORSDOF 6
ENDMDL
MODEL      175
REMARK 921   NORMALIZED FREE ENERGY PREDICTED BY IDOCK:   -3.77 KCAL/MOL
REMARK 922        TOTAL FREE ENERGY PREDICTED BY IDOCK:   -6.29 KCAL/MOL
REMARK 923 INTER-LIGAND FREE ENERGY PREDICTED BY IDOCK:   -5.23 KCAL/MOL
REMARK 924 INTRA-LIGAND FREE ENERGY PREDICTED BY IDOCK:   -1.06 KCAL/MOL
REMARK 927      BINDING AFFINITY PREDICTED BY RF-SCORE:    0.00 PKD
ROOT
HETATM    1  O   UNL     1     -11.206  11.889  69.959  1.00  0.00    -0.495 OA 
HETATM    2  H   UNL     1     -11.105  12.776  69.631  1.00  0.00     0.000 HD 
HETATM    3  C   UNL     1     -10.542  10.912  69.173  1.00  0.00    -0.220 C  
ENDROOT
BRANCH   3   4
HETATM    4  C   UNL     1     -10.705   9.469  69.706  1.00  0.00    -0.239 C  
BRANCH   4   5
HETATM    5  O   UNL     1      -9.708   8.532  69.262  1.00  0.00    -0.169 OA 
BRANCH   5   6
HETATM    6  C   UNL     1     -10.193   7.220  68.987  1.00  0.00    -0.197 C  
HETATM    7  C   UNL     1     -10.040   4.926  69.682  1.00  0.00    -0.230 C  
HETATM    8  O   UNL     1      -9.560   6.271  69.863  1.00  0.00    -0.154 OA 
HETATM    9  H   UNL     1     -10.367   7.550  65.689  1.00  0.00     0.000 HD 
HETATM   10  C   UNL     1      -9.817   4.434  68.244  1.00  0.00    -0.064 C  
HETATM   11  O   UNL     1     -10.531   7.778  66.596  1.00  0.00    -0.292 OA 
HETATM   12  O   UNL     1      -8.430   4.347  67.881  1.00  0.00    -0.097 OA 
HETATM   13  C   UNL     1     -10.476   5.422  67.274  1.00  0.00    -0.210 C  
HETATM   14  H   UNL     1      -8.292   4.043  66.991  1.00  0.00     0.000 HD 
HETATM   15  H   UNL     1     -10.700   5.585  65.325  1.00  0.00     0.000 HD 
HETATM   16  O   UNL     1     -10.291   4.974  65.926  1.00  0.00    -0.219 OA 
HETATM   17  C   UNL     1      -9.924   6.846  67.502  1.00  0.00    -0.149 C  
BRANCH   7  18
HETATM   18  C   UNL     1      -9.338   4.029  70.705  1.00  0.00    -0.146 C  
HETATM   19  O   UNL     1      -9.358   2.675  70.259  1.00  0.00    -0.125 OA 
HETATM   20  H   UNL     1      -8.923   2.119  70.893  1.00  0.00     0.000 HD 
ENDBRANCH   7  18
ENDBRANCH   5   6
ENDBRANCH   4   5
BRANCH   4  21
HETATM   21  C   UNL     1     -10.778   9.456  71.263  1.00  0.00    -0.350 C  
HETATM   22  H   UNL     1      -9.640   8.858  72.790  1.00  0.00     0.000 HD 
HETATM   23  O   UNL     1      -9.595   8.866  71.841  1.00  0.00    -0.298 OA 
BRANCH  21  24
HETATM   24  C   UNL     1     -11.984   8.679  71.801  1.00  0.00    -0.336 C  
HETATM   25  H   UNL     1     -12.398   7.619  73.408  1.00  0.00     0.000 HD 
HETATM   26  C   UNL     1     -13.213   9.547  72.021  1.00  0.00    -0.452 C  
HETATM   27  O   UNL     1     -11.650   8.100  73.075  1.00  0.00    -0.309 OA 
HETATM   28  O   UNL     1     -13.218  10.774  72.021  1.00  0.00    -0.484 OA 
ENDBRANCH  21  24
ENDBRANCH   4  21
ENDBRANCH   3   4
TORSDOF 6
ENDMDL
MODEL      176
REMARK 921   NORMALIZED FREE ENERGY PREDICTED BY IDOCK:   -3.75 KCAL/MOL
REMARK 922        TOTAL FREE ENERGY PREDICTED BY IDOCK:   -6.27 KCAL/MOL
REMARK 923 INTER-LIGAND FREE ENERGY PREDICTED BY IDOCK:   -5.16 KCAL/MOL
REMARK 924 INTRA-LIGAND FREE ENERGY PREDICTED BY IDOCK:   -1.11 KCAL/MOL
REMARK 927      BINDING AFFINITY PREDICTED BY RF-SCORE:    0.00 PKD
ROOT
HETATM    1  O   UNL     1     -11.614   6.563  66.783  1.00  0.00    -0.731 OA 
HETATM    2  H   UNL     1     -11.951   6.489  65.898  1.00  0.00     0.000 HD 
HETATM    3  C   UNL     1     -10.456   5.777  67.019  1.00  0.00    -0.280 C  
ENDROOT
BRANCH   3   4
HETATM    4  C   UNL     1      -9.906   5.896  68.460  1.00  0.00    -0.135 C  
BRANCH   4   5
HETATM    5  O   UNL     1     -10.806   5.469  69.499  1.00  0.00    -0.311 OA 
BRANCH   5   6
HETATM    6  C   UNL     1     -11.290   6.511  70.343  1.00  0.00    -0.383 C  
HETATM    7  C   UNL     1     -11.528   8.895  70.514  1.00  0.00    -0.200 C  
HETATM    8  O   UNL     1     -11.019   7.790  69.744  1.00  0.00    -0.237 OA 
HETATM    9  H   UNL     1     -10.459   5.097  73.229  1.00  0.00     0.000 HD 
HETATM   10  C   UNL     1     -10.930   8.922  71.929  1.00  0.00    -0.369 C  
HETATM   11  O   UNL     1     -10.865   5.152  72.371  1.00  0.00    -0.222 OA 
HETATM   12  O   UNL     1      -9.510   9.129  71.943  1.00  0.00    -0.332 OA 
HETATM   13  C   UNL     1     -11.196   7.571  72.605  1.00  0.00    -0.348 C  
HETATM   14  H   UNL     1      -9.140   9.146  72.818  1.00  0.00     0.000 HD 
HETATM   15  H   UNL     1     -10.823   6.744  74.351  1.00  0.00     0.000 HD 
HETATM   16  O   UNL     1     -10.658   7.580  73.932  1.00  0.00    -0.279 OA 
HETATM   17  C   UNL     1     -10.625   6.421  71.746  1.00  0.00    -0.220 C  
BRANCH   7  18
HETATM   18  C   UNL     1     -11.230  10.186  69.747  1.00  0.00    -0.272 C  
HETATM   19  O   UNL     1     -11.455  11.314  70.589  1.00  0.00    -0.437 OA 
HETATM   20  H   UNL     1     -11.270  12.115  70.113  1.00  0.00     0.000 HD 
ENDBRANCH   7  18
ENDBRANCH   5   6
ENDBRANCH   4   5
BRANCH   4  21
HETATM   21  C   UNL     1      -8.550   5.142  68.602  1.00  0.00    -0.087 C  
HETATM   22  H   UNL     1      -7.237   4.227  67.408  1.00  0.00     0.000 HD 
HETATM   23  O   UNL     1      -8.064   4.686  67.322  1.00  0.00    -0.101 OA 
BRANCH  21  24
HETATM   24  C   UNL     1      -8.637   3.916  69.517  1.00  0.00    -0.069 C  
HETATM   25  H   UNL     1      -8.193   2.003  69.388  1.00  0.00     0.000 HD 
HETATM   26  C   UNL     1      -7.813   4.052  70.788  1.00  0.00    -0.051 C  
HETATM   27  O   UNL     1      -8.139   2.762  68.821  1.00  0.00    -0.055 OA 
HETATM   28  O   UNL     1      -6.963   4.914  70.989  1.00  0.00    -0.044 OA 
ENDBRANCH  21  24
ENDBRANCH   4  21
ENDBRANCH   3   4
TORSDOF 6
ENDMDL
MODEL      177
REMARK 921   NORMALIZED FREE ENERGY PREDICTED BY IDOCK:   -3.75 KCAL/MOL
REMARK 922        TOTAL FREE ENERGY PREDICTED BY IDOCK:   -6.27 KCAL/MOL
REMARK 923 INTER-LIGAND FREE ENERGY PREDICTED BY IDOCK:   -5.54 KCAL/MOL
REMARK 924 INTRA-LIGAND FREE ENERGY PREDICTED BY IDOCK:   -0.73 KCAL/MOL
REMARK 927      BINDING AFFINITY PREDICTED BY RF-SCORE:    0.00 PKD
ROOT
HETATM    1  O   UNL     1     -11.348   7.170  67.348  1.00  0.00    -0.571 OA 
HETATM    2  H   UNL     1     -12.205   6.904  67.034  1.00  0.00     0.000 HD 
HETATM    3  C   UNL     1     -11.050   6.706  68.655  1.00  0.00    -0.213 C  
ENDROOT
BRANCH   3   4
HETATM    4  C   UNL     1      -9.656   7.139  69.167  1.00  0.00    -0.154 C  
BRANCH   4   5
HETATM    5  O   UNL     1      -9.587   8.467  69.717  1.00  0.00    -0.168 OA 
BRANCH   5   6
HETATM    6  C   UNL     1     -10.708   9.299  69.425  1.00  0.00    -0.208 C  
HETATM    7  C   UNL     1     -11.509  10.993  67.923  1.00  0.00    -0.282 C  
HETATM    8  O   UNL     1     -10.403  10.158  68.313  1.00  0.00    -0.168 OA 
HETATM    9  H   UNL     1     -11.624   9.838  72.570  1.00  0.00     0.000 HD 
HETATM   10  C   UNL     1     -11.973  11.894  69.078  1.00  0.00    -0.262 C  
HETATM   11  O   UNL     1     -11.391   9.321  71.808  1.00  0.00    -0.369 OA 
HETATM   12  O   UNL     1     -10.975  12.835  69.503  1.00  0.00    -0.450 OA 
HETATM   13  C   UNL     1     -12.308  11.014  70.289  1.00  0.00    -0.328 C  
HETATM   14  H   UNL     1     -11.262  13.393  70.217  1.00  0.00     0.000 HD 
HETATM   15  H   UNL     1     -12.964  11.290  72.124  1.00  0.00     0.000 HD 
HETATM   16  O   UNL     1     -12.756  11.835  71.374  1.00  0.00    -0.372 OA 
HETATM   17  C   UNL     1     -11.090  10.146  70.673  1.00  0.00    -0.322 C  
BRANCH   7  18
HETATM   18  C   UNL     1     -11.079  11.811  66.703  1.00  0.00    -0.310 C  
HETATM   19  O   UNL     1     -11.551  13.150  66.825  1.00  0.00    -0.329 OA 
HETATM   20  H   UNL     1     -11.284  13.658  66.068  1.00  0.00     0.000 HD 
ENDBRANCH   7  18
ENDBRANCH   5   6
ENDBRANCH   4   5
BRANCH   4  21
HETATM   21  C   UNL     1      -9.101   6.115  70.202  1.00  0.00    -0.152 C  
HETATM   22  H   UNL     1      -7.781   4.618  70.237  1.00  0.00     0.000 HD 
HETATM   23  O   UNL     1      -8.119   5.243  69.606  1.00  0.00    -0.088 OA 
BRANCH  21  24
HETATM   24  C   UNL     1     -10.191   5.225  70.809  1.00  0.00    -0.246 C  
HETATM   25  H   UNL     1     -10.550   3.294  70.938  1.00  0.00     0.000 HD 
HETATM   26  C   UNL     1     -10.329   5.382  72.315  1.00  0.00    -0.209 C  
HETATM   27  O   UNL     1      -9.874   3.845  70.562  1.00  0.00    -0.190 OA 
HETATM   28  O   UNL     1      -9.521   5.952  73.041  1.00  0.00    -0.150 OA 
ENDBRANCH  21  24
ENDBRANCH   4  21
ENDBRANCH   3   4
TORSDOF 6
ENDMDL
MODEL      178
REMARK 921   NORMALIZED FREE ENERGY PREDICTED BY IDOCK:   -3.75 KCAL/MOL
REMARK 922        TOTAL FREE ENERGY PREDICTED BY IDOCK:   -6.27 KCAL/MOL
REMARK 923 INTER-LIGAND FREE ENERGY PREDICTED BY IDOCK:   -5.22 KCAL/MOL
REMARK 924 INTRA-LIGAND FREE ENERGY PREDICTED BY IDOCK:   -1.04 KCAL/MOL
REMARK 927      BINDING AFFINITY PREDICTED BY RF-SCORE:    0.00 PKD
ROOT
HETATM    1  O   UNL     1     -10.997   8.105  67.213  1.00  0.00    -0.490 OA 
HETATM    2  H   UNL     1     -11.420   8.448  66.435  1.00  0.00     0.000 HD 
HETATM    3  C   UNL     1     -10.807   6.699  67.186  1.00  0.00    -0.401 C  
ENDROOT
BRANCH   3   4
HETATM    4  C   UNL     1     -10.117   6.139  68.453  1.00  0.00    -0.158 C  
BRANCH   4   5
HETATM    5  O   UNL     1     -11.003   5.574  69.437  1.00  0.00    -0.271 OA 
BRANCH   5   6
HETATM    6  C   UNL     1     -11.356   6.451  70.503  1.00  0.00    -0.375 C  
HETATM    7  C   UNL     1     -11.643   8.766  71.078  1.00  0.00    -0.288 C  
HETATM    8  O   UNL     1     -11.249   7.818  70.068  1.00  0.00    -0.224 OA 
HETATM    9  H   UNL     1      -9.947   4.692  72.940  1.00  0.00     0.000 HD 
HETATM   10  C   UNL     1     -10.792   8.626  72.348  1.00  0.00    -0.242 C  
HETATM   11  O   UNL     1     -10.509   4.845  72.189  1.00  0.00    -0.205 OA 
HETATM   12  O   UNL     1      -9.402   8.920  72.138  1.00  0.00    -0.348 OA 
HETATM   13  C   UNL     1     -10.876   7.178  72.846  1.00  0.00    -0.323 C  
HETATM   14  H   UNL     1      -8.874   8.834  72.924  1.00  0.00     0.000 HD 
HETATM   15  H   UNL     1     -10.152   6.133  74.348  1.00  0.00     0.000 HD 
HETATM   16  O   UNL     1     -10.099   7.030  74.040  1.00  0.00    -0.328 OA 
HETATM   17  C   UNL     1     -10.437   6.203  71.733  1.00  0.00    -0.216 C  
BRANCH   7  18
HETATM   18  C   UNL     1     -11.541  10.170  70.477  1.00  0.00    -0.329 C  
HETATM   19  O   UNL     1     -11.683  10.103  69.061  1.00  0.00    -0.490 OA 
HETATM   20  H   UNL     1     -11.620  10.975  68.688  1.00  0.00     0.000 HD 
ENDBRANCH   7  18
ENDBRANCH   5   6
ENDBRANCH   4   5
BRANCH   4  21
HETATM   21  C   UNL     1      -9.022   5.097  68.075  1.00  0.00    -0.110 C  
HETATM   22  H   UNL     1      -7.750   3.882  69.020  1.00  0.00     0.000 HD 
HETATM   23  O   UNL     1      -8.418   4.518  69.250  1.00  0.00    -0.077 OA 
BRANCH  21  24
HETATM   24  C   UNL     1      -7.892   5.693  67.230  1.00  0.00    -0.101 C  
HETATM   25  H   UNL     1      -5.938   5.879  67.385  1.00  0.00     0.000 HD 
HETATM   26  C   UNL     1      -7.752   5.043  65.863  1.00  0.00    -0.091 C  
HETATM   27  O   UNL     1      -6.638   5.509  67.909  1.00  0.00    -0.049 OA 
HETATM   28  O   UNL     1      -8.289   3.994  65.523  1.00  0.00    -0.107 OA 
ENDBRANCH  21  24
ENDBRANCH   4  21
ENDBRANCH   3   4
TORSDOF 6
ENDMDL
MODEL      179
REMARK 921   NORMALIZED FREE ENERGY PREDICTED BY IDOCK:   -3.74 KCAL/MOL
REMARK 922        TOTAL FREE ENERGY PREDICTED BY IDOCK:   -6.25 KCAL/MOL
REMARK 923 INTER-LIGAND FREE ENERGY PREDICTED BY IDOCK:   -5.16 KCAL/MOL
REMARK 924 INTRA-LIGAND FREE ENERGY PREDICTED BY IDOCK:   -1.10 KCAL/MOL
REMARK 927      BINDING AFFINITY PREDICTED BY RF-SCORE:    0.00 PKD
ROOT
HETATM    1  O   UNL     1      -8.568  10.080  64.897  1.00  0.00    -0.152 OA 
HETATM    2  H   UNL     1      -8.260  10.223  64.010  1.00  0.00     0.000 HD 
HETATM    3  C   UNL     1      -9.467  11.077  65.357  1.00  0.00    -0.222 C  
ENDROOT
BRANCH   3   4
HETATM    4  C   UNL     1      -9.969  10.844  66.802  1.00  0.00    -0.205 C  
BRANCH   4   5
HETATM    5  O   UNL     1      -8.965  10.416  67.740  1.00  0.00    -0.131 OA 
BRANCH   5   6
HETATM    6  C   UNL     1      -9.032   9.040  68.107  1.00  0.00    -0.133 C  
HETATM    7  C   UNL     1      -8.891   6.806  67.236  1.00  0.00    -0.118 C  
HETATM    8  O   UNL     1      -8.888   8.215  66.938  1.00  0.00    -0.124 OA 
HETATM    9  H   UNL     1     -11.390   9.365  70.421  1.00  0.00     0.000 HD 
HETATM   10  C   UNL     1     -10.190   6.378  67.935  1.00  0.00    -0.168 C  
HETATM   11  O   UNL     1     -10.566   9.551  69.986  1.00  0.00    -0.211 OA 
HETATM   12  O   UNL     1     -11.360   6.551  67.120  1.00  0.00    -0.711 OA 
HETATM   13  C   UNL     1     -10.384   7.238  69.191  1.00  0.00    -0.205 C  
HETATM   14  H   UNL     1     -12.164   6.287  67.553  1.00  0.00     0.000 HD 
HETATM   15  H   UNL     1     -11.704   7.377  70.644  1.00  0.00     0.000 HD 
HETATM   16  O   UNL     1     -11.584   6.845  69.866  1.00  0.00    -0.272 OA 
HETATM   17  C   UNL     1     -10.381   8.737  68.819  1.00  0.00    -0.213 C  
BRANCH   7  18
HETATM   18  C   UNL     1      -8.674   6.043  65.926  1.00  0.00    -0.154 C  
HETATM   19  O   UNL     1      -8.536   6.963  64.846  1.00  0.00    -0.346 OA 
HETATM   20  H   UNL     1      -8.401   6.490  64.034  1.00  0.00     0.000 HD 
ENDBRANCH   7  18
ENDBRANCH   5   6
ENDBRANCH   4   5
BRANCH   4  21
HETATM   21  C   UNL     1     -10.690  12.112  67.351  1.00  0.00    -0.234 C  
HETATM   22  H   UNL     1     -12.558  12.797  67.508  1.00  0.00     0.000 HD 
HETATM   23  O   UNL     1     -12.119  12.024  67.173  1.00  0.00    -0.587 OA 
BRANCH  21  24
HETATM   24  C   UNL     1     -10.227  13.406  66.674  1.00  0.00    -0.274 C  
HETATM   25  H   UNL     1     -11.032  15.141  66.206  1.00  0.00     0.000 HD 
HETATM   26  C   UNL     1      -9.089  14.099  67.409  1.00  0.00    -0.198 C  
HETATM   27  O   UNL     1     -11.319  14.339  66.626  1.00  0.00    -0.327 OA 
HETATM   28  O   UNL     1      -8.719  13.829  68.547  1.00  0.00    -0.173 OA 
ENDBRANCH  21  24
ENDBRANCH   4  21
ENDBRANCH   3   4
TORSDOF 6
ENDMDL
MODEL      180
REMARK 921   NORMALIZED FREE ENERGY PREDICTED BY IDOCK:   -3.73 KCAL/MOL
REMARK 922        TOTAL FREE ENERGY PREDICTED BY IDOCK:   -6.24 KCAL/MOL
REMARK 923 INTER-LIGAND FREE ENERGY PREDICTED BY IDOCK:   -6.01 KCAL/MOL
REMARK 924 INTRA-LIGAND FREE ENERGY PREDICTED BY IDOCK:   -0.23 KCAL/MOL
REMARK 927      BINDING AFFINITY PREDICTED BY RF-SCORE:    0.00 PKD
ROOT
HETATM    1  O   UNL     1     -10.630  17.233  65.399  1.00  0.00    -0.630 OA 
HETATM    2  H   UNL     1     -11.391  17.793  65.295  1.00  0.00     0.000 HD 
HETATM    3  C   UNL     1     -10.824  16.175  66.325  1.00  0.00    -0.135 C  
ENDROOT
BRANCH   3   4
HETATM    4  C   UNL     1      -9.586  15.262  66.495  1.00  0.00    -0.271 C  
BRANCH   4   5
HETATM    5  O   UNL     1      -8.859  15.434  67.724  1.00  0.00    -0.166 OA 
BRANCH   5   6
HETATM    6  C   UNL     1      -8.300  16.731  67.917  1.00  0.00    -0.195 C  
HETATM    7  C   UNL     1      -8.853  19.064  68.065  1.00  0.00    -0.309 C  
HETATM    8  O   UNL     1      -9.333  17.727  67.827  1.00  0.00    -0.251 OA 
HETATM    9  H   UNL     1      -5.473  16.188  66.265  1.00  0.00     0.000 HD 
HETATM   10  C   UNL     1      -7.755  19.457  67.065  1.00  0.00    -0.246 C  
HETATM   11  O   UNL     1      -6.149  16.022  66.911  1.00  0.00    -0.318 OA 
HETATM   12  O   UNL     1      -8.213  19.503  65.705  1.00  0.00    -0.427 OA 
HETATM   13  C   UNL     1      -6.631  18.416  67.128  1.00  0.00    -0.184 C  
HETATM   14  H   UNL     1      -7.534  19.747  65.086  1.00  0.00     0.000 HD 
HETATM   15  H   UNL     1      -4.893  18.128  66.251  1.00  0.00     0.000 HD 
HETATM   16  O   UNL     1      -5.589  18.773  66.212  1.00  0.00    -0.150 OA 
HETATM   17  C   UNL     1      -7.193  17.004  66.859  1.00  0.00    -0.209 C  
BRANCH   7  18
HETATM   18  C   UNL     1     -10.049  20.017  67.999  1.00  0.00    -0.420 C  
HETATM   19  O   UNL     1      -9.752  21.109  67.134  1.00  0.00    -0.655 OA 
HETATM   20  H   UNL     1     -10.495  21.701  67.093  1.00  0.00     0.000 HD 
ENDBRANCH   7  18
ENDBRANCH   5   6
ENDBRANCH   4   5
BRANCH   4  21
HETATM   21  C   UNL     1      -9.974  13.763  66.322  1.00  0.00    -0.305 C  
HETATM   22  H   UNL     1     -11.591  12.617  66.565  1.00  0.00     0.000 HD 
HETATM   23  O   UNL     1     -11.355  13.532  66.670  1.00  0.00    -0.305 OA 
BRANCH  21  24
HETATM   24  C   UNL     1      -9.125  12.821  67.182  1.00  0.00    -0.219 C  
HETATM   25  H   UNL     1      -9.240  12.039  68.985  1.00  0.00     0.000 HD 
HETATM   26  C   UNL     1      -8.937  11.444  66.564  1.00  0.00    -0.189 C  
HETATM   27  O   UNL     1      -9.767  12.622  68.452  1.00  0.00    -0.222 OA 
HETATM   28  O   UNL     1      -9.576  11.005  65.613  1.00  0.00    -0.205 OA 
ENDBRANCH  21  24
ENDBRANCH   4  21
ENDBRANCH   3   4
TORSDOF 6
ENDMDL
MODEL      181
REMARK 921   NORMALIZED FREE ENERGY PREDICTED BY IDOCK:   -3.72 KCAL/MOL
REMARK 922        TOTAL FREE ENERGY PREDICTED BY IDOCK:   -6.22 KCAL/MOL
REMARK 923 INTER-LIGAND FREE ENERGY PREDICTED BY IDOCK:   -5.83 KCAL/MOL
REMARK 924 INTRA-LIGAND FREE ENERGY PREDICTED BY IDOCK:   -0.39 KCAL/MOL
REMARK 927      BINDING AFFINITY PREDICTED BY RF-SCORE:    0.00 PKD
ROOT
HETATM    1  O   UNL     1     -12.357  14.178  67.711  1.00  0.00    -0.565 OA 
HETATM    2  H   UNL     1     -12.316  13.794  66.843  1.00  0.00     0.000 HD 
HETATM    3  C   UNL     1     -11.417  13.631  68.622  1.00  0.00    -0.307 C  
ENDROOT
BRANCH   3   4
HETATM    4  C   UNL     1     -11.484  14.257  70.036  1.00  0.00    -0.219 C  
BRANCH   4   5
HETATM    5  O   UNL     1     -10.622  15.389  70.249  1.00  0.00    -0.301 OA 
BRANCH   5   6
HETATM    6  C   UNL     1      -9.740  15.687  69.169  1.00  0.00    -0.249 C  
HETATM    7  C   UNL     1      -7.421  15.851  68.565  1.00  0.00    -0.139 C  
HETATM    8  O   UNL     1      -8.376  15.614  69.617  1.00  0.00    -0.219 OA 
HETATM    9  H   UNL     1     -11.591  18.080  67.803  1.00  0.00     0.000 HD 
HETATM   10  C   UNL     1      -7.615  17.234  67.927  1.00  0.00    -0.188 C  
HETATM   11  O   UNL     1     -11.404  17.216  68.151  1.00  0.00    -0.121 OA 
HETATM   12  O   UNL     1      -7.386  18.320  68.838  1.00  0.00    -0.285 OA 
HETATM   13  C   UNL     1      -9.063  17.355  67.435  1.00  0.00    -0.236 C  
HETATM   14  H   UNL     1      -7.506  19.176  68.443  1.00  0.00     0.000 HD 
HETATM   15  H   UNL     1     -10.157  18.710  66.518  1.00  0.00     0.000 HD 
HETATM   16  O   UNL     1      -9.261  18.635  66.823  1.00  0.00    -0.288 OA 
HETATM   17  C   UNL     1     -10.046  17.101  68.599  1.00  0.00    -0.329 C  
BRANCH   7  18
HETATM   18  C   UNL     1      -6.017  15.688  69.153  1.00  0.00    -0.110 C  
HETATM   19  O   UNL     1      -5.270  14.756  68.375  1.00  0.00    -0.097 OA 
HETATM   20  H   UNL     1      -4.399  14.655  68.739  1.00  0.00     0.000 HD 
ENDBRANCH   7  18
ENDBRANCH   5   6
ENDBRANCH   4   5
BRANCH   4  21
HETATM   21  C   UNL     1     -12.949  14.638  70.406  1.00  0.00    -0.200 C  
HETATM   22  H   UNL     1     -13.953  16.268  70.972  1.00  0.00     0.000 HD 
HETATM   23  O   UNL     1     -13.060  16.035  70.746  1.00  0.00    -0.362 OA 
BRANCH  21  24
HETATM   24  C   UNL     1     -13.496  13.837  71.592  1.00  0.00    -0.333 C  
HETATM   25  H   UNL     1     -13.379  11.980  72.237  1.00  0.00     0.000 HD 
HETATM   26  C   UNL     1     -13.037  14.366  72.942  1.00  0.00    -0.517 C  
HETATM   27  O   UNL     1     -13.040  12.477  71.502  1.00  0.00    -0.381 OA 
HETATM   28  O   UNL     1     -12.135  15.181  73.110  1.00  0.00    -0.385 OA 
ENDBRANCH  21  24
ENDBRANCH   4  21
ENDBRANCH   3   4
TORSDOF 6
ENDMDL
MODEL      182
REMARK 921   NORMALIZED FREE ENERGY PREDICTED BY IDOCK:   -3.71 KCAL/MOL
REMARK 922        TOTAL FREE ENERGY PREDICTED BY IDOCK:   -6.22 KCAL/MOL
REMARK 923 INTER-LIGAND FREE ENERGY PREDICTED BY IDOCK:   -5.36 KCAL/MOL
REMARK 924 INTRA-LIGAND FREE ENERGY PREDICTED BY IDOCK:   -0.86 KCAL/MOL
REMARK 927      BINDING AFFINITY PREDICTED BY RF-SCORE:    0.00 PKD
ROOT
HETATM    1  O   UNL     1      -7.915   8.983  72.113  1.00  0.00    -0.356 OA 
HETATM    2  H   UNL     1      -7.493   8.491  72.808  1.00  0.00     0.000 HD 
HETATM    3  C   UNL     1      -9.241   8.559  71.838  1.00  0.00    -0.255 C  
ENDROOT
BRANCH   3   4
HETATM    4  C   UNL     1      -9.929   9.359  70.707  1.00  0.00    -0.289 C  
BRANCH   4   5
HETATM    5  O   UNL     1      -9.109   9.622  69.554  1.00  0.00    -0.170 OA 
BRANCH   5   6
HETATM    6  C   UNL     1      -9.013  10.996  69.184  1.00  0.00     0.015 C  
HETATM    7  C   UNL     1     -10.208  12.795  68.133  1.00  0.00    -0.241 C  
HETATM    8  O   UNL     1     -10.207  11.401  68.493  1.00  0.00    -0.195 OA 
HETATM    9  H   UNL     1      -5.790  10.963  68.388  1.00  0.00     0.000 HD 
HETATM   10  C   UNL     1      -9.019  13.146  67.227  1.00  0.00    -0.216 C  
HETATM   11  O   UNL     1      -6.553  10.822  68.937  1.00  0.00    -0.051 OA 
HETATM   12  O   UNL     1      -9.051  12.473  65.959  1.00  0.00    -0.422 OA 
HETATM   13  C   UNL     1      -7.720  12.727  67.927  1.00  0.00    -0.143 C  
HETATM   14  H   UNL     1      -8.315  12.690  65.397  1.00  0.00     0.000 HD 
HETATM   15  H   UNL     1      -5.793  12.801  67.537  1.00  0.00     0.000 HD 
HETATM   16  O   UNL     1      -6.597  13.060  67.103  1.00  0.00    -0.184 OA 
HETATM   17  C   UNL     1      -7.765  11.226  68.284  1.00  0.00    -0.122 C  
BRANCH   7  18
HETATM   18  C   UNL     1     -11.547  13.112  67.462  1.00  0.00    -0.352 C  
HETATM   19  O   UNL     1     -12.009  11.973  66.740  1.00  0.00    -0.616 OA 
HETATM   20  H   UNL     1     -12.840  12.170  66.324  1.00  0.00     0.000 HD 
ENDBRANCH   7  18
ENDBRANCH   5   6
ENDBRANCH   4   5
BRANCH   4  21
HETATM   21  C   UNL     1     -11.251   8.666  70.260  1.00  0.00    -0.184 C  
HETATM   22  H   UNL     1     -13.209   8.863  70.597  1.00  0.00     0.000 HD 
HETATM   23  O   UNL     1     -12.402   9.286  70.869  1.00  0.00    -0.264 OA 
BRANCH  21  24
HETATM   24  C   UNL     1     -11.297   7.176  70.614  1.00  0.00    -0.292 C  
HETATM   25  H   UNL     1     -12.585   5.946  71.452  1.00  0.00     0.000 HD 
HETATM   26  C   UNL     1     -11.167   6.264  69.404  1.00  0.00    -0.420 C  
HETATM   27  O   UNL     1     -12.557   6.869  71.233  1.00  0.00    -0.375 OA 
HETATM   28  O   UNL     1     -11.264   6.625  68.236  1.00  0.00    -0.229 OA 
ENDBRANCH  21  24
ENDBRANCH   4  21
ENDBRANCH   3   4
TORSDOF 6
ENDMDL
MODEL      183
REMARK 921   NORMALIZED FREE ENERGY PREDICTED BY IDOCK:   -3.68 KCAL/MOL
REMARK 922        TOTAL FREE ENERGY PREDICTED BY IDOCK:   -6.17 KCAL/MOL
REMARK 923 INTER-LIGAND FREE ENERGY PREDICTED BY IDOCK:   -5.73 KCAL/MOL
REMARK 924 INTRA-LIGAND FREE ENERGY PREDICTED BY IDOCK:   -0.43 KCAL/MOL
REMARK 927      BINDING AFFINITY PREDICTED BY RF-SCORE:    0.00 PKD
ROOT
HETATM    1  O   UNL     1     -12.561  14.554  64.341  1.00  0.00    -0.665 OA 
HETATM    2  H   UNL     1     -13.144  14.937  63.696  1.00  0.00     0.000 HD 
HETATM    3  C   UNL     1     -12.202  13.210  64.059  1.00  0.00    -0.414 C  
ENDROOT
BRANCH   3   4
HETATM    4  C   UNL     1     -11.253  12.586  65.110  1.00  0.00    -0.304 C  
BRANCH   4   5
HETATM    5  O   UNL     1     -11.845  11.582  65.954  1.00  0.00    -0.251 OA 
BRANCH   5   6
HETATM    6  C   UNL     1     -11.284  11.488  67.262  1.00  0.00    -0.301 C  
HETATM    7  C   UNL     1     -10.767   9.945  69.028  1.00  0.00    -0.222 C  
HETATM    8  O   UNL     1     -11.363  10.131  67.731  1.00  0.00    -0.274 OA 
HETATM    9  H   UNL     1     -12.439  14.388  68.392  1.00  0.00     0.000 HD 
HETATM   10  C   UNL     1     -11.434  10.832  70.090  1.00  0.00    -0.331 C  
HETATM   11  O   UNL     1     -11.983  13.805  67.796  1.00  0.00    -0.361 OA 
HETATM   12  O   UNL     1     -12.817  10.516  70.310  1.00  0.00    -0.465 OA 
HETATM   13  C   UNL     1     -11.373  12.293  69.626  1.00  0.00    -0.137 C  
HETATM   14  H   UNL     1     -13.230  11.064  70.967  1.00  0.00     0.000 HD 
HETATM   15  H   UNL     1     -11.940  14.043  70.324  1.00  0.00     0.000 HD 
HETATM   16  O   UNL     1     -11.978  13.138  70.611  1.00  0.00    -0.308 OA 
HETATM   17  C   UNL     1     -12.031  12.441  68.238  1.00  0.00    -0.214 C  
BRANCH   7  18
HETATM   18  C   UNL     1     -10.862   8.460  69.386  1.00  0.00    -0.082 C  
HETATM   19  O   UNL     1     -11.015   7.684  68.201  1.00  0.00    -0.444 OA 
HETATM   20  H   UNL     1     -11.074   6.762  68.423  1.00  0.00     0.000 HD 
ENDBRANCH   7  18
ENDBRANCH   5   6
ENDBRANCH   4   5
BRANCH   4  21
HETATM   21  C   UNL     1      -9.974  12.010  64.430  1.00  0.00    -0.228 C  
HETATM   22  H   UNL     1      -8.951  12.281  62.738  1.00  0.00     0.000 HD 
HETATM   23  O   UNL     1      -9.731  12.632  63.152  1.00  0.00     0.050 OA 
BRANCH  21  24
HETATM   24  C   UNL     1     -10.050  10.498  64.194  1.00  0.00    -0.281 C  
HETATM   25  H   UNL     1     -10.016   9.293  62.637  1.00  0.00     0.000 HD 
HETATM   26  C   UNL     1      -8.919   9.726  64.854  1.00  0.00    -0.216 C  
HETATM   27  O   UNL     1      -9.968  10.230  62.783  1.00  0.00    -0.145 OA 
HETATM   28  O   UNL     1      -7.902  10.228  65.322  1.00  0.00    -0.140 OA 
ENDBRANCH  21  24
ENDBRANCH   4  21
ENDBRANCH   3   4
TORSDOF 6
ENDMDL
MODEL      184
REMARK 921   NORMALIZED FREE ENERGY PREDICTED BY IDOCK:   -3.67 KCAL/MOL
REMARK 922        TOTAL FREE ENERGY PREDICTED BY IDOCK:   -6.16 KCAL/MOL
REMARK 923 INTER-LIGAND FREE ENERGY PREDICTED BY IDOCK:   -5.52 KCAL/MOL
REMARK 924 INTRA-LIGAND FREE ENERGY PREDICTED BY IDOCK:   -0.64 KCAL/MOL
REMARK 927      BINDING AFFINITY PREDICTED BY RF-SCORE:    0.00 PKD
ROOT
HETATM    1  O   UNL     1     -10.724  11.003  63.294  1.00  0.00    -0.694 OA 
HETATM    2  H   UNL     1     -11.562  10.650  63.016  1.00  0.00     0.000 HD 
HETATM    3  C   UNL     1     -10.077  10.223  64.286  1.00  0.00    -0.121 C  
ENDROOT
BRANCH   3   4
HETATM    4  C   UNL     1      -8.713  10.797  64.738  1.00  0.00    -0.109 C  
BRANCH   4   5
HETATM    5  O   UNL     1      -8.784  11.878  65.685  1.00  0.00     0.078 OA 
BRANCH   5   6
HETATM    6  C   UNL     1     -10.102  12.230  66.100  1.00  0.00    -0.245 C  
HETATM    7  C   UNL     1     -11.970  13.647  65.580  1.00  0.00    -0.395 C  
HETATM    8  O   UNL     1     -10.618  13.273  65.256  1.00  0.00    -0.295 OA 
HETATM    9  H   UNL     1      -9.570  11.960  69.365  1.00  0.00     0.000 HD 
HETATM   10  C   UNL     1     -12.090  14.137  67.031  1.00  0.00    -0.414 C  
HETATM   11  O   UNL     1      -9.574  11.678  68.458  1.00  0.00    -0.196 OA 
HETATM   12  O   UNL     1     -11.340  15.333  67.292  1.00  0.00    -0.332 OA 
HETATM   13  C   UNL     1     -11.546  13.050  67.968  1.00  0.00    -0.343 C  
HETATM   14  H   UNL     1     -11.414  15.637  68.190  1.00  0.00     0.000 HD 
HETATM   15  H   UNL     1     -11.326  12.810  69.909  1.00  0.00     0.000 HD 
HETATM   16  O   UNL     1     -11.662  13.483  69.328  1.00  0.00    -0.287 OA 
HETATM   17  C   UNL     1     -10.094  12.691  67.585  1.00  0.00    -0.218 C  
BRANCH   7  18
HETATM   18  C   UNL     1     -12.420  14.716  64.581  1.00  0.00    -0.286 C  
HETATM   19  O   UNL     1     -12.410  14.181  63.260  1.00  0.00    -1.140 OA 
HETATM   20  H   UNL     1     -12.689  14.844  62.640  1.00  0.00     0.000 HD 
ENDBRANCH   7  18
ENDBRANCH   5   6
ENDBRANCH   4   5
BRANCH   4  21
HETATM   21  C   UNL     1      -7.794   9.670  65.299  1.00  0.00    -0.115 C  
HETATM   22  H   UNL     1      -6.541   9.412  66.831  1.00  0.00     0.000 HD 
HETATM   23  O   UNL     1      -7.102  10.099  66.489  1.00  0.00    -0.095 OA 
BRANCH  21  24
HETATM   24  C   UNL     1      -6.732   9.208  64.296  1.00  0.00    -0.084 C  
HETATM   25  H   UNL     1      -4.877   8.553  64.380  1.00  0.00     0.000 HD 
HETATM   26  C   UNL     1      -7.156   7.994  63.484  1.00  0.00    -0.082 C  
HETATM   27  O   UNL     1      -5.535   8.839  65.002  1.00  0.00    -0.039 OA 
HETATM   28  O   UNL     1      -8.119   7.278  63.737  1.00  0.00    -0.107 OA 
ENDBRANCH  21  24
ENDBRANCH   4  21
ENDBRANCH   3   4
TORSDOF 6
ENDMDL
MODEL      185
REMARK 921   NORMALIZED FREE ENERGY PREDICTED BY IDOCK:   -3.62 KCAL/MOL
REMARK 922        TOTAL FREE ENERGY PREDICTED BY IDOCK:   -6.09 KCAL/MOL
REMARK 923 INTER-LIGAND FREE ENERGY PREDICTED BY IDOCK:   -5.11 KCAL/MOL
REMARK 924 INTRA-LIGAND FREE ENERGY PREDICTED BY IDOCK:   -0.98 KCAL/MOL
REMARK 927      BINDING AFFINITY PREDICTED BY RF-SCORE:    0.00 PKD
ROOT
HETATM    1  O   UNL     1     -12.945   6.910  72.327  1.00  0.00    -0.534 OA 
HETATM    2  H   UNL     1     -13.873   6.954  72.526  1.00  0.00     0.000 HD 
HETATM    3  C   UNL     1     -12.645   7.121  70.956  1.00  0.00    -0.290 C  
ENDROOT
BRANCH   3   4
HETATM    4  C   UNL     1     -11.135   7.048  70.631  1.00  0.00    -0.272 C  
BRANCH   4   5
HETATM    5  O   UNL     1     -10.459   8.317  70.560  1.00  0.00    -0.204 OA 
BRANCH   5   6
HETATM    6  C   UNL     1     -11.103   9.298  69.751  1.00  0.00    -0.150 C  
HETATM    7  C   UNL     1     -10.939  10.487  67.671  1.00  0.00    -0.314 C  
HETATM    8  O   UNL     1     -10.324   9.543  68.567  1.00  0.00    -0.193 OA 
HETATM    9  H   UNL     1     -12.176  11.215  72.240  1.00  0.00     0.000 HD 
HETATM   10  C   UNL     1     -11.170  11.845  68.350  1.00  0.00    -0.258 C  
HETATM   11  O   UNL     1     -12.058  10.409  71.750  1.00  0.00    -0.268 OA 
HETATM   12  O   UNL     1      -9.954  12.500  68.743  1.00  0.00    -0.393 OA 
HETATM   13  C   UNL     1     -11.998  11.628  69.624  1.00  0.00    -0.324 C  
HETATM   14  H   UNL     1     -10.097  13.340  69.164  1.00  0.00     0.000 HD 
HETATM   15  H   UNL     1     -12.750  12.752  71.053  1.00  0.00     0.000 HD 
HETATM   16  O   UNL     1     -12.237  12.886  70.265  1.00  0.00    -0.339 OA 
HETATM   17  C   UNL     1     -11.294  10.617  70.553  1.00  0.00    -0.267 C  
BRANCH   7  18
HETATM   18  C   UNL     1     -10.049  10.616  66.432  1.00  0.00    -0.225 C  
HETATM   19  O   UNL     1      -9.937  11.986  66.055  1.00  0.00    -0.223 OA 
HETATM   20  H   UNL     1      -9.385  12.066  65.286  1.00  0.00     0.000 HD 
ENDBRANCH   7  18
ENDBRANCH   5   6
ENDBRANCH   4   5
BRANCH   4  21
HETATM   21  C   UNL     1     -10.394   6.117  71.637  1.00  0.00    -0.216 C  
HETATM   22  H   UNL     1      -9.809   6.171  73.545  1.00  0.00     0.000 HD 
HETATM   23  O   UNL     1     -10.261   6.739  72.932  1.00  0.00    -0.182 OA 
BRANCH  21  24
HETATM   24  C   UNL     1      -8.986   5.730  71.172  1.00  0.00    -0.139 C  
HETATM   25  H   UNL     1      -7.139   6.214  71.654  1.00  0.00     0.000 HD 
HETATM   26  C   UNL     1      -8.676   4.252  71.347  1.00  0.00    -0.111 C  
HETATM   27  O   UNL     1      -8.012   6.454  71.943  1.00  0.00    -0.103 OA 
HETATM   28  O   UNL     1      -9.346   3.465  72.009  1.00  0.00    -0.108 OA 
ENDBRANCH  21  24
ENDBRANCH   4  21
ENDBRANCH   3   4
TORSDOF 6
ENDMDL
MODEL      186
REMARK 921   NORMALIZED FREE ENERGY PREDICTED BY IDOCK:   -3.61 KCAL/MOL
REMARK 922        TOTAL FREE ENERGY PREDICTED BY IDOCK:   -6.08 KCAL/MOL
REMARK 923 INTER-LIGAND FREE ENERGY PREDICTED BY IDOCK:   -5.02 KCAL/MOL
REMARK 924 INTRA-LIGAND FREE ENERGY PREDICTED BY IDOCK:   -1.06 KCAL/MOL
REMARK 927      BINDING AFFINITY PREDICTED BY RF-SCORE:    0.00 PKD
ROOT
HETATM    1  O   UNL     1     -11.961   6.788  69.396  1.00  0.00    -0.573 OA 
HETATM    2  H   UNL     1     -12.728   6.443  68.953  1.00  0.00     0.000 HD 
HETATM    3  C   UNL     1     -10.767   6.082  69.100  1.00  0.00    -0.331 C  
ENDROOT
BRANCH   3   4
HETATM    4  C   UNL     1      -9.517   6.643  69.819  1.00  0.00    -0.147 C  
BRANCH   4   5
HETATM    5  O   UNL     1      -9.222   8.025  69.551  1.00  0.00    -0.152 OA 
BRANCH   5   6
HETATM    6  C   UNL     1      -9.824   8.552  68.370  1.00  0.00    -0.173 C  
HETATM    7  C   UNL     1      -9.366   9.218  66.109  1.00  0.00    -0.212 C  
HETATM    8  O   UNL     1      -8.824   8.738  67.353  1.00  0.00    -0.132 OA 
HETATM    9  H   UNL     1     -11.965  10.579  69.894  1.00  0.00     0.000 HD 
HETATM   10  C   UNL     1     -10.087  10.562  66.287  1.00  0.00    -0.232 C  
HETATM   11  O   UNL     1     -11.531   9.756  69.703  1.00  0.00    -0.175 OA 
HETATM   12  O   UNL     1      -9.217  11.625  66.706  1.00  0.00    -0.175 OA 
HETATM   13  C   UNL     1     -11.164  10.408  67.369  1.00  0.00    -0.129 C  
HETATM   14  H   UNL     1      -9.663  12.457  66.816  1.00  0.00     0.000 HD 
HETATM   15  H   UNL     1     -12.526  11.553  68.209  1.00  0.00     0.000 HD 
HETATM   16  O   UNL     1     -11.858  11.649  67.540  1.00  0.00    -0.591 OA 
HETATM   17  C   UNL     1     -10.533   9.900  68.683  1.00  0.00    -0.206 C  
BRANCH   7  18
HETATM   18  C   UNL     1      -8.220   9.318  65.099  1.00  0.00    -0.141 C  
HETATM   19  O   UNL     1      -8.422   8.384  64.042  1.00  0.00    -0.353 OA 
HETATM   20  H   UNL     1      -7.711   8.446  63.415  1.00  0.00     0.000 HD 
ENDBRANCH   7  18
ENDBRANCH   5   6
ENDBRANCH   4   5
BRANCH   4  21
HETATM   21  C   UNL     1      -9.615   6.419  71.359  1.00  0.00    -0.162 C  
HETATM   22  H   UNL     1     -10.679   5.301  72.624  1.00  0.00     0.000 HD 
HETATM   23  O   UNL     1     -10.620   5.437  71.685  1.00  0.00    -0.227 OA 
BRANCH  21  24
HETATM   24  C   UNL     1      -9.959   7.697  72.130  1.00  0.00    -0.183 C  
HETATM   25  H   UNL     1     -11.585   8.521  72.875  1.00  0.00     0.000 HD 
HETATM   26  C   UNL     1      -9.256   7.799  73.474  1.00  0.00    -0.290 C  
HETATM   27  O   UNL     1     -11.372   7.729  72.397  1.00  0.00    -0.295 OA 
HETATM   28  O   UNL     1      -8.667   6.879  74.034  1.00  0.00    -0.138 OA 
ENDBRANCH  21  24
ENDBRANCH   4  21
ENDBRANCH   3   4
TORSDOF 6
ENDMDL
MODEL      187
REMARK 921   NORMALIZED FREE ENERGY PREDICTED BY IDOCK:   -3.60 KCAL/MOL
REMARK 922        TOTAL FREE ENERGY PREDICTED BY IDOCK:   -6.06 KCAL/MOL
REMARK 923 INTER-LIGAND FREE ENERGY PREDICTED BY IDOCK:   -5.00 KCAL/MOL
REMARK 924 INTRA-LIGAND FREE ENERGY PREDICTED BY IDOCK:   -1.06 KCAL/MOL
REMARK 927      BINDING AFFINITY PREDICTED BY RF-SCORE:    0.00 PKD
ROOT
HETATM    1  O   UNL     1     -11.314  12.685  69.906  1.00  0.00    -0.493 OA 
HETATM    2  H   UNL     1     -11.700  13.481  70.252  1.00  0.00     0.000 HD 
HETATM    3  C   UNL     1     -12.167  11.555  69.986  1.00  0.00    -0.278 C  
ENDROOT
BRANCH   3   4
HETATM    4  C   UNL     1     -11.539  10.258  69.423  1.00  0.00    -0.146 C  
BRANCH   4   5
HETATM    5  O   UNL     1     -10.329  10.440  68.664  1.00  0.00    -0.167 OA 
BRANCH   5   6
HETATM    6  C   UNL     1     -10.423  10.084  67.287  1.00  0.00    -0.254 C  
HETATM    7  C   UNL     1      -9.403   8.749  65.570  1.00  0.00    -0.095 C  
HETATM    8  O   UNL     1      -9.346   9.197  66.938  1.00  0.00    -0.144 OA 
HETATM    9  H   UNL     1     -11.413  13.053  66.181  1.00  0.00     0.000 HD 
HETATM   10  C   UNL     1      -9.358   9.927  64.586  1.00  0.00    -0.277 C  
HETATM   11  O   UNL     1     -11.437  12.274  66.725  1.00  0.00    -0.323 OA 
HETATM   12  O   UNL     1      -8.131  10.670  64.644  1.00  0.00    -0.319 OA 
HETATM   13  C   UNL     1     -10.493  10.902  64.926  1.00  0.00    -0.282 C  
HETATM   14  H   UNL     1      -8.103  11.400  64.035  1.00  0.00     0.000 HD 
HETATM   15  H   UNL     1     -11.179  12.605  64.220  1.00  0.00     0.000 HD 
HETATM   16  O   UNL     1     -10.476  12.002  64.010  1.00  0.00    -0.307 OA 
HETATM   17  C   UNL     1     -10.382  11.358  66.397  1.00  0.00    -0.242 C  
BRANCH   7  18
HETATM   18  C   UNL     1      -8.247   7.772  65.342  1.00  0.00    -0.139 C  
HETATM   19  O   UNL     1      -7.120   8.164  66.121  1.00  0.00    -0.061 OA 
HETATM   20  H   UNL     1      -6.402   7.558  65.980  1.00  0.00     0.000 HD 
ENDBRANCH   7  18
ENDBRANCH   5   6
ENDBRANCH   4   5
BRANCH   4  21
HETATM   21  C   UNL     1     -11.291   9.221  70.560  1.00  0.00    -0.258 C  
HETATM   22  H   UNL     1     -11.438   9.147  72.549  1.00  0.00     0.000 HD 
HETATM   23  O   UNL     1     -11.589   9.779  71.856  1.00  0.00    -0.278 OA 
BRANCH  21  24
HETATM   24  C   UNL     1      -9.847   8.712  70.604  1.00  0.00    -0.183 C  
HETATM   25  H   UNL     1      -8.383   8.682  71.921  1.00  0.00     0.000 HD 
HETATM   26  C   UNL     1      -9.728   7.211  70.393  1.00  0.00    -0.176 C  
HETATM   27  O   UNL     1      -9.278   8.997  71.894  1.00  0.00    -0.353 OA 
HETATM   28  O   UNL     1     -10.664   6.418  70.429  1.00  0.00    -0.228 OA 
ENDBRANCH  21  24
ENDBRANCH   4  21
ENDBRANCH   3   4
TORSDOF 6
ENDMDL
MODEL      188
REMARK 921   NORMALIZED FREE ENERGY PREDICTED BY IDOCK:   -3.58 KCAL/MOL
REMARK 922        TOTAL FREE ENERGY PREDICTED BY IDOCK:   -6.04 KCAL/MOL
REMARK 923 INTER-LIGAND FREE ENERGY PREDICTED BY IDOCK:   -5.47 KCAL/MOL
REMARK 924 INTRA-LIGAND FREE ENERGY PREDICTED BY IDOCK:   -0.57 KCAL/MOL
REMARK 927      BINDING AFFINITY PREDICTED BY RF-SCORE:    0.00 PKD
ROOT
HETATM    1  O   UNL     1      -9.703  11.040  69.560  1.00  0.00    -0.428 OA 
HETATM    2  H   UNL     1      -9.067  10.892  70.250  1.00  0.00     0.000 HD 
HETATM    3  C   UNL     1      -9.129  11.470  68.336  1.00  0.00    -0.185 C  
ENDROOT
BRANCH   3   4
HETATM    4  C   UNL     1     -10.165  11.712  67.213  1.00  0.00    -0.201 C  
BRANCH   4   5
HETATM    5  O   UNL     1     -10.658  13.060  67.110  1.00  0.00    -0.244 OA 
BRANCH   5   6
HETATM    6  C   UNL     1     -10.610  13.813  68.319  1.00  0.00    -0.255 C  
HETATM    7  C   UNL     1     -11.696  14.121  70.440  1.00  0.00    -0.243 C  
HETATM    8  O   UNL     1     -11.707  13.439  69.171  1.00  0.00    -0.284 OA 
HETATM    9  H   UNL     1      -9.621  16.675  66.960  1.00  0.00     0.000 HD 
HETATM   10  C   UNL     1     -11.759  15.645  70.263  1.00  0.00    -0.357 C  
HETATM   11  O   UNL     1      -9.589  15.744  67.150  1.00  0.00    -0.215 OA 
HETATM   12  O   UNL     1     -12.975  16.099  69.649  1.00  0.00    -0.436 OA 
HETATM   13  C   UNL     1     -10.603  16.087  69.356  1.00  0.00    -0.275 C  
HETATM   14  H   UNL     1     -13.014  17.042  69.540  1.00  0.00     0.000 HD 
HETATM   15  H   UNL     1      -9.920  17.783  68.629  1.00  0.00     0.000 HD 
HETATM   16  O   UNL     1     -10.635  17.509  69.190  1.00  0.00    -0.297 OA 
HETATM   17  C   UNL     1     -10.663  15.336  68.008  1.00  0.00    -0.268 C  
BRANCH   7  18
HETATM   18  C   UNL     1     -12.871  13.597  71.271  1.00  0.00    -0.344 C  
HETATM   19  O   UNL     1     -12.803  12.177  71.364  1.00  0.00    -0.376 OA 
HETATM   20  H   UNL     1     -13.531  11.851  71.880  1.00  0.00     0.000 HD 
ENDBRANCH   7  18
ENDBRANCH   5   6
ENDBRANCH   4   5
BRANCH   4  21
HETATM   21  C   UNL     1      -9.606  11.252  65.833  1.00  0.00    -0.221 C  
HETATM   22  H   UNL     1     -10.327  10.736  64.045  1.00  0.00     0.000 HD 
HETATM   23  O   UNL     1     -10.668  11.017  64.886  1.00  0.00    -0.286 OA 
BRANCH  21  24
HETATM   24  C   UNL     1      -8.780   9.965  65.919  1.00  0.00    -0.139 C  
HETATM   25  H   UNL     1      -9.133   8.031  65.812  1.00  0.00     0.000 HD 
HETATM   26  C   UNL     1      -7.711   9.860  64.842  1.00  0.00    -0.134 C  
HETATM   27  O   UNL     1      -9.645   8.828  65.758  1.00  0.00    -0.219 OA 
HETATM   28  O   UNL     1      -7.641  10.573  63.847  1.00  0.00    -0.066 OA 
ENDBRANCH  21  24
ENDBRANCH   4  21
ENDBRANCH   3   4
TORSDOF 6
ENDMDL
MODEL      189
REMARK 921   NORMALIZED FREE ENERGY PREDICTED BY IDOCK:   -3.58 KCAL/MOL
REMARK 922        TOTAL FREE ENERGY PREDICTED BY IDOCK:   -6.04 KCAL/MOL
REMARK 923 INTER-LIGAND FREE ENERGY PREDICTED BY IDOCK:   -5.24 KCAL/MOL
REMARK 924 INTRA-LIGAND FREE ENERGY PREDICTED BY IDOCK:   -0.79 KCAL/MOL
REMARK 927      BINDING AFFINITY PREDICTED BY RF-SCORE:    0.00 PKD
ROOT
HETATM    1  O   UNL     1      -7.744  10.300  64.301  1.00  0.00    -0.183 OA 
HETATM    2  H   UNL     1      -7.539   9.440  63.952  1.00  0.00     0.000 HD 
HETATM    3  C   UNL     1      -7.532  10.412  65.700  1.00  0.00    -0.149 C  
ENDROOT
BRANCH   3   4
HETATM    4  C   UNL     1      -7.866  11.812  66.270  1.00  0.00     0.196 C  
BRANCH   4   5
HETATM    5  O   UNL     1      -9.267  12.086  66.445  1.00  0.00    -0.216 OA 
BRANCH   5   6
HETATM    6  C   UNL     1      -9.894  12.745  65.348  1.00  0.00    -0.128 C  
HETATM    7  C   UNL     1     -10.897  14.818  64.665  1.00  0.00    -0.292 C  
HETATM    8  O   UNL     1     -10.302  14.068  65.740  1.00  0.00    -0.296 OA 
HETATM    9  H   UNL     1     -11.504  10.094  64.166  1.00  0.00     0.000 HD 
HETATM   10  C   UNL     1     -12.137  14.110  64.100  1.00  0.00    -0.406 C  
HETATM   11  O   UNL     1     -10.754  10.595  64.467  1.00  0.00    -0.236 OA 
HETATM   12  O   UNL     1     -13.205  13.984  65.051  1.00  0.00    -0.720 OA 
HETATM   13  C   UNL     1     -11.746  12.691  63.670  1.00  0.00    -0.522 C  
HETATM   14  H   UNL     1     -13.973  13.546  64.702  1.00  0.00     0.000 HD 
HETATM   15  H   UNL     1     -12.644  11.139  62.859  1.00  0.00     0.000 HD 
HETATM   16  O   UNL     1     -12.887  12.018  63.126  1.00  0.00    -0.661 OA 
HETATM   17  C   UNL     1     -11.121  11.926  64.856  1.00  0.00    -0.307 C  
BRANCH   7  18
HETATM   18  C   UNL     1     -11.232  16.217  65.190  1.00  0.00    -0.147 C  
HETATM   19  O   UNL     1     -10.088  16.783  65.825  1.00  0.00    -0.478 OA 
HETATM   20  H   UNL     1     -10.296  17.651  66.151  1.00  0.00     0.000 HD 
ENDBRANCH   7  18
ENDBRANCH   5   6
ENDBRANCH   4   5
BRANCH   4  21
HETATM   21  C   UNL     1      -7.112  12.059  67.611  1.00  0.00    -0.118 C  
HETATM   22  H   UNL     1      -7.329  11.583  69.537  1.00  0.00     0.000 HD 
HETATM   23  O   UNL     1      -7.788  11.431  68.719  1.00  0.00    -0.136 OA 
BRANCH  21  24
HETATM   24  C   UNL     1      -6.966  13.546  67.951  1.00  0.00    -0.144 C  
HETATM   25  H   UNL     1      -8.048  14.917  68.860  1.00  0.00     0.000 HD 
HETATM   26  C   UNL     1      -5.777  13.846  68.850  1.00  0.00    -0.082 C  
HETATM   27  O   UNL     1      -8.139  13.995  68.650  1.00  0.00    -0.140 OA 
HETATM   28  O   UNL     1      -5.127  13.005  69.464  1.00  0.00    -0.075 OA 
ENDBRANCH  21  24
ENDBRANCH   4  21
ENDBRANCH   3   4
TORSDOF 6
ENDMDL
MODEL      190
REMARK 921   NORMALIZED FREE ENERGY PREDICTED BY IDOCK:   -3.57 KCAL/MOL
REMARK 922        TOTAL FREE ENERGY PREDICTED BY IDOCK:   -6.03 KCAL/MOL
REMARK 923 INTER-LIGAND FREE ENERGY PREDICTED BY IDOCK:   -5.68 KCAL/MOL
REMARK 924 INTRA-LIGAND FREE ENERGY PREDICTED BY IDOCK:   -0.35 KCAL/MOL
REMARK 927      BINDING AFFINITY PREDICTED BY RF-SCORE:    0.00 PKD
ROOT
HETATM    1  O   UNL     1      -9.860  18.604  68.980  1.00  0.00    -0.363 OA 
HETATM    2  H   UNL     1     -10.247  19.330  69.456  1.00  0.00     0.000 HD 
HETATM    3  C   UNL     1     -10.783  17.575  68.660  1.00  0.00    -0.201 C  
ENDROOT
BRANCH   3   4
HETATM    4  C   UNL     1     -10.153  16.393  67.884  1.00  0.00    -0.250 C  
BRANCH   4   5
HETATM    5  O   UNL     1     -10.971  15.837  66.840  1.00  0.00    -0.300 OA 
BRANCH   5   6
HETATM    6  C   UNL     1     -11.426  14.506  67.075  1.00  0.00    -0.370 C  
HETATM    7  C   UNL     1     -12.026  12.954  68.807  1.00  0.00    -0.253 C  
HETATM    8  O   UNL     1     -11.520  14.265  68.489  1.00  0.00    -0.266 OA 
HETATM    9  H   UNL     1      -9.740  13.074  64.600  1.00  0.00     0.000 HD 
HETATM   10  C   UNL     1     -11.141  11.847  68.216  1.00  0.00    -0.239 C  
HETATM   11  O   UNL     1     -10.331  13.700  65.003  1.00  0.00    -0.353 OA 
HETATM   12  O   UNL     1      -9.810  11.833  68.755  1.00  0.00    -0.327 OA 
HETATM   13  C   UNL     1     -11.012  12.070  66.703  1.00  0.00    -0.287 C  
HETATM   14  H   UNL     1      -9.262  11.148  68.389  1.00  0.00     0.000 HD 
HETATM   15  H   UNL     1     -10.121  11.176  65.193  1.00  0.00     0.000 HD 
HETATM   16  O   UNL     1     -10.200  11.038  66.130  1.00  0.00    -0.232 OA 
HETATM   17  C   UNL     1     -10.459  13.482  66.415  1.00  0.00    -0.287 C  
BRANCH   7  18
HETATM   18  C   UNL     1     -12.133  12.843  70.330  1.00  0.00    -0.302 C  
HETATM   19  O   UNL     1     -12.642  14.059  70.871  1.00  0.00    -0.322 OA 
HETATM   20  H   UNL     1     -12.709  13.990  71.816  1.00  0.00     0.000 HD 
ENDBRANCH   7  18
ENDBRANCH   5   6
ENDBRANCH   4   5
BRANCH   4  21
HETATM   21  C   UNL     1      -8.761  16.788  67.304  1.00  0.00    -0.199 C  
HETATM   22  H   UNL     1      -7.829  16.741  65.540  1.00  0.00     0.000 HD 
HETATM   23  O   UNL     1      -8.678  16.500  65.894  1.00  0.00    -0.456 OA 
BRANCH  21  24
HETATM   24  C   UNL     1      -7.598  16.061  67.987  1.00  0.00    -0.129 C  
HETATM   25  H   UNL     1      -7.031  14.192  68.234  1.00  0.00     0.000 HD 
HETATM   26  C   UNL     1      -6.238  16.430  67.418  1.00  0.00    -0.168 C  
HETATM   27  O   UNL     1      -7.752  14.642  67.811  1.00  0.00    -0.127 OA 
HETATM   28  O   UNL     1      -6.054  17.041  66.370  1.00  0.00    -0.244 OA 
ENDBRANCH  21  24
ENDBRANCH   4  21
ENDBRANCH   3   4
TORSDOF 6
ENDMDL
MODEL      191
REMARK 921   NORMALIZED FREE ENERGY PREDICTED BY IDOCK:   -3.56 KCAL/MOL
REMARK 922        TOTAL FREE ENERGY PREDICTED BY IDOCK:   -6.01 KCAL/MOL
REMARK 923 INTER-LIGAND FREE ENERGY PREDICTED BY IDOCK:   -5.08 KCAL/MOL
REMARK 924 INTRA-LIGAND FREE ENERGY PREDICTED BY IDOCK:   -0.92 KCAL/MOL
REMARK 927      BINDING AFFINITY PREDICTED BY RF-SCORE:    0.00 PKD
ROOT
HETATM    1  O   UNL     1     -11.272   7.474  67.233  1.00  0.00    -0.521 OA 
HETATM    2  H   UNL     1     -11.226   6.754  66.615  1.00  0.00     0.000 HD 
HETATM    3  C   UNL     1     -10.373   8.533  66.943  1.00  0.00    -0.297 C  
ENDROOT
BRANCH   3   4
HETATM    4  C   UNL     1     -10.448   9.706  67.950  1.00  0.00    -0.246 C  
BRANCH   4   5
HETATM    5  O   UNL     1     -11.168  10.864  67.492  1.00  0.00    -0.304 OA 
BRANCH   5   6
HETATM    6  C   UNL     1     -10.351  11.933  67.020  1.00  0.00    -0.212 C  
HETATM    7  C   UNL     1      -8.407  13.246  67.540  1.00  0.00    -0.186 C  
HETATM    8  O   UNL     1      -9.309  12.210  67.972  1.00  0.00    -0.185 OA 
HETATM    9  H   UNL     1     -12.799  13.741  65.694  1.00  0.00     0.000 HD 
HETATM   10  C   UNL     1      -9.146  14.567  67.279  1.00  0.00    -0.209 C  
HETATM   11  O   UNL     1     -12.272  12.964  65.841  1.00  0.00    -0.444 OA 
HETATM   12  O   UNL     1      -9.754  15.122  68.456  1.00  0.00    -0.202 OA 
HETATM   13  C   UNL     1     -10.271  14.315  66.267  1.00  0.00    -0.301 C  
HETATM   14  H   UNL     1     -10.211  15.939  68.296  1.00  0.00     0.000 HD 
HETATM   15  H   UNL     1     -11.660  15.384  65.372  1.00  0.00     0.000 HD 
HETATM   16  O   UNL     1     -10.964  15.540  66.000  1.00  0.00    -0.316 OA 
HETATM   17  C   UNL     1     -11.213  13.205  66.779  1.00  0.00    -0.299 C  
BRANCH   7  18
HETATM   18  C   UNL     1      -7.319  13.404  68.605  1.00  0.00    -0.106 C  
HETATM   19  O   UNL     1      -6.326  12.395  68.438  1.00  0.00    -0.051 OA 
HETATM   20  H   UNL     1      -5.651  12.493  69.099  1.00  0.00     0.000 HD 
ENDBRANCH   7  18
ENDBRANCH   5   6
ENDBRANCH   4   5
BRANCH   4  21
HETATM   21  C   UNL     1     -11.034   9.231  69.314  1.00  0.00    -0.085 C  
HETATM   22  H   UNL     1     -12.197   9.969  70.758  1.00  0.00     0.000 HD 
HETATM   23  O   UNL     1     -11.840  10.258  69.926  1.00  0.00    -0.245 OA 
BRANCH  21  24
HETATM   24  C   UNL     1      -9.954   8.836  70.326  1.00  0.00    -0.186 C  
HETATM   25  H   UNL     1      -9.699   8.984  72.273  1.00  0.00     0.000 HD 
HETATM   26  C   UNL     1      -9.689   7.340  70.374  1.00  0.00    -0.172 C  
HETATM   27  O   UNL     1     -10.368   9.228  71.646  1.00  0.00    -0.340 OA 
HETATM   28  O   UNL     1     -10.403   6.481  69.866  1.00  0.00    -0.178 OA 
ENDBRANCH  21  24
ENDBRANCH   4  21
ENDBRANCH   3   4
TORSDOF 6
ENDMDL
MODEL      192
REMARK 921   NORMALIZED FREE ENERGY PREDICTED BY IDOCK:   -3.54 KCAL/MOL
REMARK 922        TOTAL FREE ENERGY PREDICTED BY IDOCK:   -5.98 KCAL/MOL
REMARK 923 INTER-LIGAND FREE ENERGY PREDICTED BY IDOCK:   -4.91 KCAL/MOL
REMARK 924 INTRA-LIGAND FREE ENERGY PREDICTED BY IDOCK:   -1.07 KCAL/MOL
REMARK 927      BINDING AFFINITY PREDICTED BY RF-SCORE:    0.00 PKD
ROOT
HETATM    1  O   UNL     1      -6.074   9.892  66.223  1.00  0.00    -0.061 OA 
HETATM    2  H   UNL     1      -5.591   9.534  65.487  1.00  0.00     0.000 HD 
HETATM    3  C   UNL     1      -7.417  10.231  65.915  1.00  0.00    -0.135 C  
ENDROOT
BRANCH   3   4
HETATM    4  C   UNL     1      -8.202  10.814  67.114  1.00  0.00    -0.123 C  
BRANCH   4   5
HETATM    5  O   UNL     1      -9.608  11.023  66.885  1.00  0.00    -0.178 OA 
BRANCH   5   6
HETATM    6  C   UNL     1      -9.999  12.387  66.745  1.00  0.00    -0.225 C  
HETATM    7  C   UNL     1     -10.291  14.440  67.957  1.00  0.00    -0.227 C  
HETATM    8  O   UNL     1      -9.959  13.040  68.026  1.00  0.00    -0.220 OA 
HETATM    9  H   UNL     1     -12.381  11.882  64.490  1.00  0.00     0.000 HD 
HETATM   10  C   UNL     1     -11.696  14.661  67.379  1.00  0.00    -0.390 C  
HETATM   11  O   UNL     1     -11.509  11.826  64.862  1.00  0.00    -0.287 OA 
HETATM   12  O   UNL     1     -12.741  14.108  68.195  1.00  0.00    -0.277 OA 
HETATM   13  C   UNL     1     -11.783  13.975  66.010  1.00  0.00    -0.369 C  
HETATM   14  H   UNL     1     -13.611  14.245  67.838  1.00  0.00     0.000 HD 
HETATM   15  H   UNL     1     -13.137  13.758  64.599  1.00  0.00     0.000 HD 
HETATM   16  O   UNL     1     -13.084  14.182  65.447  1.00  0.00    -0.743 OA 
HETATM   17  C   UNL     1     -11.427  12.478  66.137  1.00  0.00    -0.377 C  
BRANCH   7  18
HETATM   18  C   UNL     1     -10.156  15.029  69.364  1.00  0.00    -0.202 C  
HETATM   19  O   UNL     1     -10.840  14.205  70.303  1.00  0.00    -0.440 OA 
HETATM   20  H   UNL     1     -10.756  14.570  71.176  1.00  0.00     0.000 HD 
ENDBRANCH   7  18
ENDBRANCH   5   6
ENDBRANCH   4   5
BRANCH   4  21
HETATM   21  C   UNL     1      -8.005   9.937  68.387  1.00  0.00    -0.096 C  
HETATM   22  H   UNL     1      -6.546   9.527  69.686  1.00  0.00     0.000 HD 
HETATM   23  O   UNL     1      -6.667  10.062  68.910  1.00  0.00    -0.052 OA 
BRANCH  21  24
HETATM   24  C   UNL     1      -8.257   8.447  68.134  1.00  0.00    -0.124 C  
HETATM   25  H   UNL     1      -7.192   6.791  68.175  1.00  0.00     0.000 HD 
HETATM   26  C   UNL     1      -9.290   7.841  69.071  1.00  0.00    -0.150 C  
HETATM   27  O   UNL     1      -7.036   7.714  68.332  1.00  0.00    -0.067 OA 
HETATM   28  O   UNL     1      -9.717   8.376  70.089  1.00  0.00    -0.171 OA 
ENDBRANCH  21  24
ENDBRANCH   4  21
ENDBRANCH   3   4
TORSDOF 6
ENDMDL
MODEL      193
REMARK 921   NORMALIZED FREE ENERGY PREDICTED BY IDOCK:   -3.54 KCAL/MOL
REMARK 922        TOTAL FREE ENERGY PREDICTED BY IDOCK:   -5.98 KCAL/MOL
REMARK 923 INTER-LIGAND FREE ENERGY PREDICTED BY IDOCK:   -4.96 KCAL/MOL
REMARK 924 INTRA-LIGAND FREE ENERGY PREDICTED BY IDOCK:   -1.02 KCAL/MOL
REMARK 927      BINDING AFFINITY PREDICTED BY RF-SCORE:    0.00 PKD
ROOT
HETATM    1  O   UNL     1      -8.230  12.659  67.199  1.00  0.00    -0.182 OA 
HETATM    2  H   UNL     1      -7.632  13.245  66.749  1.00  0.00     0.000 HD 
HETATM    3  C   UNL     1      -8.321  11.372  66.607  1.00  0.00    -0.172 C  
ENDROOT
BRANCH   3   4
HETATM    4  C   UNL     1      -9.294  10.418  67.340  1.00  0.00    -0.145 C  
BRANCH   4   5
HETATM    5  O   UNL     1     -10.651  10.436  66.861  1.00  0.00    -0.248 OA 
BRANCH   5   6
HETATM    6  C   UNL     1     -11.388  11.612  67.185  1.00  0.00    -0.306 C  
HETATM    7  C   UNL     1     -11.673  13.926  66.605  1.00  0.00    -0.395 C  
HETATM    8  O   UNL     1     -10.936  12.710  66.373  1.00  0.00    -0.260 OA 
HETATM    9  H   UNL     1     -11.557  11.082  70.457  1.00  0.00     0.000 HD 
HETATM   10  C   UNL     1     -11.577  14.375  68.071  1.00  0.00    -0.327 C  
HETATM   11  O   UNL     1     -11.656  10.874  69.535  1.00  0.00    -0.258 OA 
HETATM   12  O   UNL     1     -10.241  14.710  68.478  1.00  0.00    -0.227 OA 
HETATM   13  C   UNL     1     -12.049  13.228  68.973  1.00  0.00    -0.226 C  
HETATM   14  H   UNL     1     -10.182  14.988  69.385  1.00  0.00     0.000 HD 
HETATM   15  H   UNL     1     -12.274  12.923  70.904  1.00  0.00     0.000 HD 
HETATM   16  O   UNL     1     -11.981  13.633  70.345  1.00  0.00    -0.322 OA 
HETATM   17  C   UNL     1     -11.225  11.953  68.693  1.00  0.00    -0.257 C  
BRANCH   7  18
HETATM   18  C   UNL     1     -11.139  14.995  65.647  1.00  0.00    -0.349 C  
HETATM   19  O   UNL     1      -9.746  14.794  65.424  1.00  0.00    -0.457 OA 
HETATM   20  H   UNL     1      -9.415  15.457  64.829  1.00  0.00     0.000 HD 
ENDBRANCH   7  18
ENDBRANCH   5   6
ENDBRANCH   4   5
BRANCH   4  21
HETATM   21  C   UNL     1      -8.754   8.956  67.326  1.00  0.00    -0.121 C  
HETATM   22  H   UNL     1      -7.819   7.739  66.049  1.00  0.00     0.000 HD 
HETATM   23  O   UNL     1      -8.148   8.630  66.058  1.00  0.00    -0.102 OA 
BRANCH  21  24
HETATM   24  C   UNL     1      -9.843   7.912  67.591  1.00  0.00    -0.165 C  
HETATM   25  H   UNL     1     -10.543   6.315  66.678  1.00  0.00     0.000 HD 
HETATM   26  C   UNL     1      -9.621   7.120  68.870  1.00  0.00    -0.142 C  
HETATM   27  O   UNL     1      -9.868   6.961  66.513  1.00  0.00    -0.170 OA 
HETATM   28  O   UNL     1      -8.579   7.105  69.518  1.00  0.00    -0.133 OA 
ENDBRANCH  21  24
ENDBRANCH   4  21
ENDBRANCH   3   4
TORSDOF 6
ENDMDL
MODEL      194
REMARK 921   NORMALIZED FREE ENERGY PREDICTED BY IDOCK:   -3.53 KCAL/MOL
REMARK 922        TOTAL FREE ENERGY PREDICTED BY IDOCK:   -5.97 KCAL/MOL
REMARK 923 INTER-LIGAND FREE ENERGY PREDICTED BY IDOCK:   -5.32 KCAL/MOL
REMARK 924 INTRA-LIGAND FREE ENERGY PREDICTED BY IDOCK:   -0.66 KCAL/MOL
REMARK 927      BINDING AFFINITY PREDICTED BY RF-SCORE:    0.00 PKD
ROOT
HETATM    1  O   UNL     1      -7.588   8.499  73.156  1.00  0.00    -0.316 OA 
HETATM    2  H   UNL     1      -6.886   8.572  73.793  1.00  0.00     0.000 HD 
HETATM    3  C   UNL     1      -8.698   7.743  73.615  1.00  0.00    -0.252 C  
ENDROOT
BRANCH   3   4
HETATM    4  C   UNL     1      -9.840   7.624  72.578  1.00  0.00    -0.196 C  
BRANCH   4   5
HETATM    5  O   UNL     1      -9.535   8.129  71.266  1.00  0.00    -0.149 OA 
BRANCH   5   6
HETATM    6  C   UNL     1     -10.007   9.448  71.003  1.00  0.00    -0.264 C  
HETATM    7  C   UNL     1     -11.928  10.879  71.187  1.00  0.00    -0.212 C  
HETATM    8  O   UNL     1     -11.392   9.555  71.374  1.00  0.00    -0.350 OA 
HETATM    9  H   UNL     1      -8.338   9.904  68.171  1.00  0.00     0.000 HD 
HETATM   10  C   UNL     1     -11.813  11.335  69.725  1.00  0.00    -0.364 C  
HETATM   11  O   UNL     1      -8.451   9.691  69.089  1.00  0.00    -0.127 OA 
HETATM   12  O   UNL     1     -12.581  10.532  68.816  1.00  0.00    -0.620 OA 
HETATM   13  C   UNL     1     -10.346  11.234  69.288  1.00  0.00    -0.070 C  
HETATM   14  H   UNL     1     -12.510  10.814  67.911  1.00  0.00     0.000 HD 
HETATM   15  H   UNL     1      -9.307  11.608  67.659  1.00  0.00     0.000 HD 
HETATM   16  O   UNL     1     -10.215  11.669  67.930  1.00  0.00    -0.182 OA 
HETATM   17  C   UNL     1      -9.822   9.797  69.499  1.00  0.00    -0.214 C  
BRANCH   7  18
HETATM   18  C   UNL     1     -13.381  10.876  71.669  1.00  0.00    -0.263 C  
HETATM   19  O   UNL     1     -13.609   9.752  72.515  1.00  0.00    -0.656 OA 
HETATM   20  H   UNL     1     -14.511   9.750  72.814  1.00  0.00     0.000 HD 
ENDBRANCH   7  18
ENDBRANCH   5   6
ENDBRANCH   4   5
BRANCH   4  21
HETATM   21  C   UNL     1     -10.340   6.152  72.469  1.00  0.00    -0.193 C  
HETATM   22  H   UNL     1     -11.266   4.816  73.629  1.00  0.00     0.000 HD 
HETATM   23  O   UNL     1     -10.961   5.714  73.695  1.00  0.00    -0.263 OA 
BRANCH  21  24
HETATM   24  C   UNL     1      -9.218   5.159  72.148  1.00  0.00    -0.136 C  
HETATM   25  H   UNL     1      -8.688   3.360  72.747  1.00  0.00     0.000 HD 
HETATM   26  C   UNL     1      -9.205   4.712  70.695  1.00  0.00    -0.136 C  
HETATM   27  O   UNL     1      -9.383   3.975  72.946  1.00  0.00    -0.112 OA 
HETATM   28  O   UNL     1     -10.114   4.898  69.892  1.00  0.00    -0.240 OA 
ENDBRANCH  21  24
ENDBRANCH   4  21
ENDBRANCH   3   4
TORSDOF 6
ENDMDL
MODEL      195
REMARK 921   NORMALIZED FREE ENERGY PREDICTED BY IDOCK:   -3.53 KCAL/MOL
REMARK 922        TOTAL FREE ENERGY PREDICTED BY IDOCK:   -5.97 KCAL/MOL
REMARK 923 INTER-LIGAND FREE ENERGY PREDICTED BY IDOCK:   -4.84 KCAL/MOL
REMARK 924 INTRA-LIGAND FREE ENERGY PREDICTED BY IDOCK:   -1.12 KCAL/MOL
REMARK 927      BINDING AFFINITY PREDICTED BY RF-SCORE:    0.00 PKD
ROOT
HETATM    1  O   UNL     1      -9.453   8.494  65.723  1.00  0.00    -0.390 OA 
HETATM    2  H   UNL     1      -9.870   7.703  65.401  1.00  0.00     0.000 HD 
HETATM    3  C   UNL     1     -10.203   9.168  66.722  1.00  0.00    -0.261 C  
ENDROOT
BRANCH   3   4
HETATM    4  C   UNL     1      -9.524  10.455  67.247  1.00  0.00    -0.154 C  
BRANCH   4   5
HETATM    5  O   UNL     1     -10.134  11.041  68.411  1.00  0.00    -0.170 OA 
BRANCH   5   6
HETATM    6  C   UNL     1     -11.043  12.106  68.144  1.00  0.00    -0.248 C  
HETATM    7  C   UNL     1     -11.409  14.017  66.735  1.00  0.00    -0.334 C  
HETATM    8  O   UNL     1     -10.519  12.945  67.099  1.00  0.00    -0.236 OA 
HETATM    9  H   UNL     1     -11.952  12.644  71.291  1.00  0.00     0.000 HD 
HETATM   10  C   UNL     1     -11.720  14.926  67.932  1.00  0.00    -0.321 C  
HETATM   11  O   UNL     1     -11.802  12.134  70.503  1.00  0.00    -0.287 OA 
HETATM   12  O   UNL     1     -10.565  15.609  68.445  1.00  0.00    -0.238 OA 
HETATM   13  C   UNL     1     -12.280  14.069  69.074  1.00  0.00    -0.245 C  
HETATM   14  H   UNL     1     -10.757  16.172  69.186  1.00  0.00     0.000 HD 
HETATM   15  H   UNL     1     -12.938  14.370  70.904  1.00  0.00     0.000 HD 
HETATM   16  O   UNL     1     -12.590  14.901  70.197  1.00  0.00    -0.317 OA 
HETATM   17  C   UNL     1     -11.289  12.941  69.433  1.00  0.00    -0.201 C  
BRANCH   7  18
HETATM   18  C   UNL     1     -10.768  14.794  65.582  1.00  0.00    -0.336 C  
HETATM   19  O   UNL     1      -9.351  14.807  65.734  1.00  0.00    -0.498 OA 
HETATM   20  H   UNL     1      -8.953  15.290  65.019  1.00  0.00     0.000 HD 
ENDBRANCH   7  18
ENDBRANCH   5   6
ENDBRANCH   4   5
BRANCH   4  21
HETATM   21  C   UNL     1      -8.008  10.215  67.516  1.00  0.00    -0.106 C  
HETATM   22  H   UNL     1      -6.840   8.733  68.168  1.00  0.00     0.000 HD 
HETATM   23  O   UNL     1      -7.765   8.879  68.004  1.00  0.00    -0.098 OA 
BRANCH  21  24
HETATM   24  C   UNL     1      -7.419  11.188  68.542  1.00  0.00    -0.112 C  
HETATM   25  H   UNL     1      -6.117  11.095  70.015  1.00  0.00     0.000 HD 
HETATM   26  C   UNL     1      -6.666  12.349  67.910  1.00  0.00    -0.100 C  
HETATM   27  O   UNL     1      -6.481  10.491  69.380  1.00  0.00    -0.049 OA 
HETATM   28  O   UNL     1      -6.326  12.411  66.733  1.00  0.00    -0.139 OA 
ENDBRANCH  21  24
ENDBRANCH   4  21
ENDBRANCH   3   4
TORSDOF 6
ENDMDL
MODEL      196
REMARK 921   NORMALIZED FREE ENERGY PREDICTED BY IDOCK:   -3.52 KCAL/MOL
REMARK 922        TOTAL FREE ENERGY PREDICTED BY IDOCK:   -5.96 KCAL/MOL
REMARK 923 INTER-LIGAND FREE ENERGY PREDICTED BY IDOCK:   -5.14 KCAL/MOL
REMARK 924 INTRA-LIGAND FREE ENERGY PREDICTED BY IDOCK:   -0.82 KCAL/MOL
REMARK 927      BINDING AFFINITY PREDICTED BY RF-SCORE:    0.00 PKD
ROOT
HETATM    1  O   UNL     1      -9.925  10.078  64.536  1.00  0.00    -0.376 OA 
HETATM    2  H   UNL     1     -10.719   9.700  64.176  1.00  0.00     0.000 HD 
HETATM    3  C   UNL     1      -9.590   9.585  65.824  1.00  0.00    -0.270 C  
ENDROOT
BRANCH   3   4
HETATM    4  C   UNL     1      -8.298  10.201  66.410  1.00  0.00    -0.125 C  
BRANCH   4   5
HETATM    5  O   UNL     1      -8.229  11.638  66.374  1.00  0.00    -0.146 OA 
BRANCH   5   6
HETATM    6  C   UNL     1      -9.294  12.308  67.045  1.00  0.00    -0.205 C  
HETATM    7  C   UNL     1     -11.415  13.381  66.698  1.00  0.00    -0.344 C  
HETATM    8  O   UNL     1     -10.278  12.740  66.089  1.00  0.00    -0.263 OA 
HETATM    9  H   UNL     1      -7.417  13.877  69.288  1.00  0.00     0.000 HD 
HETATM   10  C   UNL     1     -11.000  14.616  67.511  1.00  0.00    -0.298 C  
HETATM   11  O   UNL     1      -7.752  13.134  68.800  1.00  0.00    -0.100 OA 
HETATM   12  O   UNL     1     -10.418  15.656  66.711  1.00  0.00    -0.286 OA 
HETATM   13  C   UNL     1      -9.946  14.198  68.544  1.00  0.00    -0.235 C  
HETATM   14  H   UNL     1     -10.161  16.421  67.214  1.00  0.00     0.000 HD 
HETATM   15  H   UNL     1      -8.904  15.076  69.964  1.00  0.00     0.000 HD 
HETATM   16  O   UNL     1      -9.556  15.335  69.324  1.00  0.00    -0.227 OA 
HETATM   17  C   UNL     1      -8.746  13.525  67.843  1.00  0.00    -0.183 C  
BRANCH   7  18
HETATM   18  C   UNL     1     -12.409  13.738  65.589  1.00  0.00    -0.482 C  
HETATM   19  O   UNL     1     -12.917  12.549  64.992  1.00  0.00    -0.779 OA 
HETATM   20  H   UNL     1     -13.534  12.771  64.304  1.00  0.00     0.000 HD 
ENDBRANCH   7  18
ENDBRANCH   5   6
ENDBRANCH   4   5
BRANCH   4  21
HETATM   21  C   UNL     1      -8.055   9.702  67.866  1.00  0.00    -0.106 C  
HETATM   22  H   UNL     1      -6.515   9.101  68.985  1.00  0.00     0.000 HD 
HETATM   23  O   UNL     1      -6.663   9.406  68.097  1.00  0.00    -0.059 OA 
BRANCH  21  24
HETATM   24  C   UNL     1      -8.851   8.438  68.208  1.00  0.00    -0.139 C  
HETATM   25  H   UNL     1      -8.456   6.526  68.462  1.00  0.00     0.000 HD 
HETATM   26  C   UNL     1      -9.542   8.506  69.561  1.00  0.00    -0.170 C  
HETATM   27  O   UNL     1      -7.962   7.309  68.251  1.00  0.00    -0.119 OA 
HETATM   28  O   UNL     1      -9.316   9.346  70.425  1.00  0.00    -0.232 OA 
ENDBRANCH  21  24
ENDBRANCH   4  21
ENDBRANCH   3   4
TORSDOF 6
ENDMDL
MODEL      197
REMARK 921   NORMALIZED FREE ENERGY PREDICTED BY IDOCK:   -3.52 KCAL/MOL
REMARK 922        TOTAL FREE ENERGY PREDICTED BY IDOCK:   -5.96 KCAL/MOL
REMARK 923 INTER-LIGAND FREE ENERGY PREDICTED BY IDOCK:   -5.02 KCAL/MOL
REMARK 924 INTRA-LIGAND FREE ENERGY PREDICTED BY IDOCK:   -0.94 KCAL/MOL
REMARK 927      BINDING AFFINITY PREDICTED BY RF-SCORE:    0.00 PKD
ROOT
HETATM    1  O   UNL     1     -11.298  15.341  63.896  1.00  0.00    -0.468 OA 
HETATM    2  H   UNL     1     -10.895  15.832  63.189  1.00  0.00     0.000 HD 
HETATM    3  C   UNL     1     -10.432  15.109  64.996  1.00  0.00    -0.389 C  
ENDROOT
BRANCH   3   4
HETATM    4  C   UNL     1     -11.088  14.310  66.147  1.00  0.00    -0.324 C  
BRANCH   4   5
HETATM    5  O   UNL     1     -10.774  12.906  66.179  1.00  0.00    -0.268 OA 
BRANCH   5   6
HETATM    6  C   UNL     1     -10.054  12.475  67.331  1.00  0.00    -0.210 C  
HETATM    7  C   UNL     1      -7.879  11.812  68.106  1.00  0.00    -0.135 C  
HETATM    8  O   UNL     1      -8.687  12.202  66.979  1.00  0.00    -0.179 OA 
HETATM    9  H   UNL     1     -12.496  10.666  68.665  1.00  0.00     0.000 HD 
HETATM   10  C   UNL     1      -8.432  10.552  68.789  1.00  0.00    -0.141 C  
HETATM   11  O   UNL     1     -12.089  11.440  68.294  1.00  0.00    -0.606 OA 
HETATM   12  O   UNL     1      -8.413   9.391  67.945  1.00  0.00    -0.116 OA 
HETATM   13  C   UNL     1      -9.894  10.802  69.180  1.00  0.00    -0.175 C  
HETATM   14  H   UNL     1      -8.755   8.611  68.368  1.00  0.00     0.000 HD 
HETATM   15  H   UNL     1     -11.330   9.797  70.076  1.00  0.00     0.000 HD 
HETATM   16  O   UNL     1     -10.425   9.642  69.833  1.00  0.00    -0.217 OA 
HETATM   17  C   UNL     1     -10.718  11.208  67.940  1.00  0.00    -0.216 C  
BRANCH   7  18
HETATM   18  C   UNL     1      -6.444  11.607  67.614  1.00  0.00    -0.075 C  
HETATM   19  O   UNL     1      -5.624  11.150  68.686  1.00  0.00    -0.044 OA 
HETATM   20  H   UNL     1      -4.734  11.023  68.380  1.00  0.00     0.000 HD 
ENDBRANCH   7  18
ENDBRANCH   5   6
ENDBRANCH   4   5
BRANCH   4  21
HETATM   21  C   UNL     1     -10.756  14.951  67.528  1.00  0.00    -0.276 C  
HETATM   22  H   UNL     1     -11.738  15.858  69.010  1.00  0.00     0.000 HD 
HETATM   23  O   UNL     1     -11.941  15.467  68.168  1.00  0.00    -0.233 OA 
BRANCH  21  24
HETATM   24  C   UNL     1      -9.753  16.106  67.428  1.00  0.00    -0.233 C  
HETATM   25  H   UNL     1      -9.781  18.052  67.726  1.00  0.00     0.000 HD 
HETATM   26  C   UNL     1      -8.558  15.950  68.355  1.00  0.00    -0.178 C  
HETATM   27  O   UNL     1     -10.403  17.336  67.789  1.00  0.00    -0.326 OA 
HETATM   28  O   UNL     1      -8.481  15.143  69.276  1.00  0.00    -0.211 OA 
ENDBRANCH  21  24
ENDBRANCH   4  21
ENDBRANCH   3   4
TORSDOF 6
ENDMDL
MODEL      198
REMARK 921   NORMALIZED FREE ENERGY PREDICTED BY IDOCK:   -3.50 KCAL/MOL
REMARK 922        TOTAL FREE ENERGY PREDICTED BY IDOCK:   -5.93 KCAL/MOL
REMARK 923 INTER-LIGAND FREE ENERGY PREDICTED BY IDOCK:   -5.34 KCAL/MOL
REMARK 924 INTRA-LIGAND FREE ENERGY PREDICTED BY IDOCK:   -0.59 KCAL/MOL
REMARK 927      BINDING AFFINITY PREDICTED BY RF-SCORE:    0.00 PKD
ROOT
HETATM    1  O   UNL     1     -11.494   6.830  67.038  1.00  0.00    -0.735 OA 
HETATM    2  H   UNL     1     -11.741   6.489  66.186  1.00  0.00     0.000 HD 
HETATM    3  C   UNL     1     -10.804   8.068  66.977  1.00  0.00    -0.042 C  
ENDROOT
BRANCH   3   4
HETATM    4  C   UNL     1     -10.401   8.625  68.364  1.00  0.00    -0.201 C  
BRANCH   4   5
HETATM    5  O   UNL     1     -11.283   9.624  68.905  1.00  0.00    -0.115 OA 
BRANCH   5   6
HETATM    6  C   UNL     1     -11.008  10.960  68.489  1.00  0.00    -0.230 C  
HETATM    7  C   UNL     1     -11.468  12.575  66.772  1.00  0.00    -0.362 C  
HETATM    8  O   UNL     1     -11.656  11.223  67.233  1.00  0.00    -0.527 OA 
HETATM    9  H   UNL     1      -7.853  11.048  69.519  1.00  0.00     0.000 HD 
HETATM   10  C   UNL     1      -9.980  12.911  66.594  1.00  0.00    -0.251 C  
HETATM   11  O   UNL     1      -8.791  10.914  69.596  1.00  0.00     0.123 OA 
HETATM   12  O   UNL     1      -9.334  12.120  65.585  1.00  0.00    -0.397 OA 
HETATM   13  C   UNL     1      -9.249  12.640  67.916  1.00  0.00    -0.201 C  
HETATM   14  H   UNL     1      -8.413  12.327  65.475  1.00  0.00     0.000 HD 
HETATM   15  H   UNL     1      -7.408  12.794  68.593  1.00  0.00     0.000 HD 
HETATM   16  O   UNL     1      -7.860  12.961  67.775  1.00  0.00    -0.131 OA 
HETATM   17  C   UNL     1      -9.473  11.179  68.362  1.00  0.00    -0.189 C  
BRANCH   7  18
HETATM   18  C   UNL     1     -12.248  12.744  65.466  1.00  0.00    -0.463 C  
HETATM   19  O   UNL     1     -13.137  13.853  65.572  1.00  0.00    -0.699 OA 
HETATM   20  H   UNL     1     -13.621  13.958  64.762  1.00  0.00     0.000 HD 
ENDBRANCH   7  18
ENDBRANCH   5   6
ENDBRANCH   4   5
BRANCH   4  21
HETATM   21  C   UNL     1     -10.222   7.470  69.395  1.00  0.00    -0.204 C  
HETATM   22  H   UNL     1     -10.326   7.228  71.374  1.00  0.00     0.000 HD 
HETATM   23  O   UNL     1     -10.435   7.932  70.745  1.00  0.00    -0.206 OA 
BRANCH  21  24
HETATM   24  C   UNL     1      -8.830   6.833  69.347  1.00  0.00    -0.135 C  
HETATM   25  H   UNL     1      -7.412   6.398  70.643  1.00  0.00     0.000 HD 
HETATM   26  C   UNL     1      -8.837   5.403  68.830  1.00  0.00    -0.100 C  
HETATM   27  O   UNL     1      -8.275   6.793  70.673  1.00  0.00    -0.117 OA 
HETATM   28  O   UNL     1      -9.839   4.709  68.692  1.00  0.00    -0.161 OA 
ENDBRANCH  21  24
ENDBRANCH   4  21
ENDBRANCH   3   4
TORSDOF 6
ENDMDL
MODEL      199
REMARK 921   NORMALIZED FREE ENERGY PREDICTED BY IDOCK:   -3.50 KCAL/MOL
REMARK 922        TOTAL FREE ENERGY PREDICTED BY IDOCK:   -5.93 KCAL/MOL
REMARK 923 INTER-LIGAND FREE ENERGY PREDICTED BY IDOCK:   -6.49 KCAL/MOL
REMARK 924 INTRA-LIGAND FREE ENERGY PREDICTED BY IDOCK:    0.56 KCAL/MOL
REMARK 927      BINDING AFFINITY PREDICTED BY RF-SCORE:    0.00 PKD
ROOT
HETATM    1  O   UNL     1     -11.191  19.164  67.316  1.00  0.00    -0.299 OA 
HETATM    2  H   UNL     1     -11.811  19.716  67.777  1.00  0.00     0.000 HD 
HETATM    3  C   UNL     1      -9.864  19.257  67.811  1.00  0.00    -0.340 C  
ENDROOT
BRANCH   3   4
HETATM    4  C   UNL     1      -8.854  18.359  67.060  1.00  0.00    -0.271 C  
BRANCH   4   5
HETATM    5  O   UNL     1      -9.329  17.803  65.820  1.00  0.00    -0.512 OA 
BRANCH   5   6
HETATM    6  C   UNL     1      -9.590  16.402  65.849  1.00  0.00    -0.274 C  
HETATM    7  C   UNL     1     -11.057  14.699  65.001  1.00  0.00    -0.394 C  
HETATM    8  O   UNL     1     -10.758  16.106  65.064  1.00  0.00    -0.558 OA 
HETATM    9  H   UNL     1      -8.767  15.915  69.028  1.00  0.00     0.000 HD 
HETATM   10  C   UNL     1     -11.288  14.106  66.399  1.00  0.00    -0.338 C  
HETATM   11  O   UNL     1      -8.646  16.209  68.132  1.00  0.00    -0.172 OA 
HETATM   12  O   UNL     1     -12.429  14.660  67.071  1.00  0.00    -0.488 OA 
HETATM   13  C   UNL     1     -10.062  14.402  67.272  1.00  0.00    -0.251 C  
HETATM   14  H   UNL     1     -12.572  14.294  67.936  1.00  0.00     0.000 HD 
HETATM   15  H   UNL     1      -9.493  14.026  69.118  1.00  0.00     0.000 HD 
HETATM   16  O   UNL     1     -10.252  13.844  68.577  1.00  0.00    -0.234 OA 
HETATM   17  C   UNL     1      -9.789  15.921  67.315  1.00  0.00    -0.234 C  
BRANCH   7  18
HETATM   18  C   UNL     1     -12.277  14.512  64.096  1.00  0.00    -0.342 C  
HETATM   19  O   UNL     1     -13.091  15.681  64.132  1.00  0.00    -0.219 OA 
HETATM   20  H   UNL     1     -13.848  15.565  63.570  1.00  0.00     0.000 HD 
ENDBRANCH   7  18
ENDBRANCH   5   6
ENDBRANCH   4   5
BRANCH   4  21
HETATM   21  C   UNL     1      -7.513  19.114  66.815  1.00  0.00    -0.224 C  
HETATM   22  H   UNL     1      -5.585  18.660  66.574  1.00  0.00     0.000 HD 
HETATM   23  O   UNL     1      -6.402  18.199  66.723  1.00  0.00    -0.169 OA 
BRANCH  21  24
HETATM   24  C   UNL     1      -7.182  20.122  67.920  1.00  0.00    -0.294 C  
HETATM   25  H   UNL     1      -6.194  20.102  69.622  1.00  0.00     0.000 HD 
HETATM   26  C   UNL     1      -6.372  21.312  67.429  1.00  0.00    -0.356 C  
HETATM   27  O   UNL     1      -6.399  19.477  68.938  1.00  0.00    -0.247 OA 
HETATM   28  O   UNL     1      -5.809  21.380  66.341  1.00  0.00    -0.272 OA 
ENDBRANCH  21  24
ENDBRANCH   4  21
ENDBRANCH   3   4
TORSDOF 6
ENDMDL
MODEL      200
REMARK 921   NORMALIZED FREE ENERGY PREDICTED BY IDOCK:   -3.50 KCAL/MOL
REMARK 922        TOTAL FREE ENERGY PREDICTED BY IDOCK:   -5.93 KCAL/MOL
REMARK 923 INTER-LIGAND FREE ENERGY PREDICTED BY IDOCK:   -5.52 KCAL/MOL
REMARK 924 INTRA-LIGAND FREE ENERGY PREDICTED BY IDOCK:   -0.41 KCAL/MOL
REMARK 927      BINDING AFFINITY PREDICTED BY RF-SCORE:    0.00 PKD
ROOT
HETATM    1  O   UNL     1     -12.328  14.310  68.228  1.00  0.00    -0.592 OA 
HETATM    2  H   UNL     1     -13.176  13.901  68.357  1.00  0.00     0.000 HD 
HETATM    3  C   UNL     1     -11.267  13.382  68.064  1.00  0.00    -0.268 C  
ENDROOT
BRANCH   3   4
HETATM    4  C   UNL     1      -9.886  14.047  67.855  1.00  0.00    -0.233 C  
BRANCH   4   5
HETATM    5  O   UNL     1      -9.652  15.237  68.630  1.00  0.00    -0.192 OA 
BRANCH   5   6
HETATM    6  C   UNL     1      -9.123  16.339  67.897  1.00  0.00    -0.196 C  
HETATM    7  C   UNL     1      -7.827  18.350  68.112  1.00  0.00    -0.289 C  
HETATM    8  O   UNL     1      -8.438  17.235  68.789  1.00  0.00    -0.274 OA 
HETATM    9  H   UNL     1     -11.675  16.678  65.802  1.00  0.00     0.000 HD 
HETATM   10  C   UNL     1      -8.864  19.182  67.343  1.00  0.00    -0.293 C  
HETATM   11  O   UNL     1     -10.978  16.221  66.259  1.00  0.00    -0.162 OA 
HETATM   12  O   UNL     1      -9.843  19.800  68.192  1.00  0.00    -0.380 OA 
HETATM   13  C   UNL     1      -9.622  18.260  66.378  1.00  0.00    -0.305 C  
HETATM   14  H   UNL     1     -10.485  20.315  67.716  1.00  0.00     0.000 HD 
HETATM   15  H   UNL     1     -11.054  18.450  65.042  1.00  0.00     0.000 HD 
HETATM   16  O   UNL     1     -10.585  19.020  65.640  1.00  0.00    -0.554 OA 
HETATM   17  C   UNL     1     -10.264  17.088  67.151  1.00  0.00    -0.306 C  
BRANCH   7  18
HETATM   18  C   UNL     1      -7.086  19.191  69.155  1.00  0.00    -0.314 C  
HETATM   19  O   UNL     1      -6.005  18.442  69.703  1.00  0.00    -0.244 OA 
HETATM   20  H   UNL     1      -5.545  18.963  70.350  1.00  0.00     0.000 HD 
ENDBRANCH   7  18
ENDBRANCH   5   6
ENDBRANCH   4   5
BRANCH   4  21
HETATM   21  C   UNL     1      -8.734  13.027  68.104  1.00  0.00    -0.190 C  
HETATM   22  H   UNL     1      -6.967  12.569  67.297  1.00  0.00     0.000 HD 
HETATM   23  O   UNL     1      -7.669  13.191  67.145  1.00  0.00    -0.127 OA 
BRANCH  21  24
HETATM   24  C   UNL     1      -9.197  11.568  68.024  1.00  0.00    -0.175 C  
HETATM   25  H   UNL     1      -9.249  10.160  66.649  1.00  0.00     0.000 HD 
HETATM   26  C   UNL     1      -8.461  10.647  68.983  1.00  0.00    -0.145 C  
HETATM   27  O   UNL     1      -8.961  11.063  66.698  1.00  0.00    -0.159 OA 
HETATM   28  O   UNL     1      -7.436  10.937  69.592  1.00  0.00    -0.118 OA 
ENDBRANCH  21  24
ENDBRANCH   4  21
ENDBRANCH   3   4
TORSDOF 6
ENDMDL
MODEL      201
REMARK 921   NORMALIZED FREE ENERGY PREDICTED BY IDOCK:   -3.48 KCAL/MOL
REMARK 922        TOTAL FREE ENERGY PREDICTED BY IDOCK:   -5.90 KCAL/MOL
REMARK 923 INTER-LIGAND FREE ENERGY PREDICTED BY IDOCK:   -4.98 KCAL/MOL
REMARK 924 INTRA-LIGAND FREE ENERGY PREDICTED BY IDOCK:   -0.93 KCAL/MOL
REMARK 927      BINDING AFFINITY PREDICTED BY RF-SCORE:    0.00 PKD
ROOT
HETATM    1  O   UNL     1     -11.518   7.252  67.261  1.00  0.00    -0.445 OA 
HETATM    2  H   UNL     1     -11.847   6.566  66.691  1.00  0.00     0.000 HD 
HETATM    3  C   UNL     1     -10.264   7.778  66.856  1.00  0.00    -0.303 C  
ENDROOT
BRANCH   3   4
HETATM    4  C   UNL     1      -9.729   8.894  67.784  1.00  0.00    -0.160 C  
BRANCH   4   5
HETATM    5  O   UNL     1     -10.607   9.275  68.859  1.00  0.00    -0.218 OA 
BRANCH   5   6
HETATM    6  C   UNL     1     -11.284  10.515  68.672  1.00  0.00    -0.270 C  
HETATM    7  C   UNL     1     -11.293  12.526  67.357  1.00  0.00    -0.313 C  
HETATM    8  O   UNL     1     -10.632  11.278  67.642  1.00  0.00    -0.194 OA 
HETATM    9  H   UNL     1     -11.962  11.076  71.873  1.00  0.00     0.000 HD 
HETATM   10  C   UNL     1     -11.371  13.421  68.603  1.00  0.00    -0.286 C  
HETATM   11  O   UNL     1     -11.945  10.585  71.060  1.00  0.00    -0.343 OA 
HETATM   12  O   UNL     1     -10.084  13.827  69.095  1.00  0.00    -0.426 OA 
HETATM   13  C   UNL     1     -12.059  12.642  69.731  1.00  0.00    -0.233 C  
HETATM   14  H   UNL     1     -10.132  14.381  69.865  1.00  0.00     0.000 HD 
HETATM   15  H   UNL     1     -12.582  12.984  71.597  1.00  0.00     0.000 HD 
HETATM   16  O   UNL     1     -12.155  13.466  70.899  1.00  0.00    -0.326 OA 
HETATM   17  C   UNL     1     -11.311  11.320  70.003  1.00  0.00    -0.208 C  
BRANCH   7  18
HETATM   18  C   UNL     1     -10.542  13.210  66.212  1.00  0.00    -0.284 C  
HETATM   19  O   UNL     1      -9.152  13.285  66.519  1.00  0.00    -0.384 OA 
HETATM   20  H   UNL     1      -8.687  13.710  65.808  1.00  0.00     0.000 HD 
ENDBRANCH   7  18
ENDBRANCH   5   6
ENDBRANCH   4   5
BRANCH   4  21
HETATM   21  C   UNL     1      -8.331   8.515  68.360  1.00  0.00    -0.124 C  
HETATM   22  H   UNL     1      -6.601   7.789  67.681  1.00  0.00     0.000 HD 
HETATM   23  O   UNL     1      -7.452   8.021  67.329  1.00  0.00    -0.089 OA 
BRANCH  21  24
HETATM   24  C   UNL     1      -8.403   7.440  69.450  1.00  0.00    -0.132 C  
HETATM   25  H   UNL     1      -7.803   5.577  69.660  1.00  0.00     0.000 HD 
HETATM   26  C   UNL     1      -7.708   7.841  70.741  1.00  0.00    -0.084 C  
HETATM   27  O   UNL     1      -7.758   6.243  68.985  1.00  0.00    -0.097 OA 
HETATM   28  O   UNL     1      -6.949   8.797  70.865  1.00  0.00    -0.056 OA 
ENDBRANCH  21  24
ENDBRANCH   4  21
ENDBRANCH   3   4
TORSDOF 6
ENDMDL
MODEL      202
REMARK 921   NORMALIZED FREE ENERGY PREDICTED BY IDOCK:   -3.48 KCAL/MOL
REMARK 922        TOTAL FREE ENERGY PREDICTED BY IDOCK:   -5.90 KCAL/MOL
REMARK 923 INTER-LIGAND FREE ENERGY PREDICTED BY IDOCK:   -5.65 KCAL/MOL
REMARK 924 INTRA-LIGAND FREE ENERGY PREDICTED BY IDOCK:   -0.25 KCAL/MOL
REMARK 927      BINDING AFFINITY PREDICTED BY RF-SCORE:    0.00 PKD
ROOT
HETATM    1  O   UNL     1      -8.674  15.607  65.943  1.00  0.00    -0.361 OA 
HETATM    2  H   UNL     1      -8.624  16.556  65.951  1.00  0.00     0.000 HD 
HETATM    3  C   UNL     1      -9.823  15.091  66.596  1.00  0.00    -0.254 C  
ENDROOT
BRANCH   3   4
HETATM    4  C   UNL     1      -9.905  13.547  66.585  1.00  0.00    -0.279 C  
BRANCH   4   5
HETATM    5  O   UNL     1      -9.912  12.921  67.881  1.00  0.00    -0.219 OA 
BRANCH   5   6
HETATM    6  C   UNL     1      -8.963  11.871  68.048  1.00  0.00    -0.185 C  
HETATM    7  C   UNL     1      -8.426   9.958  69.398  1.00  0.00    -0.165 C  
HETATM    8  O   UNL     1      -9.311  11.075  69.194  1.00  0.00    -0.139 OA 
HETATM    9  H   UNL     1      -6.280  13.629  67.193  1.00  0.00     0.000 HD 
HETATM   10  C   UNL     1      -6.972  10.415  69.588  1.00  0.00    -0.127 C  
HETATM   11  O   UNL     1      -7.154  13.269  67.092  1.00  0.00    -0.072 OA 
HETATM   12  O   UNL     1      -6.776  11.217  70.763  1.00  0.00    -0.421 OA 
HETATM   13  C   UNL     1      -6.560  11.272  68.384  1.00  0.00    -0.059 C  
HETATM   14  H   UNL     1      -5.876  11.500  70.881  1.00  0.00     0.000 HD 
HETATM   15  H   UNL     1      -4.945  12.228  67.790  1.00  0.00     0.000 HD 
HETATM   16  O   UNL     1      -5.201  11.697  68.536  1.00  0.00    -0.043 OA 
HETATM   17  C   UNL     1      -7.533  12.459  68.214  1.00  0.00    -0.124 C  
BRANCH   7  18
HETATM   18  C   UNL     1      -8.933   9.163  70.603  1.00  0.00    -0.244 C  
HETATM   19  O   UNL     1      -7.867   8.941  71.522  1.00  0.00    -0.232 OA 
HETATM   20  H   UNL     1      -8.182   8.448  72.270  1.00  0.00     0.000 HD 
ENDBRANCH   7  18
ENDBRANCH   5   6
ENDBRANCH   4   5
BRANCH   4  21
HETATM   21  C   UNL     1     -11.138  13.062  65.764  1.00  0.00    -0.278 C  
HETATM   22  H   UNL     1     -12.789  11.984  66.075  1.00  0.00     0.000 HD 
HETATM   23  O   UNL     1     -12.038  12.280  66.576  1.00  0.00    -0.616 OA 
BRANCH  21  24
HETATM   24  C   UNL     1     -10.753  12.202  64.555  1.00  0.00    -0.310 C  
HETATM   25  H   UNL     1     -10.300  10.314  64.232  1.00  0.00     0.000 HD 
HETATM   26  C   UNL     1     -11.825  12.160  63.478  1.00  0.00    -0.505 C  
HETATM   27  O   UNL     1     -10.538  10.846  64.981  1.00  0.00    -0.286 OA 
HETATM   28  O   UNL     1     -12.981  12.546  63.618  1.00  0.00    -0.730 OA 
ENDBRANCH  21  24
ENDBRANCH   4  21
ENDBRANCH   3   4
TORSDOF 6
ENDMDL
MODEL      203
REMARK 921   NORMALIZED FREE ENERGY PREDICTED BY IDOCK:   -3.44 KCAL/MOL
REMARK 922        TOTAL FREE ENERGY PREDICTED BY IDOCK:   -5.85 KCAL/MOL
REMARK 923 INTER-LIGAND FREE ENERGY PREDICTED BY IDOCK:   -4.88 KCAL/MOL
REMARK 924 INTRA-LIGAND FREE ENERGY PREDICTED BY IDOCK:   -0.98 KCAL/MOL
REMARK 927      BINDING AFFINITY PREDICTED BY RF-SCORE:    0.00 PKD
ROOT
HETATM    1  O   UNL     1     -11.709   6.444  66.823  1.00  0.00    -0.586 OA 
HETATM    2  H   UNL     1     -12.251   5.689  67.023  1.00  0.00     0.000 HD 
HETATM    3  C   UNL     1     -10.556   6.549  67.643  1.00  0.00    -0.269 C  
ENDROOT
BRANCH   3   4
HETATM    4  C   UNL     1      -9.672   7.777  67.319  1.00  0.00    -0.171 C  
BRANCH   4   5
HETATM    5  O   UNL     1      -8.839   8.238  68.398  1.00  0.00    -0.136 OA 
BRANCH   5   6
HETATM    6  C   UNL     1      -9.371   9.329  69.146  1.00  0.00    -0.157 C  
HETATM    7  C   UNL     1     -10.988   9.906  70.826  1.00  0.00    -0.337 C  
HETATM    8  O   UNL     1     -10.434   8.867  69.996  1.00  0.00    -0.200 OA 
HETATM    9  H   UNL     1      -9.174  11.594  66.727  1.00  0.00     0.000 HD 
HETATM   10  C   UNL     1     -11.550  11.061  69.985  1.00  0.00    -0.344 C  
HETATM   11  O   UNL     1      -8.857  10.917  67.313  1.00  0.00    -0.134 OA 
HETATM   12  O   UNL     1     -12.653  10.676  69.150  1.00  0.00    -0.734 OA 
HETATM   13  C   UNL     1     -10.444  11.585  69.059  1.00  0.00    -0.145 C  
HETATM   14  H   UNL     1     -13.000  11.391  68.630  1.00  0.00     0.000 HD 
HETATM   15  H   UNL     1     -10.260  12.998  67.702  1.00  0.00     0.000 HD 
HETATM   16  O   UNL     1     -10.945  12.674  68.276  1.00  0.00    -0.225 OA 
HETATM   17  C   UNL     1      -9.890  10.438  68.187  1.00  0.00    -0.151 C  
BRANCH   7  18
HETATM   18  C   UNL     1     -12.061   9.279  71.719  1.00  0.00    -0.387 C  
HETATM   19  O   UNL     1     -12.891  10.298  72.270  1.00  0.00    -0.369 OA 
HETATM   20  H   UNL     1     -13.557   9.909  72.824  1.00  0.00     0.000 HD 
ENDBRANCH   7  18
ENDBRANCH   5   6
ENDBRANCH   4   5
BRANCH   4  21
HETATM   21  C   UNL     1      -8.795   7.513  66.058  1.00  0.00    -0.150 C  
HETATM   22  H   UNL     1      -8.465   6.021  64.774  1.00  0.00     0.000 HD 
HETATM   23  O   UNL     1      -9.000   6.182  65.543  1.00  0.00    -0.106 OA 
BRANCH  21  24
HETATM   24  C   UNL     1      -7.295   7.672  66.326  1.00  0.00    -0.079 C  
HETATM   25  H   UNL     1      -5.759   6.471  66.603  1.00  0.00     0.000 HD 
HETATM   26  C   UNL     1      -6.557   8.409  65.220  1.00  0.00    -0.056 C  
HETATM   27  O   UNL     1      -6.689   6.373  66.436  1.00  0.00    -0.053 OA 
HETATM   28  O   UNL     1      -7.014   8.649  64.107  1.00  0.00    -0.086 OA 
ENDBRANCH  21  24
ENDBRANCH   4  21
ENDBRANCH   3   4
TORSDOF 6
ENDMDL
MODEL      204
REMARK 921   NORMALIZED FREE ENERGY PREDICTED BY IDOCK:   -3.44 KCAL/MOL
REMARK 922        TOTAL FREE ENERGY PREDICTED BY IDOCK:   -5.85 KCAL/MOL
REMARK 923 INTER-LIGAND FREE ENERGY PREDICTED BY IDOCK:   -4.61 KCAL/MOL
REMARK 924 INTRA-LIGAND FREE ENERGY PREDICTED BY IDOCK:   -1.24 KCAL/MOL
REMARK 927      BINDING AFFINITY PREDICTED BY RF-SCORE:    0.00 PKD
ROOT
HETATM    1  O   UNL     1     -12.560  10.798  68.586  1.00  0.00    -0.669 OA 
HETATM    2  H   UNL     1     -13.437  11.098  68.798  1.00  0.00     0.000 HD 
HETATM    3  C   UNL     1     -11.690  10.743  69.706  1.00  0.00    -0.324 C  
ENDROOT
BRANCH   3   4
HETATM    4  C   UNL     1     -10.263  10.254  69.362  1.00  0.00    -0.235 C  
BRANCH   4   5
HETATM    5  O   UNL     1     -10.173   8.893  68.903  1.00  0.00    -0.196 OA 
BRANCH   5   6
HETATM    6  C   UNL     1      -9.598   7.981  69.835  1.00  0.00    -0.171 C  
HETATM    7  C   UNL     1     -10.020   6.797  71.882  1.00  0.00    -0.176 C  
HETATM    8  O   UNL     1     -10.510   7.753  70.923  1.00  0.00    -0.205 OA 
HETATM    9  H   UNL     1      -6.489   9.127  69.638  1.00  0.00     0.000 HD 
HETATM   10  C   UNL     1      -8.686   7.244  72.496  1.00  0.00    -0.122 C  
HETATM   11  O   UNL     1      -7.314   8.788  69.311  1.00  0.00    -0.068 OA 
HETATM   12  O   UNL     1      -8.787   8.459  73.256  1.00  0.00    -0.260 OA 
HETATM   13  C   UNL     1      -7.681   7.501  71.366  1.00  0.00    -0.085 C  
HETATM   14  H   UNL     1      -7.961   8.736  73.636  1.00  0.00     0.000 HD 
HETATM   15  H   UNL     1      -5.801   8.065  71.220  1.00  0.00     0.000 HD 
HETATM   16  O   UNL     1      -6.424   7.907  71.920  1.00  0.00    -0.042 OA 
HETATM   17  C   UNL     1      -8.248   8.537  70.371  1.00  0.00    -0.114 C  
BRANCH   7  18
HETATM   18  C   UNL     1     -11.099   6.599  72.950  1.00  0.00    -0.229 C  
HETATM   19  O   UNL     1     -11.643   7.861  73.329  1.00  0.00    -0.610 OA 
HETATM   20  H   UNL     1     -12.313   7.739  73.992  1.00  0.00     0.000 HD 
ENDBRANCH   7  18
ENDBRANCH   5   6
ENDBRANCH   4   5
BRANCH   4  21
HETATM   21  C   UNL     1      -9.586  11.201  68.325  1.00  0.00    -0.185 C  
HETATM   22  H   UNL     1      -9.800  13.077  67.678  1.00  0.00     0.000 HD 
HETATM   23  O   UNL     1     -10.213  12.500  68.310  1.00  0.00    -0.224 OA 
BRANCH  21  24
HETATM   24  C   UNL     1      -9.635  10.656  66.894  1.00  0.00    -0.171 C  
HETATM   25  H   UNL     1     -10.646  11.046  65.250  1.00  0.00     0.000 HD 
HETATM   26  C   UNL     1      -8.315  10.792  66.151  1.00  0.00    -0.166 C  
HETATM   27  O   UNL     1     -10.616  11.385  66.137  1.00  0.00    -0.251 OA 
HETATM   28  O   UNL     1      -7.366  11.477  66.519  1.00  0.00    -0.108 OA 
ENDBRANCH  21  24
ENDBRANCH   4  21
ENDBRANCH   3   4
TORSDOF 6
ENDMDL
MODEL      205
REMARK 921   NORMALIZED FREE ENERGY PREDICTED BY IDOCK:   -3.43 KCAL/MOL
REMARK 922        TOTAL FREE ENERGY PREDICTED BY IDOCK:   -5.84 KCAL/MOL
REMARK 923 INTER-LIGAND FREE ENERGY PREDICTED BY IDOCK:   -6.48 KCAL/MOL
REMARK 924 INTRA-LIGAND FREE ENERGY PREDICTED BY IDOCK:    0.64 KCAL/MOL
REMARK 927      BINDING AFFINITY PREDICTED BY RF-SCORE:    0.00 PKD
ROOT
HETATM    1  O   UNL     1     -11.361  15.772  72.450  1.00  0.00    -0.341 OA 
HETATM    2  H   UNL     1     -10.737  16.339  72.889  1.00  0.00     0.000 HD 
HETATM    3  C   UNL     1     -11.334  15.882  71.036  1.00  0.00    -0.389 C  
ENDROOT
BRANCH   3   4
HETATM    4  C   UNL     1     -12.350  14.960  70.320  1.00  0.00    -0.341 C  
BRANCH   4   5
HETATM    5  O   UNL     1     -12.431  15.124  68.893  1.00  0.00    -0.040 OA 
BRANCH   5   6
HETATM    6  C   UNL     1     -11.233  15.580  68.270  1.00  0.00    -0.343 C  
HETATM    7  C   UNL     1      -9.965  17.552  67.745  1.00  0.00    -0.312 C  
HETATM    8  O   UNL     1     -11.177  17.017  68.310  1.00  0.00    -0.267 OA 
HETATM    9  H   UNL     1     -11.187  13.340  65.821  1.00  0.00     0.000 HD 
HETATM   10  C   UNL     1      -9.790  17.132  66.279  1.00  0.00    -0.291 C  
HETATM   11  O   UNL     1     -11.229  13.647  66.720  1.00  0.00    -0.302 OA 
HETATM   12  O   UNL     1     -10.817  17.642  65.413  1.00  0.00    -0.541 OA 
HETATM   13  C   UNL     1      -9.846  15.601  66.191  1.00  0.00    -0.314 C  
HETATM   14  H   UNL     1     -10.709  17.382  64.506  1.00  0.00     0.000 HD 
HETATM   15  H   UNL     1      -9.705  14.240  64.776  1.00  0.00     0.000 HD 
HETATM   16  O   UNL     1      -9.671  15.188  64.831  1.00  0.00    -0.070 OA 
HETATM   17  C   UNL     1     -11.165  15.078  66.800  1.00  0.00    -0.322 C  
BRANCH   7  18
HETATM   18  C   UNL     1     -10.001  19.075  67.900  1.00  0.00    -0.358 C  
HETATM   19  O   UNL     1     -10.398  19.419  69.224  1.00  0.00    -0.570 OA 
HETATM   20  H   UNL     1     -10.421  20.363  69.320  1.00  0.00     0.000 HD 
ENDBRANCH   7  18
ENDBRANCH   5   6
ENDBRANCH   4   5
BRANCH   4  21
HETATM   21  C   UNL     1     -12.078  13.464  70.660  1.00  0.00    -0.295 C  
HETATM   22  H   UNL     1     -12.199  11.695  69.742  1.00  0.00     0.000 HD 
HETATM   23  O   UNL     1     -12.364  12.608  69.535  1.00  0.00    -0.126 OA 
BRANCH  21  24
HETATM   24  C   UNL     1     -12.911  12.956  71.841  1.00  0.00    -0.301 C  
HETATM   25  H   UNL     1     -14.752  13.193  72.498  1.00  0.00     0.000 HD 
HETATM   26  C   UNL     1     -13.066  11.443  71.866  1.00  0.00    -0.400 C  
HETATM   27  O   UNL     1     -14.236  13.508  71.766  1.00  0.00    -0.191 OA 
HETATM   28  O   UNL     1     -12.789  10.692  70.936  1.00  0.00    -0.363 OA 
ENDBRANCH  21  24
ENDBRANCH   4  21
ENDBRANCH   3   4
TORSDOF 6
ENDMDL
MODEL      206
REMARK 921   NORMALIZED FREE ENERGY PREDICTED BY IDOCK:   -3.41 KCAL/MOL
REMARK 922        TOTAL FREE ENERGY PREDICTED BY IDOCK:   -5.81 KCAL/MOL
REMARK 923 INTER-LIGAND FREE ENERGY PREDICTED BY IDOCK:   -4.98 KCAL/MOL
REMARK 924 INTRA-LIGAND FREE ENERGY PREDICTED BY IDOCK:   -0.82 KCAL/MOL
REMARK 927      BINDING AFFINITY PREDICTED BY RF-SCORE:    0.00 PKD
ROOT
HETATM    1  O   UNL     1     -11.303   6.765  67.441  1.00  0.00    -0.668 OA 
HETATM    2  H   UNL     1     -11.527   6.373  66.605  1.00  0.00     0.000 HD 
HETATM    3  C   UNL     1     -10.513   7.939  67.328  1.00  0.00    -0.320 C  
ENDROOT
BRANCH   3   4
HETATM    4  C   UNL     1     -10.148   8.578  68.689  1.00  0.00    -0.190 C  
BRANCH   4   5
HETATM    5  O   UNL     1      -8.841   8.247  69.192  1.00  0.00    -0.141 OA 
BRANCH   5   6
HETATM    6  C   UNL     1      -8.831   7.333  70.287  1.00  0.00    -0.147 C  
HETATM    7  C   UNL     1      -9.348   5.073  70.913  1.00  0.00    -0.151 C  
HETATM    8  O   UNL     1      -9.374   6.068  69.872  1.00  0.00    -0.145 OA 
HETATM    9  H   UNL     1      -9.642   9.531  72.639  1.00  0.00     0.000 HD 
HETATM   10  C   UNL     1     -10.140   5.524  72.148  1.00  0.00    -0.186 C  
HETATM   11  O   UNL     1      -9.142   9.179  71.911  1.00  0.00    -0.354 OA 
HETATM   12  O   UNL     1     -11.542   5.704  71.892  1.00  0.00    -0.178 OA 
HETATM   13  C   UNL     1      -9.592   6.876  72.623  1.00  0.00    -0.145 C  
HETATM   14  H   UNL     1     -12.033   5.983  72.657  1.00  0.00     0.000 HD 
HETATM   15  H   UNL     1      -9.970   8.145  74.079  1.00  0.00     0.000 HD 
HETATM   16  O   UNL     1     -10.310   7.308  73.784  1.00  0.00    -0.360 OA 
HETATM   17  C   UNL     1      -9.650   7.909  71.477  1.00  0.00    -0.151 C  
BRANCH   7  18
HETATM   18  C   UNL     1      -9.895   3.765  70.333  1.00  0.00    -0.065 C  
HETATM   19  O   UNL     1      -9.056   2.678  70.713  1.00  0.00    -0.095 OA 
HETATM   20  H   UNL     1      -9.395   1.867  70.353  1.00  0.00     0.000 HD 
ENDBRANCH   7  18
ENDBRANCH   5   6
ENDBRANCH   4   5
BRANCH   4  21
HETATM   21  C   UNL     1     -10.312  10.127  68.637  1.00  0.00    -0.188 C  
HETATM   22  H   UNL     1     -11.385  11.530  69.567  1.00  0.00     0.000 HD 
HETATM   23  O   UNL     1     -11.285  10.585  69.598  1.00  0.00    -0.243 OA 
BRANCH  21  24
HETATM   24  C   UNL     1     -10.754  10.638  67.262  1.00  0.00    -0.285 C  
HETATM   25  H   UNL     1     -12.146  11.845  66.567  1.00  0.00     0.000 HD 
HETATM   26  C   UNL     1      -9.672  11.415  66.530  1.00  0.00    -0.200 C  
HETATM   27  O   UNL     1     -11.872  11.528  67.420  1.00  0.00    -0.607 OA 
HETATM   28  O   UNL     1      -8.635  11.828  67.038  1.00  0.00    -0.161 OA 
ENDBRANCH  21  24
ENDBRANCH   4  21
ENDBRANCH   3   4
TORSDOF 6
ENDMDL
MODEL      207
REMARK 921   NORMALIZED FREE ENERGY PREDICTED BY IDOCK:   -3.40 KCAL/MOL
REMARK 922        TOTAL FREE ENERGY PREDICTED BY IDOCK:   -5.80 KCAL/MOL
REMARK 923 INTER-LIGAND FREE ENERGY PREDICTED BY IDOCK:   -6.27 KCAL/MOL
REMARK 924 INTRA-LIGAND FREE ENERGY PREDICTED BY IDOCK:    0.47 KCAL/MOL
REMARK 927      BINDING AFFINITY PREDICTED BY RF-SCORE:    0.00 PKD
ROOT
HETATM    1  O   UNL     1     -12.454  14.801  69.299  1.00  0.00    -0.562 OA 
HETATM    2  H   UNL     1     -12.145  15.068  70.157  1.00  0.00     0.000 HD 
HETATM    3  C   UNL     1     -11.414  14.592  68.357  1.00  0.00    -0.302 C  
ENDROOT
BRANCH   3   4
HETATM    4  C   UNL     1     -11.917  14.157  66.960  1.00  0.00    -0.439 C  
BRANCH   4   5
HETATM    5  O   UNL     1     -11.629  15.074  65.890  1.00  0.00    -0.291 OA 
BRANCH   5   6
HETATM    6  C   UNL     1     -10.282  15.541  65.842  1.00  0.00    -0.345 C  
HETATM    7  C   UNL     1      -8.097  15.214  66.784  1.00  0.00    -0.078 C  
HETATM    8  O   UNL     1      -9.486  14.835  66.809  1.00  0.00    -0.230 OA 
HETATM    9  H   UNL     1     -10.995  18.744  65.341  1.00  0.00     0.000 HD 
HETATM   10  C   UNL     1      -7.915  16.715  67.056  1.00  0.00    -0.196 C  
HETATM   11  O   UNL     1     -11.026  17.809  65.174  1.00  0.00    -0.651 OA 
HETATM   12  O   UNL     1      -8.348  17.114  68.366  1.00  0.00    -0.233 OA 
HETATM   13  C   UNL     1      -8.753  17.507  66.043  1.00  0.00    -0.034 C  
HETATM   14  H   UNL     1      -8.236  18.043  68.534  1.00  0.00     0.000 HD 
HETATM   15  H   UNL     1      -9.104  19.402  65.644  1.00  0.00     0.000 HD 
HETATM   16  O   UNL     1      -8.586  18.911  66.271  1.00  0.00    -0.344 OA 
HETATM   17  C   UNL     1     -10.232  17.071  66.115  1.00  0.00    -0.337 C  
BRANCH   7  18
HETATM   18  C   UNL     1      -7.352  14.357  67.811  1.00  0.00    -0.173 C  
HETATM   19  O   UNL     1      -8.036  14.392  69.060  1.00  0.00    -0.248 OA 
HETATM   20  H   UNL     1      -7.574  13.860  69.697  1.00  0.00     0.000 HD 
ENDBRANCH   7  18
ENDBRANCH   5   6
ENDBRANCH   4   5
BRANCH   4  21
HETATM   21  C   UNL     1     -11.381  12.740  66.593  1.00  0.00    -0.316 C  
HETATM   22  H   UNL     1     -12.064  11.086  65.709  1.00  0.00     0.000 HD 
HETATM   23  O   UNL     1     -12.391  11.950  65.933  1.00  0.00    -0.340 OA 
BRANCH  21  24
HETATM   24  C   UNL     1     -10.906  11.944  67.813  1.00  0.00    -0.211 C  
HETATM   25  H   UNL     1     -11.626  10.505  68.948  1.00  0.00     0.000 HD 
HETATM   26  C   UNL     1      -9.636  11.147  67.557  1.00  0.00    -0.168 C  
HETATM   27  O   UNL     1     -11.920  10.998  68.192  1.00  0.00    -0.610 OA 
HETATM   28  O   UNL     1      -9.149  10.934  66.452  1.00  0.00    -0.163 OA 
ENDBRANCH  21  24
ENDBRANCH   4  21
ENDBRANCH   3   4
TORSDOF 6
ENDMDL
MODEL      208
REMARK 921   NORMALIZED FREE ENERGY PREDICTED BY IDOCK:   -3.40 KCAL/MOL
REMARK 922        TOTAL FREE ENERGY PREDICTED BY IDOCK:   -5.79 KCAL/MOL
REMARK 923 INTER-LIGAND FREE ENERGY PREDICTED BY IDOCK:   -5.00 KCAL/MOL
REMARK 924 INTRA-LIGAND FREE ENERGY PREDICTED BY IDOCK:   -0.80 KCAL/MOL
REMARK 927      BINDING AFFINITY PREDICTED BY RF-SCORE:    0.00 PKD
ROOT
HETATM    1  O   UNL     1     -11.796  14.478  66.665  1.00  0.00    -0.393 OA 
HETATM    2  H   UNL     1     -12.470  15.049  66.316  1.00  0.00     0.000 HD 
HETATM    3  C   UNL     1     -12.253  13.165  66.953  1.00  0.00    -0.222 C  
ENDROOT
BRANCH   3   4
HETATM    4  C   UNL     1     -11.156  12.234  67.521  1.00  0.00    -0.275 C  
BRANCH   4   5
HETATM    5  O   UNL     1     -11.580  10.891  67.813  1.00  0.00    -0.523 OA 
BRANCH   5   6
HETATM    6  C   UNL     1     -10.999  10.316  68.981  1.00  0.00    -0.232 C  
HETATM    7  C   UNL     1      -9.730   8.437  69.775  1.00  0.00    -0.180 C  
HETATM    8  O   UNL     1     -10.388   9.056  68.653  1.00  0.00    -0.201 OA 
HETATM    9  H   UNL     1     -13.380  11.241  71.100  1.00  0.00     0.000 HD 
HETATM   10  C   UNL     1     -10.707   8.181  70.932  1.00  0.00    -0.221 C  
HETATM   11  O   UNL     1     -12.720  11.359  70.427  1.00  0.00    -0.197 OA 
HETATM   12  O   UNL     1     -11.751   7.252  70.602  1.00  0.00    -0.333 OA 
HETATM   13  C   UNL     1     -11.383   9.504  71.313  1.00  0.00    -0.376 C  
HETATM   14  H   UNL     1     -12.355   7.093  71.319  1.00  0.00     0.000 HD 
HETATM   15  H   UNL     1     -12.707  10.108  72.638  1.00  0.00     0.000 HD 
HETATM   16  O   UNL     1     -12.288   9.288  72.402  1.00  0.00    -0.307 OA 
HETATM   17  C   UNL     1     -12.080  10.122  70.082  1.00  0.00    -0.149 C  
BRANCH   7  18
HETATM   18  C   UNL     1      -9.076   7.142  69.286  1.00  0.00    -0.137 C  
HETATM   19  O   UNL     1      -8.952   6.223  70.368  1.00  0.00    -0.151 OA 
HETATM   20  H   UNL     1      -8.546   5.419  70.065  1.00  0.00     0.000 HD 
ENDBRANCH   7  18
ENDBRANCH   5   6
ENDBRANCH   4   5
BRANCH   4  21
HETATM   21  C   UNL     1      -9.915  12.198  66.578  1.00  0.00    -0.213 C  
HETATM   22  H   UNL     1      -9.216  11.052  65.100  1.00  0.00     0.000 HD 
HETATM   23  O   UNL     1      -9.973  11.075  65.675  1.00  0.00    -0.225 OA 
BRANCH  21  24
HETATM   24  C   UNL     1      -8.588  12.103  67.337  1.00  0.00    -0.175 C  
HETATM   25  H   UNL     1      -6.871  11.169  67.102  1.00  0.00     0.000 HD 
HETATM   26  C   UNL     1      -7.875  13.440  67.477  1.00  0.00    -0.176 C  
HETATM   27  O   UNL     1      -7.694  11.227  66.631  1.00  0.00    -0.150 OA 
HETATM   28  O   UNL     1      -8.162  14.459  66.857  1.00  0.00    -0.161 OA 
ENDBRANCH  21  24
ENDBRANCH   4  21
ENDBRANCH   3   4
TORSDOF 6
ENDMDL
MODEL      209
REMARK 921   NORMALIZED FREE ENERGY PREDICTED BY IDOCK:   -3.39 KCAL/MOL
REMARK 922        TOTAL FREE ENERGY PREDICTED BY IDOCK:   -5.79 KCAL/MOL
REMARK 923 INTER-LIGAND FREE ENERGY PREDICTED BY IDOCK:   -4.59 KCAL/MOL
REMARK 924 INTRA-LIGAND FREE ENERGY PREDICTED BY IDOCK:   -1.19 KCAL/MOL
REMARK 927      BINDING AFFINITY PREDICTED BY RF-SCORE:    0.00 PKD
ROOT
HETATM    1  O   UNL     1     -12.234  11.752  68.407  1.00  0.00    -0.467 OA 
HETATM    2  H   UNL     1     -12.949  12.343  68.613  1.00  0.00     0.000 HD 
HETATM    3  C   UNL     1     -11.485  11.345  69.542  1.00  0.00    -0.312 C  
ENDROOT
BRANCH   3   4
HETATM    4  C   UNL     1     -10.322  10.382  69.208  1.00  0.00    -0.230 C  
BRANCH   4   5
HETATM    5  O   UNL     1     -10.717   9.080  68.739  1.00  0.00    -0.195 OA 
BRANCH   5   6
HETATM    6  C   UNL     1     -10.839   8.085  69.753  1.00  0.00    -0.194 C  
HETATM    7  C   UNL     1     -10.179   7.531  71.995  1.00  0.00    -0.196 C  
HETATM    8  O   UNL     1     -10.063   8.463  70.903  1.00  0.00    -0.186 OA 
HETATM    9  H   UNL     1     -10.827   5.456  67.727  1.00  0.00     0.000 HD 
HETATM   10  C   UNL     1      -9.727   6.121  71.586  1.00  0.00    -0.158 C  
HETATM   11  O   UNL     1     -11.114   6.300  68.057  1.00  0.00    -0.333 OA 
HETATM   12  O   UNL     1      -8.338   6.048  71.230  1.00  0.00    -0.121 OA 
HETATM   13  C   UNL     1     -10.532   5.680  70.356  1.00  0.00    -0.285 C  
HETATM   14  H   UNL     1      -8.059   5.176  70.976  1.00  0.00     0.000 HD 
HETATM   15  H   UNL     1     -10.634   4.086  69.206  1.00  0.00     0.000 HD 
HETATM   16  O   UNL     1     -10.135   4.360  69.967  1.00  0.00    -0.218 OA 
HETATM   17  C   UNL     1     -10.369   6.705  69.214  1.00  0.00    -0.200 C  
BRANCH   7  18
HETATM   18  C   UNL     1      -9.360   8.071  73.170  1.00  0.00    -0.277 C  
HETATM   19  O   UNL     1      -8.966   6.998  74.021  1.00  0.00    -0.164 OA 
HETATM   20  H   UNL     1      -8.458   7.333  74.750  1.00  0.00     0.000 HD 
ENDBRANCH   7  18
ENDBRANCH   5   6
ENDBRANCH   4   5
BRANCH   4  21
HETATM   21  C   UNL     1      -9.340  11.030  68.186  1.00  0.00    -0.173 C  
HETATM   22  H   UNL     1      -8.731  12.862  67.681  1.00  0.00     0.000 HD 
HETATM   23  O   UNL     1      -9.330  12.467  68.304  1.00  0.00    -0.205 OA 
BRANCH  21  24
HETATM   24  C   UNL     1      -9.682  10.695  66.730  1.00  0.00    -0.185 C  
HETATM   25  H   UNL     1     -10.537  11.618  65.216  1.00  0.00     0.000 HD 
HETATM   26  C   UNL     1      -8.462  10.372  65.882  1.00  0.00    -0.156 C  
HETATM   27  O   UNL     1     -10.326  11.825  66.118  1.00  0.00    -0.218 OA 
HETATM   28  O   UNL     1      -7.299  10.583  66.211  1.00  0.00    -0.120 OA 
ENDBRANCH  21  24
ENDBRANCH   4  21
ENDBRANCH   3   4
TORSDOF 6
ENDMDL
MODEL      210
REMARK 921   NORMALIZED FREE ENERGY PREDICTED BY IDOCK:   -3.38 KCAL/MOL
REMARK 922        TOTAL FREE ENERGY PREDICTED BY IDOCK:   -5.77 KCAL/MOL
REMARK 923 INTER-LIGAND FREE ENERGY PREDICTED BY IDOCK:   -5.06 KCAL/MOL
REMARK 924 INTRA-LIGAND FREE ENERGY PREDICTED BY IDOCK:   -0.71 KCAL/MOL
REMARK 927      BINDING AFFINITY PREDICTED BY RF-SCORE:    0.00 PKD
ROOT
HETATM    1  O   UNL     1     -12.258   9.209  70.573  1.00  0.00    -0.480 OA 
HETATM    2  H   UNL     1     -12.424   9.636  71.406  1.00  0.00     0.000 HD 
HETATM    3  C   UNL     1     -11.103   9.692  69.905  1.00  0.00    -0.235 C  
ENDROOT
BRANCH   3   4
HETATM    4  C   UNL     1     -10.831   8.997  68.550  1.00  0.00    -0.013 C  
BRANCH   4   5
HETATM    5  O   UNL     1     -10.169   9.809  67.564  1.00  0.00    -0.191 OA 
BRANCH   5   6
HETATM    6  C   UNL     1      -9.839  11.128  67.993  1.00  0.00    -0.174 C  
HETATM    7  C   UNL     1     -10.608  13.404  67.985  1.00  0.00    -0.243 C  
HETATM    8  O   UNL     1     -10.844  12.053  67.544  1.00  0.00    -0.224 OA 
HETATM    9  H   UNL     1      -6.561  10.883  67.530  1.00  0.00     0.000 HD 
HETATM   10  C   UNL     1      -9.253  13.932  67.492  1.00  0.00    -0.205 C  
HETATM   11  O   UNL     1      -7.414  10.632  67.865  1.00  0.00    -0.088 OA 
HETATM   12  O   UNL     1      -9.164  14.027  66.062  1.00  0.00    -0.494 OA 
HETATM   13  C   UNL     1      -8.149  12.969  67.950  1.00  0.00    -0.158 C  
HETATM   14  H   UNL     1      -8.326  14.353  65.757  1.00  0.00     0.000 HD 
HETATM   15  H   UNL     1      -6.191  12.857  67.795  1.00  0.00     0.000 HD 
HETATM   16  O   UNL     1      -6.874  13.452  67.511  1.00  0.00    -0.160 OA 
HETATM   17  C   UNL     1      -8.443  11.540  67.445  1.00  0.00    -0.147 C  
BRANCH   7  18
HETATM   18  C   UNL     1     -11.769  14.273  67.495  1.00  0.00    -0.384 C  
HETATM   19  O   UNL     1     -12.092  15.251  68.480  1.00  0.00    -0.555 OA 
HETATM   20  H   UNL     1     -12.812  15.791  68.176  1.00  0.00     0.000 HD 
ENDBRANCH   7  18
ENDBRANCH   5   6
ENDBRANCH   4   5
BRANCH   4  21
HETATM   21  C   UNL     1     -10.038   7.671  68.755  1.00  0.00    -0.194 C  
HETATM   22  H   UNL     1      -8.549   6.688  67.860  1.00  0.00     0.000 HD 
HETATM   23  O   UNL     1      -9.033   7.496  67.735  1.00  0.00    -0.131 OA 
BRANCH  21  24
HETATM   24  C   UNL     1     -10.932   6.427  68.730  1.00  0.00    -0.334 C  
HETATM   25  H   UNL     1     -10.880   4.647  67.890  1.00  0.00     0.000 HD 
HETATM   26  C   UNL     1     -11.140   5.806  70.103  1.00  0.00    -0.253 C  
HETATM   27  O   UNL     1     -10.326   5.418  67.905  1.00  0.00    -0.188 OA 
HETATM   28  O   UNL     1     -10.490   6.080  71.106  1.00  0.00    -0.212 OA 
ENDBRANCH  21  24
ENDBRANCH   4  21
ENDBRANCH   3   4
TORSDOF 6
ENDMDL
MODEL      211
REMARK 921   NORMALIZED FREE ENERGY PREDICTED BY IDOCK:   -3.36 KCAL/MOL
REMARK 922        TOTAL FREE ENERGY PREDICTED BY IDOCK:   -5.74 KCAL/MOL
REMARK 923 INTER-LIGAND FREE ENERGY PREDICTED BY IDOCK:   -4.81 KCAL/MOL
REMARK 924 INTRA-LIGAND FREE ENERGY PREDICTED BY IDOCK:   -0.93 KCAL/MOL
REMARK 927      BINDING AFFINITY PREDICTED BY RF-SCORE:    0.00 PKD
ROOT
HETATM    1  O   UNL     1      -7.508  15.495  68.550  1.00  0.00    -0.112 OA 
HETATM    2  H   UNL     1      -6.762  16.054  68.732  1.00  0.00     0.000 HD 
HETATM    3  C   UNL     1      -7.379  14.744  67.353  1.00  0.00    -0.185 C  
ENDROOT
BRANCH   3   4
HETATM    4  C   UNL     1      -8.595  13.833  67.057  1.00  0.00    -0.166 C  
BRANCH   4   5
HETATM    5  O   UNL     1      -8.550  12.530  67.665  1.00  0.00    -0.157 OA 
BRANCH   5   6
HETATM    6  C   UNL     1      -8.175  11.469  66.789  1.00  0.00    -0.164 C  
HETATM    7  C   UNL     1      -8.720  10.412  64.702  1.00  0.00    -0.187 C  
HETATM    8  O   UNL     1      -9.068  11.427  65.663  1.00  0.00    -0.209 OA 
HETATM    9  H   UNL     1      -7.341   9.289  69.149  1.00  0.00     0.000 HD 
HETATM   10  C   UNL     1      -8.722   9.012  65.334  1.00  0.00    -0.189 C  
HETATM   11  O   UNL     1      -7.327  10.118  68.686  1.00  0.00    -0.078 OA 
HETATM   12  O   UNL     1     -10.015   8.600  65.804  1.00  0.00    -0.456 OA 
HETATM   13  C   UNL     1      -7.781   9.013  66.545  1.00  0.00    -0.096 C  
HETATM   14  H   UNL     1     -10.016   7.733  66.195  1.00  0.00     0.000 HD 
HETATM   15  H   UNL     1      -7.174   7.711  67.890  1.00  0.00     0.000 HD 
HETATM   16  O   UNL     1      -7.757   7.710  67.141  1.00  0.00    -0.107 OA 
HETATM   17  C   UNL     1      -8.199  10.111  67.547  1.00  0.00    -0.114 C  
BRANCH   7  18
HETATM   18  C   UNL     1      -9.703  10.508  63.532  1.00  0.00    -0.319 C  
HETATM   19  O   UNL     1      -9.573   9.363  62.694  1.00  0.00    -0.531 OA 
HETATM   20  H   UNL     1     -10.182   9.423  61.968  1.00  0.00     0.000 HD 
ENDBRANCH   7  18
ENDBRANCH   5   6
ENDBRANCH   4   5
BRANCH   4  21
HETATM   21  C   UNL     1      -9.928  14.543  67.440  1.00  0.00    -0.227 C  
HETATM   22  H   UNL     1     -10.954  14.962  69.100  1.00  0.00     0.000 HD 
HETATM   23  O   UNL     1     -10.141  14.529  68.866  1.00  0.00    -0.234 OA 
BRANCH  21  24
HETATM   24  C   UNL     1     -11.158  13.901  66.790  1.00  0.00    -0.303 C  
HETATM   25  H   UNL     1     -13.112  14.037  66.987  1.00  0.00     0.000 HD 
HETATM   26  C   UNL     1     -11.260  14.166  65.296  1.00  0.00    -0.326 C  
HETATM   27  O   UNL     1     -12.350  14.435  67.390  1.00  0.00    -0.300 OA 
HETATM   28  O   UNL     1     -10.600  14.997  64.682  1.00  0.00    -0.348 OA 
ENDBRANCH  21  24
ENDBRANCH   4  21
ENDBRANCH   3   4
TORSDOF 6
ENDMDL
MODEL      212
REMARK 921   NORMALIZED FREE ENERGY PREDICTED BY IDOCK:   -3.36 KCAL/MOL
REMARK 922        TOTAL FREE ENERGY PREDICTED BY IDOCK:   -5.74 KCAL/MOL
REMARK 923 INTER-LIGAND FREE ENERGY PREDICTED BY IDOCK:   -6.16 KCAL/MOL
REMARK 924 INTRA-LIGAND FREE ENERGY PREDICTED BY IDOCK:    0.42 KCAL/MOL
REMARK 927      BINDING AFFINITY PREDICTED BY RF-SCORE:    0.00 PKD
ROOT
HETATM    1  O   UNL     1      -7.283  13.572  69.210  1.00  0.00    -0.281 OA 
HETATM    2  H   UNL     1      -6.575  13.464  69.834  1.00  0.00     0.000 HD 
HETATM    3  C   UNL     1      -7.861  14.868  69.221  1.00  0.00    -0.158 C  
ENDROOT
BRANCH   3   4
HETATM    4  C   UNL     1      -9.014  15.044  68.205  1.00  0.00    -0.174 C  
BRANCH   4   5
HETATM    5  O   UNL     1      -8.608  15.371  66.864  1.00  0.00    -0.219 OA 
BRANCH   5   6
HETATM    6  C   UNL     1      -8.356  16.755  66.631  1.00  0.00    -0.261 C  
HETATM    7  C   UNL     1      -7.228  18.682  67.517  1.00  0.00    -0.211 C  
HETATM    8  O   UNL     1      -7.571  17.296  67.707  1.00  0.00    -0.175 OA 
HETATM    9  H   UNL     1     -11.331  17.486  65.355  1.00  0.00     0.000 HD 
HETATM   10  C   UNL     1      -8.480  19.561  67.382  1.00  0.00    -0.300 C  
HETATM   11  O   UNL     1     -10.513  17.012  65.438  1.00  0.00    -0.619 OA 
HETATM   12  O   UNL     1      -9.295  19.577  68.564  1.00  0.00    -0.354 OA 
HETATM   13  C   UNL     1      -9.350  19.015  66.242  1.00  0.00    -0.298 C  
HETATM   14  H   UNL     1     -10.070  20.121  68.481  1.00  0.00     0.000 HD 
HETATM   15  H   UNL     1     -11.055  19.493  65.385  1.00  0.00     0.000 HD 
HETATM   16  O   UNL     1     -10.517  19.831  66.091  1.00  0.00    -0.471 OA 
HETATM   17  C   UNL     1      -9.696  17.532  66.497  1.00  0.00    -0.295 C  
BRANCH   7  18
HETATM   18  C   UNL     1      -6.350  19.120  68.692  1.00  0.00    -0.248 C  
HETATM   19  O   UNL     1      -7.082  19.997  69.544  1.00  0.00    -0.257 OA 
HETATM   20  H   UNL     1      -6.537  20.269  70.273  1.00  0.00     0.000 HD 
ENDBRANCH   7  18
ENDBRANCH   5   6
ENDBRANCH   4   5
BRANCH   4  21
HETATM   21  C   UNL     1      -9.932  13.785  68.181  1.00  0.00    -0.242 C  
HETATM   22  H   UNL     1     -10.117  12.113  67.108  1.00  0.00     0.000 HD 
HETATM   23  O   UNL     1      -9.557  12.880  67.122  1.00  0.00    -0.213 OA 
BRANCH  21  24
HETATM   24  C   UNL     1     -11.413  14.125  67.986  1.00  0.00    -0.312 C  
HETATM   25  H   UNL     1     -12.548  15.723  68.176  1.00  0.00     0.000 HD 
HETATM   26  C   UNL     1     -11.900  13.912  66.562  1.00  0.00    -0.414 C  
HETATM   27  O   UNL     1     -11.630  15.512  68.296  1.00  0.00    -0.357 OA 
HETATM   28  O   UNL     1     -11.174  13.730  65.589  1.00  0.00    -0.300 OA 
ENDBRANCH  21  24
ENDBRANCH   4  21
ENDBRANCH   3   4
TORSDOF 6
ENDMDL
MODEL      213
REMARK 921   NORMALIZED FREE ENERGY PREDICTED BY IDOCK:   -3.35 KCAL/MOL
REMARK 922        TOTAL FREE ENERGY PREDICTED BY IDOCK:   -5.73 KCAL/MOL
REMARK 923 INTER-LIGAND FREE ENERGY PREDICTED BY IDOCK:   -5.45 KCAL/MOL
REMARK 924 INTRA-LIGAND FREE ENERGY PREDICTED BY IDOCK:   -0.28 KCAL/MOL
REMARK 927      BINDING AFFINITY PREDICTED BY RF-SCORE:    0.00 PKD
ROOT
HETATM    1  O   UNL     1     -11.657  11.972  70.107  1.00  0.00    -0.494 OA 
HETATM    2  H   UNL     1     -12.353  12.153  70.728  1.00  0.00     0.000 HD 
HETATM    3  C   UNL     1     -12.005  11.013  69.121  1.00  0.00    -0.324 C  
ENDROOT
BRANCH   3   4
HETATM    4  C   UNL     1     -10.871  10.719  68.111  1.00  0.00    -0.236 C  
BRANCH   4   5
HETATM    5  O   UNL     1     -10.678   9.329  67.790  1.00  0.00    -0.259 OA 
BRANCH   5   6
HETATM    6  C   UNL     1     -10.081   8.550  68.824  1.00  0.00    -0.196 C  
HETATM    7  C   UNL     1     -10.580   7.129  70.695  1.00  0.00    -0.225 C  
HETATM    8  O   UNL     1     -11.105   7.977  69.656  1.00  0.00    -0.158 OA 
HETATM    9  H   UNL     1      -7.507  10.566  69.398  1.00  0.00     0.000 HD 
HETATM   10  C   UNL     1      -9.621   7.894  71.619  1.00  0.00    -0.163 C  
HETATM   11  O   UNL     1      -8.093  10.028  68.877  1.00  0.00    -0.098 OA 
HETATM   12  O   UNL     1     -10.255   8.959  72.344  1.00  0.00    -0.251 OA 
HETATM   13  C   UNL     1      -8.511   8.525  70.769  1.00  0.00    -0.149 C  
HETATM   14  H   UNL     1      -9.661   9.432  72.916  1.00  0.00     0.000 HD 
HETATM   15  H   UNL     1      -6.909   9.623  71.088  1.00  0.00     0.000 HD 
HETATM   16  O   UNL     1      -7.597   9.232  71.615  1.00  0.00    -0.338 OA 
HETATM   17  C   UNL     1      -9.122   9.429  69.677  1.00  0.00    -0.181 C  
BRANCH   7  18
HETATM   18  C   UNL     1     -11.762   6.538  71.468  1.00  0.00    -0.324 C  
HETATM   19  O   UNL     1     -11.357   6.200  72.792  1.00  0.00    -0.332 OA 
HETATM   20  H   UNL     1     -12.090   5.834  73.271  1.00  0.00     0.000 HD 
ENDBRANCH   7  18
ENDBRANCH   5   6
ENDBRANCH   4   5
BRANCH   4  21
HETATM   21  C   UNL     1     -11.071  11.535  66.798  1.00  0.00    -0.302 C  
HETATM   22  H   UNL     1     -10.459  11.454  64.900  1.00  0.00     0.000 HD 
HETATM   23  O   UNL     1     -10.337  10.956  65.700  1.00  0.00    -0.250 OA 
BRANCH  21  24
HETATM   24  C   UNL     1     -10.624  12.995  66.925  1.00  0.00    -0.254 C  
HETATM   25  H   UNL     1      -9.364  14.189  65.996  1.00  0.00     0.000 HD 
HETATM   26  C   UNL     1     -11.756  13.993  66.735  1.00  0.00    -0.407 C  
HETATM   27  O   UNL     1      -9.641  13.284  65.917  1.00  0.00    -0.218 OA 
HETATM   28  O   UNL     1     -12.864  13.723  66.283  1.00  0.00    -0.297 OA 
ENDBRANCH  21  24
ENDBRANCH   4  21
ENDBRANCH   3   4
TORSDOF 6
ENDMDL
MODEL      214
REMARK 921   NORMALIZED FREE ENERGY PREDICTED BY IDOCK:   -3.34 KCAL/MOL
REMARK 922        TOTAL FREE ENERGY PREDICTED BY IDOCK:   -5.72 KCAL/MOL
REMARK 923 INTER-LIGAND FREE ENERGY PREDICTED BY IDOCK:   -4.73 KCAL/MOL
REMARK 924 INTRA-LIGAND FREE ENERGY PREDICTED BY IDOCK:   -0.99 KCAL/MOL
REMARK 927      BINDING AFFINITY PREDICTED BY RF-SCORE:    0.00 PKD
ROOT
HETATM    1  O   UNL     1     -11.395   3.566  73.502  1.00  0.00    -0.227 OA 
HETATM    2  H   UNL     1     -11.929   3.434  74.277  1.00  0.00     0.000 HD 
HETATM    3  C   UNL     1     -11.122   4.930  73.222  1.00  0.00    -0.337 C  
ENDROOT
BRANCH   3   4
HETATM    4  C   UNL     1     -10.253   5.145  71.960  1.00  0.00    -0.202 C  
BRANCH   4   5
HETATM    5  O   UNL     1     -10.983   5.319  70.733  1.00  0.00    -0.130 OA 
BRANCH   5   6
HETATM    6  C   UNL     1     -10.182   5.629  69.594  1.00  0.00    -0.251 C  
HETATM    7  C   UNL     1      -9.938   7.180  67.777  1.00  0.00    -0.155 C  
HETATM    8  O   UNL     1     -10.726   6.772  68.911  1.00  0.00    -0.215 OA 
HETATM    9  H   UNL     1      -9.546   2.496  68.698  1.00  0.00     0.000 HD 
HETATM   10  C   UNL     1      -9.809   6.052  66.742  1.00  0.00    -0.163 C  
HETATM   11  O   UNL     1      -9.587   3.243  69.285  1.00  0.00    -0.162 OA 
HETATM   12  O   UNL     1     -11.063   5.668  66.158  1.00  0.00    -0.743 OA 
HETATM   13  C   UNL     1      -9.233   4.809  67.432  1.00  0.00    -0.129 C  
HETATM   14  H   UNL     1     -10.984   4.970  65.518  1.00  0.00     0.000 HD 
HETATM   15  H   UNL     1      -8.734   2.980  66.907  1.00  0.00     0.000 HD 
HETATM   16  O   UNL     1      -9.091   3.749  66.480  1.00  0.00    -0.134 OA 
HETATM   17  C   UNL     1     -10.115   4.407  68.634  1.00  0.00     0.105 C  
BRANCH   7  18
HETATM   18  C   UNL     1     -10.584   8.431  67.176  1.00  0.00    -0.256 C  
HETATM   19  O   UNL     1     -10.121   8.623  65.842  1.00  0.00    -0.452 OA 
HETATM   20  H   UNL     1     -10.522   9.399  65.469  1.00  0.00     0.000 HD 
ENDBRANCH   7  18
ENDBRANCH   5   6
ENDBRANCH   4   5
BRANCH   4  21
HETATM   21  C   UNL     1      -9.271   6.338  72.159  1.00  0.00    -0.144 C  
HETATM   22  H   UNL     1      -7.528   6.682  73.069  1.00  0.00     0.000 HD 
HETATM   23  O   UNL     1      -8.126   5.954  72.948  1.00  0.00    -0.113 OA 
BRANCH  21  24
HETATM   24  C   UNL     1      -9.920   7.540  72.853  1.00  0.00    -0.249 C  
HETATM   25  H   UNL     1      -9.561   8.629  74.454  1.00  0.00     0.000 HD 
HETATM   26  C   UNL     1      -9.974   8.785  71.982  1.00  0.00    -0.321 C  
HETATM   27  O   UNL     1      -9.159   7.885  74.024  1.00  0.00    -0.255 OA 
HETATM   28  O   UNL     1      -9.361   8.936  70.930  1.00  0.00    -0.194 OA 
ENDBRANCH  21  24
ENDBRANCH   4  21
ENDBRANCH   3   4
TORSDOF 6
ENDMDL
MODEL      215
REMARK 921   NORMALIZED FREE ENERGY PREDICTED BY IDOCK:   -3.34 KCAL/MOL
REMARK 922        TOTAL FREE ENERGY PREDICTED BY IDOCK:   -5.71 KCAL/MOL
REMARK 923 INTER-LIGAND FREE ENERGY PREDICTED BY IDOCK:   -4.86 KCAL/MOL
REMARK 924 INTRA-LIGAND FREE ENERGY PREDICTED BY IDOCK:   -0.85 KCAL/MOL
REMARK 927      BINDING AFFINITY PREDICTED BY RF-SCORE:    0.00 PKD
ROOT
HETATM    1  O   UNL     1     -10.606  11.450  63.306  1.00  0.00    -0.517 OA 
HETATM    2  H   UNL     1     -11.297  11.141  62.732  1.00  0.00     0.000 HD 
HETATM    3  C   UNL     1     -10.257  10.528  64.327  1.00  0.00    -0.244 C  
ENDROOT
BRANCH   3   4
HETATM    4  C   UNL     1      -9.132  11.031  65.262  1.00  0.00    -0.189 C  
BRANCH   4   5
HETATM    5  O   UNL     1      -9.563  11.466  66.564  1.00  0.00    -0.189 OA 
BRANCH   5   6
HETATM    6  C   UNL     1      -9.897  12.849  66.657  1.00  0.00    -0.250 C  
HETATM    7  C   UNL     1      -8.957  15.045  66.913  1.00  0.00    -0.251 C  
HETATM    8  O   UNL     1      -8.706  13.627  66.862  1.00  0.00    -0.214 OA 
HETATM    9  H   UNL     1     -12.716  12.456  68.365  1.00  0.00     0.000 HD 
HETATM   10  C   UNL     1      -9.935  15.406  68.040  1.00  0.00    -0.221 C  
HETATM   11  O   UNL     1     -12.101  12.313  67.654  1.00  0.00    -0.502 OA 
HETATM   12  O   UNL     1      -9.429  15.109  69.351  1.00  0.00    -0.279 OA 
HETATM   13  C   UNL     1     -11.223  14.593  67.859  1.00  0.00    -0.304 C  
HETATM   14  H   UNL     1     -10.034  15.332  70.049  1.00  0.00     0.000 HD 
HETATM   15  H   UNL     1     -12.953  14.424  68.782  1.00  0.00     0.000 HD 
HETATM   16  O   UNL     1     -12.155  14.927  68.894  1.00  0.00    -0.273 OA 
HETATM   17  C   UNL     1     -10.902  13.084  67.820  1.00  0.00    -0.240 C  
BRANCH   7  18
HETATM   18  C   UNL     1      -7.613  15.760  67.075  1.00  0.00    -0.222 C  
HETATM   19  O   UNL     1      -7.800  16.993  67.765  1.00  0.00    -0.175 OA 
HETATM   20  H   UNL     1      -6.966  17.436  67.866  1.00  0.00     0.000 HD 
ENDBRANCH   7  18
ENDBRANCH   5   6
ENDBRANCH   4   5
BRANCH   4  21
HETATM   21  C   UNL     1      -8.013   9.956  65.413  1.00  0.00    -0.134 C  
HETATM   22  H   UNL     1      -6.196   9.600  64.669  1.00  0.00     0.000 HD 
HETATM   23  O   UNL     1      -6.878  10.256  64.577  1.00  0.00    -0.127 OA 
BRANCH  21  24
HETATM   24  C   UNL     1      -8.485   8.544  65.052  1.00  0.00    -0.164 C  
HETATM   25  H   UNL     1      -7.713   6.963  64.169  1.00  0.00     0.000 HD 
HETATM   26  C   UNL     1      -8.884   7.712  66.260  1.00  0.00    -0.156 C  
HETATM   27  O   UNL     1      -7.420   7.838  64.393  1.00  0.00    -0.085 OA 
HETATM   28  O   UNL     1      -8.638   8.001  67.427  1.00  0.00    -0.124 OA 
ENDBRANCH  21  24
ENDBRANCH   4  21
ENDBRANCH   3   4
TORSDOF 6
ENDMDL
MODEL      216
REMARK 921   NORMALIZED FREE ENERGY PREDICTED BY IDOCK:   -3.33 KCAL/MOL
REMARK 922        TOTAL FREE ENERGY PREDICTED BY IDOCK:   -5.70 KCAL/MOL
REMARK 923 INTER-LIGAND FREE ENERGY PREDICTED BY IDOCK:   -4.57 KCAL/MOL
REMARK 924 INTRA-LIGAND FREE ENERGY PREDICTED BY IDOCK:   -1.13 KCAL/MOL
REMARK 927      BINDING AFFINITY PREDICTED BY RF-SCORE:    0.00 PKD
ROOT
HETATM    1  O   UNL     1      -5.873   7.271  69.062  1.00  0.00    -0.018 OA 
HETATM    2  H   UNL     1      -4.932   7.250  69.193  1.00  0.00     0.000 HD 
HETATM    3  C   UNL     1      -6.596   7.729  70.194  1.00  0.00    -0.038 C  
ENDROOT
BRANCH   3   4
HETATM    4  C   UNL     1      -8.128   7.763  69.982  1.00  0.00    -0.118 C  
BRANCH   4   5
HETATM    5  O   UNL     1      -8.751   9.041  70.204  1.00  0.00    -0.143 OA 
BRANCH   5   6
HETATM    6  C   UNL     1      -9.823   9.033  71.144  1.00  0.00    -0.300 C  
HETATM    7  C   UNL     1     -11.055   7.622  72.648  1.00  0.00    -0.359 C  
HETATM    8  O   UNL     1     -10.020   7.701  71.649  1.00  0.00    -0.174 OA 
HETATM    9  H   UNL     1     -11.761  11.203  69.547  1.00  0.00     0.000 HD 
HETATM   10  C   UNL     1     -12.406   8.105  72.102  1.00  0.00    -0.338 C  
HETATM   11  O   UNL     1     -10.965  10.882  69.953  1.00  0.00    -0.257 OA 
HETATM   12  O   UNL     1     -12.912   7.293  71.032  1.00  0.00    -0.559 OA 
HETATM   13  C   UNL     1     -12.239   9.527  71.550  1.00  0.00    -0.386 C  
HETATM   14  H   UNL     1     -13.749   7.592  70.694  1.00  0.00     0.000 HD 
HETATM   15  H   UNL     1     -13.390  10.882  70.708  1.00  0.00     0.000 HD 
HETATM   16  O   UNL     1     -13.494  10.002  71.049  1.00  0.00    -0.367 OA 
HETATM   17  C   UNL     1     -11.127   9.557  70.480  1.00  0.00    -0.283 C  
BRANCH   7  18
HETATM   18  C   UNL     1     -11.127   6.175  73.144  1.00  0.00    -0.185 C  
HETATM   19  O   UNL     1     -11.045   5.279  72.039  1.00  0.00    -0.187 OA 
HETATM   20  H   UNL     1     -11.089   4.381  72.346  1.00  0.00     0.000 HD 
ENDBRANCH   7  18
ENDBRANCH   5   6
ENDBRANCH   4   5
BRANCH   4  21
HETATM   21  C   UNL     1      -8.505   7.236  68.565  1.00  0.00    -0.125 C  
HETATM   22  H   UNL     1      -9.320   7.954  66.890  1.00  0.00     0.000 HD 
HETATM   23  O   UNL     1      -9.090   8.276  67.754  1.00  0.00    -0.132 OA 
BRANCH  21  24
HETATM   24  C   UNL     1      -9.502   6.073  68.602  1.00  0.00    -0.124 C  
HETATM   25  H   UNL     1     -11.407   5.811  68.179  1.00  0.00     0.000 HD 
HETATM   26  C   UNL     1      -9.111   4.913  67.701  1.00  0.00    -0.115 C  
HETATM   27  O   UNL     1     -10.789   6.532  68.155  1.00  0.00    -0.255 OA 
HETATM   28  O   UNL     1      -8.243   4.954  66.835  1.00  0.00    -0.107 OA 
ENDBRANCH  21  24
ENDBRANCH   4  21
ENDBRANCH   3   4
TORSDOF 6
ENDMDL
MODEL      217
REMARK 921   NORMALIZED FREE ENERGY PREDICTED BY IDOCK:   -3.32 KCAL/MOL
REMARK 922        TOTAL FREE ENERGY PREDICTED BY IDOCK:   -5.69 KCAL/MOL
REMARK 923 INTER-LIGAND FREE ENERGY PREDICTED BY IDOCK:   -5.38 KCAL/MOL
REMARK 924 INTRA-LIGAND FREE ENERGY PREDICTED BY IDOCK:   -0.31 KCAL/MOL
REMARK 927      BINDING AFFINITY PREDICTED BY RF-SCORE:    0.00 PKD
ROOT
HETATM    1  O   UNL     1     -14.087   7.707  71.121  1.00  0.00    -0.630 OA 
HETATM    2  H   UNL     1     -14.705   8.264  71.581  1.00  0.00     0.000 HD 
HETATM    3  C   UNL     1     -12.777   7.738  71.664  1.00  0.00    -0.335 C  
ENDROOT
BRANCH   3   4
HETATM    4  C   UNL     1     -11.771   6.831  70.916  1.00  0.00    -0.372 C  
BRANCH   4   5
HETATM    5  O   UNL     1     -11.331   7.324  69.638  1.00  0.00    -0.144 OA 
BRANCH   5   6
HETATM    6  C   UNL     1     -10.822   8.655  69.648  1.00  0.00    -0.157 C  
HETATM    7  C   UNL     1     -11.421  10.943  70.069  1.00  0.00    -0.329 C  
HETATM    8  O   UNL     1     -11.872   9.578  69.985  1.00  0.00    -0.079 OA 
HETATM    9  H   UNL     1      -8.800   8.321  67.037  1.00  0.00     0.000 HD 
HETATM   10  C   UNL     1     -10.808  11.419  68.743  1.00  0.00    -0.208 C  
HETATM   11  O   UNL     1      -9.170   8.104  67.884  1.00  0.00    -0.132 OA 
HETATM   12  O   UNL     1     -11.748  11.442  67.657  1.00  0.00    -0.546 OA 
HETATM   13  C   UNL     1      -9.681  10.457  68.344  1.00  0.00    -0.158 C  
HETATM   14  H   UNL     1     -11.369  11.736  66.837  1.00  0.00     0.000 HD 
HETATM   15  H   UNL     1      -8.389  10.297  66.869  1.00  0.00     0.000 HD 
HETATM   16  O   UNL     1      -9.087  10.892  67.116  1.00  0.00    -0.144 OA 
HETATM   17  C   UNL     1     -10.216   9.011  68.260  1.00  0.00    -0.204 C  
BRANCH   7  18
HETATM   18  C   UNL     1     -12.610  11.811  70.489  1.00  0.00    -0.150 C  
HETATM   19  O   UNL     1     -12.281  13.190  70.340  1.00  0.00    -0.345 OA 
HETATM   20  H   UNL     1     -13.018  13.728  70.601  1.00  0.00     0.000 HD 
ENDBRANCH   7  18
ENDBRANCH   5   6
ENDBRANCH   4   5
BRANCH   4  21
HETATM   21  C   UNL     1     -10.533   6.519  71.810  1.00  0.00    -0.211 C  
HETATM   22  H   UNL     1      -9.681   4.919  72.646  1.00  0.00     0.000 HD 
HETATM   23  O   UNL     1     -10.436   5.109  72.101  1.00  0.00    -0.211 OA 
BRANCH  21  24
HETATM   24  C   UNL     1     -10.558   7.260  73.150  1.00  0.00    -0.355 C  
HETATM   25  H   UNL     1     -10.153   6.829  75.028  1.00  0.00     0.000 HD 
HETATM   26  C   UNL     1      -9.628   8.462  73.194  1.00  0.00    -0.068 C  
HETATM   27  O   UNL     1     -10.137   6.370  74.198  1.00  0.00    -0.268 OA 
HETATM   28  O   UNL     1      -8.753   8.706  72.369  1.00  0.00    -0.336 OA 
ENDBRANCH  21  24
ENDBRANCH   4  21
ENDBRANCH   3   4
TORSDOF 6
ENDMDL
MODEL      218
REMARK 921   NORMALIZED FREE ENERGY PREDICTED BY IDOCK:   -3.32 KCAL/MOL
REMARK 922        TOTAL FREE ENERGY PREDICTED BY IDOCK:   -5.69 KCAL/MOL
REMARK 923 INTER-LIGAND FREE ENERGY PREDICTED BY IDOCK:   -5.58 KCAL/MOL
REMARK 924 INTRA-LIGAND FREE ENERGY PREDICTED BY IDOCK:   -0.11 KCAL/MOL
REMARK 927      BINDING AFFINITY PREDICTED BY RF-SCORE:    0.00 PKD
ROOT
HETATM    1  O   UNL     1      -9.885   7.814  66.830  1.00  0.00    -0.207 OA 
HETATM    2  H   UNL     1     -10.022   6.922  66.535  1.00  0.00     0.000 HD 
HETATM    3  C   UNL     1      -9.773   8.754  65.772  1.00  0.00    -0.052 C  
ENDROOT
BRANCH   3   4
HETATM    4  C   UNL     1      -9.550  10.208  66.252  1.00  0.00    -0.193 C  
BRANCH   4   5
HETATM    5  O   UNL     1     -10.748  10.951  66.540  1.00  0.00    -0.251 OA 
BRANCH   5   6
HETATM    6  C   UNL     1     -10.803  12.252  65.960  1.00  0.00    -0.275 C  
HETATM    7  C   UNL     1     -11.193  14.569  66.462  1.00  0.00    -0.344 C  
HETATM    8  O   UNL     1     -11.169  13.218  66.961  1.00  0.00    -0.276 OA 
HETATM    9  H   UNL     1     -12.123  11.332  63.057  1.00  0.00     0.000 HD 
HETATM   10  C   UNL     1     -12.184  14.724  65.299  1.00  0.00    -0.158 C  
HETATM   11  O   UNL     1     -11.499  11.317  63.773  1.00  0.00    -0.276 OA 
HETATM   12  O   UNL     1     -13.548  14.481  65.676  1.00  0.00    -0.447 OA 
HETATM   13  C   UNL     1     -11.830  13.707  64.207  1.00  0.00    -0.425 C  
HETATM   14  H   UNL     1     -14.162  14.578  64.957  1.00  0.00     0.000 HD 
HETATM   15  H   UNL     1     -12.516  13.217  62.428  1.00  0.00     0.000 HD 
HETATM   16  O   UNL     1     -12.735  13.846  63.105  1.00  0.00    -0.718 OA 
HETATM   17  C   UNL     1     -11.825  12.277  64.788  1.00  0.00    -0.364 C  
BRANCH   7  18
HETATM   18  C   UNL     1     -11.535  15.499  67.629  1.00  0.00    -0.209 C  
HETATM   19  O   UNL     1     -12.471  14.866  68.497  1.00  0.00    -0.575 OA 
HETATM   20  H   UNL     1     -12.683  15.443  69.221  1.00  0.00     0.000 HD 
ENDBRANCH   7  18
ENDBRANCH   5   6
ENDBRANCH   4   5
BRANCH   4  21
HETATM   21  C   UNL     1      -8.601  10.246  67.488  1.00  0.00    -0.118 C  
HETATM   22  H   UNL     1      -8.524  11.154  69.263  1.00  0.00     0.000 HD 
HETATM   23  O   UNL     1      -9.103  11.130  68.510  1.00  0.00    -0.165 OA 
BRANCH  21  24
HETATM   24  C   UNL     1      -7.183  10.710  67.141  1.00  0.00    -0.097 C  
HETATM   25  H   UNL     1      -6.007  10.653  65.563  1.00  0.00     0.000 HD 
HETATM   26  C   UNL     1      -6.992  12.214  67.266  1.00  0.00    -0.148 C  
HETATM   27  O   UNL     1      -6.886  10.365  65.777  1.00  0.00    -0.121 OA 
HETATM   28  O   UNL     1      -7.898  13.032  67.383  1.00  0.00    -0.165 OA 
ENDBRANCH  21  24
ENDBRANCH   4  21
ENDBRANCH   3   4
TORSDOF 6
ENDMDL
MODEL      219
REMARK 921   NORMALIZED FREE ENERGY PREDICTED BY IDOCK:   -3.29 KCAL/MOL
REMARK 922        TOTAL FREE ENERGY PREDICTED BY IDOCK:   -5.65 KCAL/MOL
REMARK 923 INTER-LIGAND FREE ENERGY PREDICTED BY IDOCK:   -4.88 KCAL/MOL
REMARK 924 INTRA-LIGAND FREE ENERGY PREDICTED BY IDOCK:   -0.77 KCAL/MOL
REMARK 927      BINDING AFFINITY PREDICTED BY RF-SCORE:    0.00 PKD
ROOT
HETATM    1  O   UNL     1     -12.205   6.080  72.581  1.00  0.00    -0.540 OA 
HETATM    2  H   UNL     1     -13.122   5.871  72.718  1.00  0.00     0.000 HD 
HETATM    3  C   UNL     1     -11.854   6.239  71.215  1.00  0.00    -0.182 C  
ENDROOT
BRANCH   3   4
HETATM    4  C   UNL     1     -10.362   6.579  70.991  1.00  0.00    -0.206 C  
BRANCH   4   5
HETATM    5  O   UNL     1      -9.826   7.596  71.856  1.00  0.00    -0.161 OA 
BRANCH   5   6
HETATM    6  C   UNL     1     -10.048   8.936  71.421  1.00  0.00    -0.309 C  
HETATM    7  C   UNL     1     -11.725  10.645  71.232  1.00  0.00    -0.047 C  
HETATM    8  O   UNL     1     -11.432   9.284  71.601  1.00  0.00    -0.355 OA 
HETATM    9  H   UNL     1      -8.018   8.837  68.797  1.00  0.00     0.000 HD 
HETATM   10  C   UNL     1     -11.374  10.922  69.763  1.00  0.00    -0.301 C  
HETATM   11  O   UNL     1      -8.267   8.742  69.709  1.00  0.00    -0.109 OA 
HETATM   12  O   UNL     1     -12.152  10.149  68.836  1.00  0.00    -0.559 OA 
HETATM   13  C   UNL     1      -9.902  10.560  69.528  1.00  0.00    -0.142 C  
HETATM   14  H   UNL     1     -11.935  10.321  67.927  1.00  0.00     0.000 HD 
HETATM   15  H   UNL     1      -8.639  10.601  68.019  1.00  0.00     0.000 HD 
HETATM   16  O   UNL     1      -9.550  10.825  68.165  1.00  0.00    -0.153 OA 
HETATM   17  C   UNL     1      -9.641   9.092  69.929  1.00  0.00    -0.192 C  
BRANCH   7  18
HETATM   18  C   UNL     1     -13.205  10.908  71.522  1.00  0.00    -0.319 C  
HETATM   19  O   UNL     1     -13.653  10.054  72.571  1.00  0.00    -0.643 OA 
HETATM   20  H   UNL     1     -14.571  10.217  72.751  1.00  0.00     0.000 HD 
ENDBRANCH   7  18
ENDBRANCH   5   6
ENDBRANCH   4   5
BRANCH   4  21
HETATM   21  C   UNL     1      -9.480   5.297  71.082  1.00  0.00    -0.158 C  
HETATM   22  H   UNL     1      -9.646   3.437  71.787  1.00  0.00     0.000 HD 
HETATM   23  O   UNL     1     -10.184   4.219  71.732  1.00  0.00    -0.179 OA 
BRANCH  21  24
HETATM   24  C   UNL     1      -8.176   5.520  71.854  1.00  0.00    -0.119 C  
HETATM   25  H   UNL     1      -7.116   4.528  73.184  1.00  0.00     0.000 HD 
HETATM   26  C   UNL     1      -6.959   5.673  70.954  1.00  0.00    -0.061 C  
HETATM   27  O   UNL     1      -7.924   4.389  72.705  1.00  0.00    -0.088 OA 
HETATM   28  O   UNL     1      -6.931   5.407  69.757  1.00  0.00    -0.057 OA 
ENDBRANCH  21  24
ENDBRANCH   4  21
ENDBRANCH   3   4
TORSDOF 6
ENDMDL
MODEL      220
REMARK 921   NORMALIZED FREE ENERGY PREDICTED BY IDOCK:   -3.24 KCAL/MOL
REMARK 922        TOTAL FREE ENERGY PREDICTED BY IDOCK:   -5.58 KCAL/MOL
REMARK 923 INTER-LIGAND FREE ENERGY PREDICTED BY IDOCK:   -4.69 KCAL/MOL
REMARK 924 INTRA-LIGAND FREE ENERGY PREDICTED BY IDOCK:   -0.89 KCAL/MOL
REMARK 927      BINDING AFFINITY PREDICTED BY RF-SCORE:    0.00 PKD
ROOT
HETATM    1  O   UNL     1     -11.217   5.611  66.264  1.00  0.00    -0.759 OA 
HETATM    2  H   UNL     1     -12.105   5.395  66.002  1.00  0.00     0.000 HD 
HETATM    3  C   UNL     1     -11.119   6.812  67.014  1.00  0.00    -0.299 C  
ENDROOT
BRANCH   3   4
HETATM    4  C   UNL     1      -9.674   7.163  67.440  1.00  0.00    -0.148 C  
BRANCH   4   5
HETATM    5  O   UNL     1      -9.464   8.531  67.834  1.00  0.00    -0.138 OA 
BRANCH   5   6
HETATM    6  C   UNL     1      -8.954   9.382  66.811  1.00  0.00    -0.131 C  
HETATM    7  C   UNL     1      -9.605  10.845  65.020  1.00  0.00    -0.251 C  
HETATM    8  O   UNL     1     -10.040   9.929  66.043  1.00  0.00    -0.259 OA 
HETATM    9  H   UNL     1      -6.298   7.539  66.056  1.00  0.00     0.000 HD 
HETATM   10  C   UNL     1      -8.644  10.171  64.029  1.00  0.00    -0.192 C  
HETATM   11  O   UNL     1      -6.891   8.022  66.621  1.00  0.00    -0.065 OA 
HETATM   12  O   UNL     1      -9.248   9.101  63.287  1.00  0.00    -0.430 OA 
HETATM   13  C   UNL     1      -7.468   9.571  64.810  1.00  0.00    -0.112 C  
HETATM   14  H   UNL     1      -8.653   8.685  62.674  1.00  0.00     0.000 HD 
HETATM   15  H   UNL     1      -5.823   8.579  64.385  1.00  0.00     0.000 HD 
HETATM   16  O   UNL     1      -6.551   8.950  63.901  1.00  0.00    -0.086 OA 
HETATM   17  C   UNL     1      -7.984   8.592  65.887  1.00  0.00    -0.105 C  
BRANCH   7  18
HETATM   18  C   UNL     1     -10.849  11.398  64.318  1.00  0.00    -0.349 C  
HETATM   19  O   UNL     1     -10.492  11.927  63.044  1.00  0.00    -0.641 OA 
HETATM   20  H   UNL     1     -11.263  12.270  62.609  1.00  0.00     0.000 HD 
ENDBRANCH   7  18
ENDBRANCH   5   6
ENDBRANCH   4   5
BRANCH   4  21
HETATM   21  C   UNL     1      -9.180   6.211  68.571  1.00  0.00    -0.115 C  
HETATM   22  H   UNL     1      -9.947   4.791  69.745  1.00  0.00     0.000 HD 
HETATM   23  O   UNL     1     -10.248   5.371  69.055  1.00  0.00    -0.199 OA 
BRANCH  21  24
HETATM   24  C   UNL     1      -8.608   6.961  69.778  1.00  0.00    -0.141 C  
HETATM   25  H   UNL     1      -8.934   7.002  71.719  1.00  0.00     0.000 HD 
HETATM   26  C   UNL     1      -7.126   6.703  70.002  1.00  0.00    -0.071 C  
HETATM   27  O   UNL     1      -9.289   6.538  70.971  1.00  0.00    -0.160 OA 
HETATM   28  O   UNL     1      -6.476   5.814  69.462  1.00  0.00    -0.038 OA 
ENDBRANCH  21  24
ENDBRANCH   4  21
ENDBRANCH   3   4
TORSDOF 6
ENDMDL
MODEL      221
REMARK 921   NORMALIZED FREE ENERGY PREDICTED BY IDOCK:   -3.22 KCAL/MOL
REMARK 922        TOTAL FREE ENERGY PREDICTED BY IDOCK:   -5.55 KCAL/MOL
REMARK 923 INTER-LIGAND FREE ENERGY PREDICTED BY IDOCK:   -4.52 KCAL/MOL
REMARK 924 INTRA-LIGAND FREE ENERGY PREDICTED BY IDOCK:   -1.03 KCAL/MOL
REMARK 927      BINDING AFFINITY PREDICTED BY RF-SCORE:    0.00 PKD
ROOT
HETATM    1  O   UNL     1     -12.889   8.310  72.811  1.00  0.00    -0.613 OA 
HETATM    2  H   UNL     1     -13.230   8.778  73.564  1.00  0.00     0.000 HD 
HETATM    3  C   UNL     1     -11.918   9.039  72.078  1.00  0.00    -0.363 C  
ENDROOT
BRANCH   3   4
HETATM    4  C   UNL     1     -11.363   8.278  70.851  1.00  0.00    -0.268 C  
BRANCH   4   5
HETATM    5  O   UNL     1     -10.339   8.967  70.110  1.00  0.00    -0.193 OA 
BRANCH   5   6
HETATM    6  C   UNL     1     -10.409   8.808  68.695  1.00  0.00    -0.205 C  
HETATM    7  C   UNL     1      -9.219   7.951  66.793  1.00  0.00    -0.166 C  
HETATM    8  O   UNL     1      -9.202   8.195  68.212  1.00  0.00    -0.135 OA 
HETATM    9  H   UNL     1     -11.952  11.677  68.054  1.00  0.00     0.000 HD 
HETATM   10  C   UNL     1      -9.417   9.250  65.998  1.00  0.00    -0.247 C  
HETATM   11  O   UNL     1     -11.818  10.835  68.474  1.00  0.00    -0.444 OA 
HETATM   12  O   UNL     1      -8.342  10.189  66.164  1.00  0.00    -0.125 OA 
HETATM   13  C   UNL     1     -10.697   9.940  66.485  1.00  0.00    -0.012 C  
HETATM   14  H   UNL     1      -8.465  10.993  65.672  1.00  0.00     0.000 HD 
HETATM   15  H   UNL     1     -11.701  11.575  66.047  1.00  0.00     0.000 HD 
HETATM   16  O   UNL     1     -10.907  11.148  65.746  1.00  0.00    -0.238 OA 
HETATM   17  C   UNL     1     -10.627  10.186  68.008  1.00  0.00    -0.231 C  
BRANCH   7  18
HETATM   18  C   UNL     1      -7.913   7.248  66.415  1.00  0.00    -0.112 C  
HETATM   19  O   UNL     1      -6.809   7.918  67.017  1.00  0.00    -0.069 OA 
HETATM   20  H   UNL     1      -5.999   7.482  66.783  1.00  0.00     0.000 HD 
ENDBRANCH   7  18
ENDBRANCH   5   6
ENDBRANCH   4   5
BRANCH   4  21
HETATM   21  C   UNL     1     -10.849   6.864  71.259  1.00  0.00    -0.234 C  
HETATM   22  H   UNL     1     -11.568   5.236  72.164  1.00  0.00     0.000 HD 
HETATM   23  O   UNL     1     -11.881   6.098  71.914  1.00  0.00    -0.314 OA 
BRANCH  21  24
HETATM   24  C   UNL     1      -9.647   6.914  72.208  1.00  0.00    -0.146 C  
HETATM   25  H   UNL     1      -9.170   6.129  73.950  1.00  0.00     0.000 HD 
HETATM   26  C   UNL     1      -8.364   6.388  71.586  1.00  0.00    -0.125 C  
HETATM   27  O   UNL     1      -9.915   6.098  73.362  1.00  0.00    -0.167 OA 
HETATM   28  O   UNL     1      -8.297   5.755  70.537  1.00  0.00    -0.115 OA 
ENDBRANCH  21  24
ENDBRANCH   4  21
ENDBRANCH   3   4
TORSDOF 6
ENDMDL
MODEL      222
REMARK 921   NORMALIZED FREE ENERGY PREDICTED BY IDOCK:   -3.22 KCAL/MOL
REMARK 922        TOTAL FREE ENERGY PREDICTED BY IDOCK:   -5.55 KCAL/MOL
REMARK 923 INTER-LIGAND FREE ENERGY PREDICTED BY IDOCK:   -4.78 KCAL/MOL
REMARK 924 INTRA-LIGAND FREE ENERGY PREDICTED BY IDOCK:   -0.76 KCAL/MOL
REMARK 927      BINDING AFFINITY PREDICTED BY RF-SCORE:    0.00 PKD
ROOT
HETATM    1  O   UNL     1      -8.811   7.863  68.179  1.00  0.00    -0.126 OA 
HETATM    2  H   UNL     1      -9.139   7.619  67.321  1.00  0.00     0.000 HD 
HETATM    3  C   UNL     1      -9.402   7.134  69.243  1.00  0.00    -0.146 C  
ENDROOT
BRANCH   3   4
HETATM    4  C   UNL     1      -8.869   7.531  70.640  1.00  0.00    -0.146 C  
BRANCH   4   5
HETATM    5  O   UNL     1      -9.254   8.840  71.096  1.00  0.00    -0.192 OA 
BRANCH   5   6
HETATM    6  C   UNL     1     -10.425   9.372  70.481  1.00  0.00    -0.274 C  
HETATM    7  C   UNL     1     -11.197  11.017  68.910  1.00  0.00    -0.265 C  
HETATM    8  O   UNL     1     -10.069  10.460  69.611  1.00  0.00    -0.231 OA 
HETATM    9  H   UNL     1     -12.416   9.090  73.122  1.00  0.00     0.000 HD 
HETATM   10  C   UNL     1     -12.264  11.543  69.882  1.00  0.00    -0.258 C  
HETATM   11  O   UNL     1     -11.802   8.796  72.460  1.00  0.00    -0.334 OA 
HETATM   12  O   UNL     1     -11.804  12.633  70.696  1.00  0.00    -0.513 OA 
HETATM   13  C   UNL     1     -12.671  10.410  70.832  1.00  0.00    -0.385 C  
HETATM   14  H   UNL     1     -12.464  12.959  71.297  1.00  0.00     0.000 HD 
HETATM   15  H   UNL     1     -13.930  10.176  72.327  1.00  0.00     0.000 HD 
HETATM   16  O   UNL     1     -13.677  10.878  71.739  1.00  0.00    -0.095 OA 
HETATM   17  C   UNL     1     -11.431   9.854  71.565  1.00  0.00    -0.252 C  
BRANCH   7  18
HETATM   18  C   UNL     1     -10.682  12.119  67.980  1.00  0.00    -0.213 C  
HETATM   19  O   UNL     1      -9.717  12.916  68.661  1.00  0.00    -0.372 OA 
HETATM   20  H   UNL     1      -9.397  13.600  68.084  1.00  0.00     0.000 HD 
ENDBRANCH   7  18
ENDBRANCH   5   6
ENDBRANCH   4   5
BRANCH   4  21
HETATM   21  C   UNL     1      -9.266   6.468  71.709  1.00  0.00    -0.149 C  
HETATM   22  H   UNL     1     -10.890   5.430  72.229  1.00  0.00     0.000 HD 
HETATM   23  O   UNL     1     -10.648   6.078  71.577  1.00  0.00    -0.226 OA 
BRANCH  21  24
HETATM   24  C   UNL     1      -9.067   6.959  73.146  1.00  0.00    -0.132 C  
HETATM   25  H   UNL     1     -10.128   6.991  74.804  1.00  0.00     0.000 HD 
HETATM   26  C   UNL     1      -7.912   6.278  73.863  1.00  0.00    -0.098 C  
HETATM   27  O   UNL     1     -10.252   6.686  73.914  1.00  0.00    -0.288 OA 
HETATM   28  O   UNL     1      -7.334   5.270  73.470  1.00  0.00    -0.088 OA 
ENDBRANCH  21  24
ENDBRANCH   4  21
ENDBRANCH   3   4
TORSDOF 6
ENDMDL
MODEL      223
REMARK 921   NORMALIZED FREE ENERGY PREDICTED BY IDOCK:   -3.22 KCAL/MOL
REMARK 922        TOTAL FREE ENERGY PREDICTED BY IDOCK:   -5.55 KCAL/MOL
REMARK 923 INTER-LIGAND FREE ENERGY PREDICTED BY IDOCK:   -4.41 KCAL/MOL
REMARK 924 INTRA-LIGAND FREE ENERGY PREDICTED BY IDOCK:   -1.13 KCAL/MOL
REMARK 927      BINDING AFFINITY PREDICTED BY RF-SCORE:    0.00 PKD
ROOT
HETATM    1  O   UNL     1      -8.425  15.113  66.229  1.00  0.00    -0.416 OA 
HETATM    2  H   UNL     1      -8.169  16.021  66.345  1.00  0.00     0.000 HD 
HETATM    3  C   UNL     1      -8.358  14.346  67.421  1.00  0.00    -0.201 C  
ENDROOT
BRANCH   3   4
HETATM    4  C   UNL     1      -8.775  12.868  67.234  1.00  0.00    -0.204 C  
BRANCH   4   5
HETATM    5  O   UNL     1      -8.703  12.053  68.418  1.00  0.00    -0.173 OA 
BRANCH   5   6
HETATM    6  C   UNL     1      -8.267  10.714  68.203  1.00  0.00    -0.116 C  
HETATM    7  C   UNL     1      -9.010   8.430  68.156  1.00  0.00    -0.139 C  
HETATM    8  O   UNL     1      -9.361   9.804  68.408  1.00  0.00    -0.132 OA 
HETATM    9  H   UNL     1      -5.265  11.054  69.579  1.00  0.00     0.000 HD 
HETATM   10  C   UNL     1      -7.859   7.965  69.059  1.00  0.00    -0.110 C  
HETATM   11  O   UNL     1      -5.983  11.264  68.994  1.00  0.00    -0.041 OA 
HETATM   12  O   UNL     1      -8.191   7.974  70.456  1.00  0.00    -0.112 OA 
HETATM   13  C   UNL     1      -6.668   8.913  68.872  1.00  0.00    -0.053 C  
HETATM   14  H   UNL     1      -7.479   7.687  71.015  1.00  0.00     0.000 HD 
HETATM   15  H   UNL     1      -4.839   9.074  69.581  1.00  0.00     0.000 HD 
HETATM   16  O   UNL     1      -5.577   8.487  69.697  1.00  0.00    -0.029 OA 
HETATM   17  C   UNL     1      -7.092  10.369  69.162  1.00  0.00    -0.080 C  
BRANCH   7  18
HETATM   18  C   UNL     1     -10.266   7.576  68.350  1.00  0.00    -0.185 C  
HETATM   19  O   UNL     1     -11.060   8.113  69.405  1.00  0.00    -0.436 OA 
HETATM   20  H   UNL     1     -11.839   7.583  69.525  1.00  0.00     0.000 HD 
ENDBRANCH   7  18
ENDBRANCH   5   6
ENDBRANCH   4   5
BRANCH   4  21
HETATM   21  C   UNL     1     -10.202  12.767  66.616  1.00  0.00    -0.238 C  
HETATM   22  H   UNL     1     -11.114  13.273  64.914  1.00  0.00     0.000 HD 
HETATM   23  O   UNL     1     -10.243  13.334  65.291  1.00  0.00    -0.303 OA 
BRANCH  21  24
HETATM   24  C   UNL     1     -11.269  13.482  67.450  1.00  0.00    -0.295 C  
HETATM   25  H   UNL     1     -12.847  14.604  67.093  1.00  0.00     0.000 HD 
HETATM   26  C   UNL     1     -12.098  12.539  68.309  1.00  0.00    -0.069 C  
HETATM   27  O   UNL     1     -12.186  14.161  66.575  1.00  0.00    -0.445 OA 
HETATM   28  O   UNL     1     -12.118  11.317  68.195  1.00  0.00    -0.635 OA 
ENDBRANCH  21  24
ENDBRANCH   4  21
ENDBRANCH   3   4
TORSDOF 6
ENDMDL
MODEL      224
REMARK 921   NORMALIZED FREE ENERGY PREDICTED BY IDOCK:   -3.20 KCAL/MOL
REMARK 922        TOTAL FREE ENERGY PREDICTED BY IDOCK:   -5.52 KCAL/MOL
REMARK 923 INTER-LIGAND FREE ENERGY PREDICTED BY IDOCK:   -6.07 KCAL/MOL
REMARK 924 INTRA-LIGAND FREE ENERGY PREDICTED BY IDOCK:    0.55 KCAL/MOL
REMARK 927      BINDING AFFINITY PREDICTED BY RF-SCORE:    0.00 PKD
ROOT
HETATM    1  O   UNL     1      -8.518  15.173  67.531  1.00  0.00    -0.152 OA 
HETATM    2  H   UNL     1      -8.205  15.850  66.941  1.00  0.00     0.000 HD 
HETATM    3  C   UNL     1      -9.125  14.075  66.869  1.00  0.00    -0.248 C  
ENDROOT
BRANCH   3   4
HETATM    4  C   UNL     1      -9.634  12.974  67.829  1.00  0.00    -0.208 C  
BRANCH   4   5
HETATM    5  O   UNL     1     -11.017  12.609  67.670  1.00  0.00    -0.227 OA 
BRANCH   5   6
HETATM    6  C   UNL     1     -11.370  12.138  66.371  1.00  0.00    -0.356 C  
HETATM    7  C   UNL     1     -10.553  10.889  64.488  1.00  0.00    -0.265 C  
HETATM    8  O   UNL     1     -10.256  11.443  65.784  1.00  0.00    -0.231 OA 
HETATM    9  H   UNL     1     -13.169  14.778  65.473  1.00  0.00     0.000 HD 
HETATM   10  C   UNL     1     -10.984  11.977  63.494  1.00  0.00    -0.444 C  
HETATM   11  O   UNL     1     -12.905  14.052  66.025  1.00  0.00    -0.438 OA 
HETATM   12  O   UNL     1      -9.953  12.938  63.218  1.00  0.00    -0.487 OA 
HETATM   13  C   UNL     1     -12.172  12.747  64.084  1.00  0.00    -0.429 C  
HETATM   14  H   UNL     1     -10.219  13.611  62.603  1.00  0.00     0.000 HD 
HETATM   15  H   UNL     1     -13.335  14.235  63.528  1.00  0.00     0.000 HD 
HETATM   16  O   UNL     1     -12.598  13.758  63.163  1.00  0.00    -0.793 OA 
HETATM   17  C   UNL     1     -11.801  13.327  65.466  1.00  0.00    -0.370 C  
BRANCH   7  18
HETATM   18  C   UNL     1      -9.317  10.130  64.001  1.00  0.00    -0.287 C  
HETATM   19  O   UNL     1      -9.097   8.983  64.817  1.00  0.00    -0.407 OA 
HETATM   20  H   UNL     1      -8.330   8.512  64.515  1.00  0.00     0.000 HD 
ENDBRANCH   7  18
ENDBRANCH   5   6
ENDBRANCH   4   5
BRANCH   4  21
HETATM   21  C   UNL     1      -8.743  11.699  67.734  1.00  0.00    -0.152 C  
HETATM   22  H   UNL     1      -8.196  10.187  68.918  1.00  0.00     0.000 HD 
HETATM   23  O   UNL     1      -8.739  10.965  68.976  1.00  0.00    -0.159 OA 
BRANCH  21  24
HETATM   24  C   UNL     1      -7.283  12.012  67.387  1.00  0.00    -0.144 C  
HETATM   25  H   UNL     1      -5.642  12.452  68.381  1.00  0.00     0.000 HD 
HETATM   26  C   UNL     1      -6.577  10.875  66.664  1.00  0.00    -0.120 C  
HETATM   27  O   UNL     1      -6.546  12.258  68.596  1.00  0.00    -0.067 OA 
HETATM   28  O   UNL     1      -7.003   9.729  66.569  1.00  0.00    -0.083 OA 
ENDBRANCH  21  24
ENDBRANCH   4  21
ENDBRANCH   3   4
TORSDOF 6
ENDMDL
MODEL      225
REMARK 921   NORMALIZED FREE ENERGY PREDICTED BY IDOCK:   -3.19 KCAL/MOL
REMARK 922        TOTAL FREE ENERGY PREDICTED BY IDOCK:   -5.51 KCAL/MOL
REMARK 923 INTER-LIGAND FREE ENERGY PREDICTED BY IDOCK:   -5.29 KCAL/MOL
REMARK 924 INTRA-LIGAND FREE ENERGY PREDICTED BY IDOCK:   -0.22 KCAL/MOL
REMARK 927      BINDING AFFINITY PREDICTED BY RF-SCORE:    0.00 PKD
ROOT
HETATM    1  O   UNL     1     -10.660  17.844  68.141  1.00  0.00    -0.387 OA 
HETATM    2  H   UNL     1     -11.239  18.531  68.453  1.00  0.00     0.000 HD 
HETATM    3  C   UNL     1      -9.312  18.004  68.553  1.00  0.00    -0.304 C  
ENDROOT
BRANCH   3   4
HETATM    4  C   UNL     1      -8.369  16.887  68.045  1.00  0.00    -0.204 C  
BRANCH   4   5
HETATM    5  O   UNL     1      -8.931  16.015  67.048  1.00  0.00    -0.196 OA 
BRANCH   5   6
HETATM    6  C   UNL     1      -9.232  14.697  67.501  1.00  0.00    -0.192 C  
HETATM    7  C   UNL     1      -8.351  12.468  67.661  1.00  0.00    -0.172 C  
HETATM    8  O   UNL     1      -8.144  13.811  67.185  1.00  0.00    -0.157 OA 
HETATM    9  H   UNL     1     -12.460  14.746  66.731  1.00  0.00     0.000 HD 
HETATM   10  C   UNL     1      -9.626  11.849  67.069  1.00  0.00    -0.189 C  
HETATM   11  O   UNL     1     -11.656  15.056  67.131  1.00  0.00    -0.342 OA 
HETATM   12  O   UNL     1      -9.576  11.695  65.642  1.00  0.00    -0.228 OA 
HETATM   13  C   UNL     1     -10.815  12.766  67.382  1.00  0.00    -0.240 C  
HETATM   14  H   UNL     1     -10.365  11.312  65.276  1.00  0.00     0.000 HD 
HETATM   15  H   UNL     1     -12.754  12.767  67.045  1.00  0.00     0.000 HD 
HETATM   16  O   UNL     1     -12.017  12.199  66.850  1.00  0.00    -0.603 OA 
HETATM   17  C   UNL     1     -10.548  14.189  66.846  1.00  0.00    -0.280 C  
BRANCH   7  18
HETATM   18  C   UNL     1      -7.107  11.644  67.317  1.00  0.00    -0.134 C  
HETATM   19  O   UNL     1      -6.226  12.414  66.504  1.00  0.00    -0.439 OA 
HETATM   20  H   UNL     1      -5.454  11.903  66.290  1.00  0.00     0.000 HD 
ENDBRANCH   7  18
ENDBRANCH   5   6
ENDBRANCH   4   5
BRANCH   4  21
HETATM   21  C   UNL     1      -7.029  17.486  67.521  1.00  0.00    -0.167 C  
HETATM   22  H   UNL     1      -5.594  16.986  66.228  1.00  0.00     0.000 HD 
HETATM   23  O   UNL     1      -6.411  16.621  66.547  1.00  0.00    -0.273 OA 
BRANCH  21  24
HETATM   24  C   UNL     1      -6.003  17.724  68.634  1.00  0.00    -0.189 C  
HETATM   25  H   UNL     1      -5.816  18.946  70.166  1.00  0.00     0.000 HD 
HETATM   26  C   UNL     1      -5.796  16.516  69.534  1.00  0.00    -0.178 C  
HETATM   27  O   UNL     1      -6.452  18.799  69.477  1.00  0.00    -0.268 OA 
HETATM   28  O   UNL     1      -6.521  15.527  69.564  1.00  0.00    -0.144 OA 
ENDBRANCH  21  24
ENDBRANCH   4  21
ENDBRANCH   3   4
TORSDOF 6
ENDMDL
MODEL      226
REMARK 921   NORMALIZED FREE ENERGY PREDICTED BY IDOCK:   -3.19 KCAL/MOL
REMARK 922        TOTAL FREE ENERGY PREDICTED BY IDOCK:   -5.51 KCAL/MOL
REMARK 923 INTER-LIGAND FREE ENERGY PREDICTED BY IDOCK:   -4.64 KCAL/MOL
REMARK 924 INTRA-LIGAND FREE ENERGY PREDICTED BY IDOCK:   -0.87 KCAL/MOL
REMARK 927      BINDING AFFINITY PREDICTED BY RF-SCORE:    0.00 PKD
ROOT
HETATM    1  O   UNL     1     -12.155   6.779  69.588  1.00  0.00    -0.635 OA 
HETATM    2  H   UNL     1     -12.294   7.011  70.499  1.00  0.00     0.000 HD 
HETATM    3  C   UNL     1     -10.837   6.337  69.306  1.00  0.00    -0.342 C  
ENDROOT
BRANCH   3   4
HETATM    4  C   UNL     1     -10.611   5.960  67.823  1.00  0.00    -0.259 C  
BRANCH   4   5
HETATM    5  O   UNL     1     -10.837   7.020  66.877  1.00  0.00    -0.354 OA 
BRANCH   5   6
HETATM    6  C   UNL     1     -10.193   8.253  67.189  1.00  0.00    -0.295 C  
HETATM    7  C   UNL     1     -10.547  10.415  68.175  1.00  0.00    -0.211 C  
HETATM    8  O   UNL     1     -11.138   9.162  67.782  1.00  0.00    -0.079 OA 
HETATM    9  H   UNL     1      -8.257   8.376  64.495  1.00  0.00     0.000 HD 
HETATM   10  C   UNL     1      -9.910  11.139  66.980  1.00  0.00    -0.185 C  
HETATM   11  O   UNL     1      -8.635   7.994  65.279  1.00  0.00    -0.153 OA 
HETATM   12  O   UNL     1     -10.858  11.518  65.971  1.00  0.00    -0.280 OA 
HETATM   13  C   UNL     1      -8.894  10.201  66.315  1.00  0.00    -0.148 C  
HETATM   14  H   UNL     1     -10.464  11.966  65.231  1.00  0.00     0.000 HD 
HETATM   15  H   UNL     1      -7.647  10.284  64.795  1.00  0.00     0.000 HD 
HETATM   16  O   UNL     1      -8.277  10.865  65.206  1.00  0.00    -0.103 OA 
HETATM   17  C   UNL     1      -9.576   8.878  65.906  1.00  0.00    -0.223 C  
BRANCH   7  18
HETATM   18  C   UNL     1     -11.634  11.264  68.840  1.00  0.00    -0.319 C  
HETATM   19  O   UNL     1     -11.184  11.715  70.115  1.00  0.00    -0.493 OA 
HETATM   20  H   UNL     1     -11.858  12.242  70.528  1.00  0.00     0.000 HD 
ENDBRANCH   7  18
ENDBRANCH   5   6
ENDBRANCH   4   5
BRANCH   4  21
HETATM   21  C   UNL     1      -9.185   5.366  67.612  1.00  0.00    -0.112 C  
HETATM   22  H   UNL     1      -8.376   3.621  67.079  1.00  0.00     0.000 HD 
HETATM   23  O   UNL     1      -9.245   3.983  67.208  1.00  0.00    -0.139 OA 
BRANCH  21  24
HETATM   24  C   UNL     1      -8.314   5.435  68.870  1.00  0.00    -0.100 C  
HETATM   25  H   UNL     1      -7.165   4.197  69.881  1.00  0.00     0.000 HD 
HETATM   26  C   UNL     1      -7.185   6.448  68.768  1.00  0.00    -0.085 C  
HETATM   27  O   UNL     1      -7.704   4.154  69.101  1.00  0.00    -0.054 OA 
HETATM   28  O   UNL     1      -6.817   6.991  67.731  1.00  0.00    -0.068 OA 
ENDBRANCH  21  24
ENDBRANCH   4  21
ENDBRANCH   3   4
TORSDOF 6
ENDMDL
MODEL      227
REMARK 921   NORMALIZED FREE ENERGY PREDICTED BY IDOCK:   -3.18 KCAL/MOL
REMARK 922        TOTAL FREE ENERGY PREDICTED BY IDOCK:   -5.50 KCAL/MOL
REMARK 923 INTER-LIGAND FREE ENERGY PREDICTED BY IDOCK:   -4.40 KCAL/MOL
REMARK 924 INTRA-LIGAND FREE ENERGY PREDICTED BY IDOCK:   -1.11 KCAL/MOL
REMARK 927      BINDING AFFINITY PREDICTED BY RF-SCORE:    0.00 PKD
ROOT
HETATM    1  O   UNL     1     -11.587   6.399  69.420  1.00  0.00    -0.600 OA 
HETATM    2  H   UNL     1     -12.087   5.596  69.329  1.00  0.00     0.000 HD 
HETATM    3  C   UNL     1     -11.132   6.930  68.185  1.00  0.00    -0.084 C  
ENDROOT
BRANCH   3   4
HETATM    4  C   UNL     1     -10.318   8.238  68.333  1.00  0.00    -0.199 C  
BRANCH   4   5
HETATM    5  O   UNL     1      -8.889   8.074  68.356  1.00  0.00    -0.134 OA 
BRANCH   5   6
HETATM    6  C   UNL     1      -8.353   7.634  69.602  1.00  0.00    -0.130 C  
HETATM    7  C   UNL     1      -8.210   5.743  71.076  1.00  0.00    -0.122 C  
HETATM    8  O   UNL     1      -8.758   6.278  69.856  1.00  0.00    -0.138 OA 
HETATM    9  H   UNL     1      -8.746  10.499  71.230  1.00  0.00     0.000 HD 
HETATM   10  C   UNL     1      -8.626   6.576  72.297  1.00  0.00    -0.123 C  
HETATM   11  O   UNL     1      -8.455   9.931  70.528  1.00  0.00    -0.153 OA 
HETATM   12  O   UNL     1     -10.042   6.571  72.535  1.00  0.00    -0.171 OA 
HETATM   13  C   UNL     1      -8.213   8.036  72.065  1.00  0.00    -0.137 C  
HETATM   14  H   UNL     1     -10.299   7.087  73.291  1.00  0.00     0.000 HD 
HETATM   15  H   UNL     1      -8.324   9.732  73.057  1.00  0.00     0.000 HD 
HETATM   16  O   UNL     1      -8.580   8.828  73.200  1.00  0.00    -0.366 OA 
HETATM   17  C   UNL     1      -8.831   8.565  70.753  1.00  0.00    -0.161 C  
BRANCH   7  18
HETATM   18  C   UNL     1      -8.663   4.286  71.202  1.00  0.00    -0.101 C  
HETATM   19  O   UNL     1     -10.024   4.164  70.796  1.00  0.00    -0.194 OA 
HETATM   20  H   UNL     1     -10.305   3.261  70.873  1.00  0.00     0.000 HD 
ENDBRANCH   7  18
ENDBRANCH   5   6
ENDBRANCH   4   5
BRANCH   4  21
HETATM   21  C   UNL     1     -10.709   9.263  67.225  1.00  0.00    -0.174 C  
HETATM   22  H   UNL     1     -10.320   9.568  65.292  1.00  0.00     0.000 HD 
HETATM   23  O   UNL     1     -10.082   8.943  65.967  1.00  0.00    -0.260 OA 
BRANCH  21  24
HETATM   24  C   UNL     1     -10.318  10.702  67.576  1.00  0.00    -0.214 C  
HETATM   25  H   UNL     1     -10.166  12.414  66.616  1.00  0.00     0.000 HD 
HETATM   26  C   UNL     1     -11.220  11.335  68.624  1.00  0.00    -0.250 C  
HETATM   27  O   UNL     1     -10.409  11.523  66.399  1.00  0.00    -0.223 OA 
HETATM   28  O   UNL     1     -12.298  10.880  68.994  1.00  0.00    -0.464 OA 
ENDBRANCH  21  24
ENDBRANCH   4  21
ENDBRANCH   3   4
TORSDOF 6
ENDMDL
MODEL      228
REMARK 921   NORMALIZED FREE ENERGY PREDICTED BY IDOCK:   -3.17 KCAL/MOL
REMARK 922        TOTAL FREE ENERGY PREDICTED BY IDOCK:   -5.48 KCAL/MOL
REMARK 923 INTER-LIGAND FREE ENERGY PREDICTED BY IDOCK:   -4.56 KCAL/MOL
REMARK 924 INTRA-LIGAND FREE ENERGY PREDICTED BY IDOCK:   -0.93 KCAL/MOL
REMARK 927      BINDING AFFINITY PREDICTED BY RF-SCORE:    0.00 PKD
ROOT
HETATM    1  O   UNL     1      -6.354  10.562  67.777  1.00  0.00    -0.059 OA 
HETATM    2  H   UNL     1      -5.541  10.324  67.346  1.00  0.00     0.000 HD 
HETATM    3  C   UNL     1      -7.471   9.799  67.351  1.00  0.00    -0.091 C  
ENDROOT
BRANCH   3   4
HETATM    4  C   UNL     1      -8.794  10.186  68.054  1.00  0.00    -0.125 C  
BRANCH   4   5
HETATM    5  O   UNL     1      -9.802  10.755  67.198  1.00  0.00    -0.178 OA 
BRANCH   5   6
HETATM    6  C   UNL     1      -9.760  12.176  67.082  1.00  0.00    -0.199 C  
HETATM    7  C   UNL     1      -8.494  14.122  67.698  1.00  0.00    -0.185 C  
HETATM    8  O   UNL     1      -8.635  12.693  67.812  1.00  0.00    -0.157 OA 
HETATM    9  H   UNL     1     -13.037  12.677  67.240  1.00  0.00     0.000 HD 
HETATM   10  C   UNL     1      -9.742  14.856  68.208  1.00  0.00    -0.215 C  
HETATM   11  O   UNL     1     -12.230  12.297  66.915  1.00  0.00    -0.530 OA 
HETATM   12  O   UNL     1      -9.989  14.655  69.609  1.00  0.00    -0.423 OA 
HETATM   13  C   UNL     1     -10.971  14.330  67.454  1.00  0.00    -0.295 C  
HETATM   14  H   UNL     1     -10.762  15.109  69.925  1.00  0.00     0.000 HD 
HETATM   15  H   UNL     1     -12.905  14.689  67.439  1.00  0.00     0.000 HD 
HETATM   16  O   UNL     1     -12.145  15.014  67.907  1.00  0.00    -0.218 OA 
HETATM   17  C   UNL     1     -11.082  12.799  67.614  1.00  0.00    -0.258 C  
BRANCH   7  18
HETATM   18  C   UNL     1      -7.236  14.538  68.465  1.00  0.00    -0.120 C  
HETATM   19  O   UNL     1      -7.206  13.892  69.734  1.00  0.00    -0.341 OA 
HETATM   20  H   UNL     1      -6.426  14.150  70.210  1.00  0.00     0.000 HD 
ENDBRANCH   7  18
ENDBRANCH   5   6
ENDBRANCH   4   5
BRANCH   4  21
HETATM   21  C   UNL     1      -9.390   8.969  68.825  1.00  0.00    -0.140 C  
HETATM   22  H   UNL     1     -10.830   7.613  68.559  1.00  0.00     0.000 HD 
HETATM   23  O   UNL     1     -10.467   8.355  68.088  1.00  0.00    -0.212 OA 
BRANCH  21  24
HETATM   24  C   UNL     1      -9.939   9.345  70.205  1.00  0.00    -0.237 C  
HETATM   25  H   UNL     1     -11.702   9.763  70.975  1.00  0.00     0.000 HD 
HETATM   26  C   UNL     1      -9.696   8.279  71.262  1.00  0.00    -0.176 C  
HETATM   27  O   UNL     1     -11.362   9.530  70.120  1.00  0.00    -0.239 OA 
HETATM   28  O   UNL     1      -9.332   7.130  71.034  1.00  0.00    -0.158 OA 
ENDBRANCH  21  24
ENDBRANCH   4  21
ENDBRANCH   3   4
TORSDOF 6
ENDMDL
MODEL      229
REMARK 921   NORMALIZED FREE ENERGY PREDICTED BY IDOCK:   -3.16 KCAL/MOL
REMARK 922        TOTAL FREE ENERGY PREDICTED BY IDOCK:   -5.48 KCAL/MOL
REMARK 923 INTER-LIGAND FREE ENERGY PREDICTED BY IDOCK:   -4.38 KCAL/MOL
REMARK 924 INTRA-LIGAND FREE ENERGY PREDICTED BY IDOCK:   -1.09 KCAL/MOL
REMARK 927      BINDING AFFINITY PREDICTED BY RF-SCORE:    0.00 PKD
ROOT
HETATM    1  O   UNL     1      -5.700   8.807  69.015  1.00  0.00    -0.038 OA 
HETATM    2  H   UNL     1      -4.971   9.324  68.694  1.00  0.00     0.000 HD 
HETATM    3  C   UNL     1      -6.912   9.032  68.312  1.00  0.00    -0.076 C  
ENDROOT
BRANCH   3   4
HETATM    4  C   UNL     1      -8.100   8.190  68.834  1.00  0.00    -0.116 C  
BRANCH   4   5
HETATM    5  O   UNL     1      -9.406   8.690  68.494  1.00  0.00    -0.138 OA 
BRANCH   5   6
HETATM    6  C   UNL     1     -10.015   9.510  69.488  1.00  0.00    -0.194 C  
HETATM    7  C   UNL     1     -11.575   9.484  71.314  1.00  0.00    -0.374 C  
HETATM    8  O   UNL     1     -10.956   8.736  70.251  1.00  0.00    -0.237 OA 
HETATM    9  H   UNL     1     -10.253  12.257  67.640  1.00  0.00     0.000 HD 
HETATM   10  C   UNL     1     -12.326  10.712  70.779  1.00  0.00    -0.376 C  
HETATM   11  O   UNL     1      -9.819  11.515  68.045  1.00  0.00    -0.176 OA 
HETATM   12  O   UNL     1     -13.428  10.376  69.920  1.00  0.00    -0.422 OA 
HETATM   13  C   UNL     1     -11.356  11.567  69.954  1.00  0.00    -0.186 C  
HETATM   14  H   UNL     1     -13.893  11.136  69.589  1.00  0.00     0.000 HD 
HETATM   15  H   UNL     1     -11.434  13.256  68.947  1.00  0.00     0.000 HD 
HETATM   16  O   UNL     1     -12.035  12.726  69.457  1.00  0.00    -0.309 OA 
HETATM   17  C   UNL     1     -10.726  10.724  68.825  1.00  0.00    -0.208 C  
BRANCH   7  18
HETATM   18  C   UNL     1     -12.504   8.540  72.082  1.00  0.00    -0.379 C  
HETATM   19  O   UNL     1     -13.106   7.614  71.182  1.00  0.00    -0.523 OA 
HETATM   20  H   UNL     1     -13.682   7.028  71.658  1.00  0.00     0.000 HD 
ENDBRANCH   7  18
ENDBRANCH   5   6
ENDBRANCH   4   5
BRANCH   4  21
HETATM   21  C   UNL     1      -7.974   6.706  68.375  1.00  0.00    -0.111 C  
HETATM   22  H   UNL     1      -6.696   5.190  68.612  1.00  0.00     0.000 HD 
HETATM   23  O   UNL     1      -6.774   6.095  68.892  1.00  0.00    -0.055 OA 
BRANCH  21  24
HETATM   24  C   UNL     1      -7.943   6.550  66.851  1.00  0.00    -0.112 C  
HETATM   25  H   UNL     1      -6.684   5.843  65.512  1.00  0.00     0.000 HD 
HETATM   26  C   UNL     1      -9.058   5.667  66.312  1.00  0.00    -0.148 C  
HETATM   27  O   UNL     1      -6.703   5.940  66.457  1.00  0.00    -0.054 OA 
HETATM   28  O   UNL     1      -9.773   4.939  66.993  1.00  0.00    -0.150 OA 
ENDBRANCH  21  24
ENDBRANCH   4  21
ENDBRANCH   3   4
TORSDOF 6
ENDMDL
MODEL      230
REMARK 921   NORMALIZED FREE ENERGY PREDICTED BY IDOCK:   -3.16 KCAL/MOL
REMARK 922        TOTAL FREE ENERGY PREDICTED BY IDOCK:   -5.47 KCAL/MOL
REMARK 923 INTER-LIGAND FREE ENERGY PREDICTED BY IDOCK:   -5.58 KCAL/MOL
REMARK 924 INTRA-LIGAND FREE ENERGY PREDICTED BY IDOCK:    0.11 KCAL/MOL
REMARK 927      BINDING AFFINITY PREDICTED BY RF-SCORE:    0.00 PKD
ROOT
HETATM    1  O   UNL     1      -7.823  19.401  68.557  1.00  0.00    -0.330 OA 
HETATM    2  H   UNL     1      -7.016  19.883  68.697  1.00  0.00     0.000 HD 
HETATM    3  C   UNL     1      -7.626  18.103  68.019  1.00  0.00    -0.242 C  
ENDROOT
BRANCH   3   4
HETATM    4  C   UNL     1      -8.939  17.317  67.791  1.00  0.00    -0.234 C  
BRANCH   4   5
HETATM    5  O   UNL     1      -8.994  16.018  68.406  1.00  0.00    -0.179 OA 
BRANCH   5   6
HETATM    6  C   UNL     1      -9.055  14.922  67.496  1.00  0.00    -0.183 C  
HETATM    7  C   UNL     1     -10.570  13.533  66.254  1.00  0.00    -0.288 C  
HETATM    8  O   UNL     1     -10.427  14.599  67.212  1.00  0.00    -0.262 OA 
HETATM    9  H   UNL     1      -6.500  13.221  68.759  1.00  0.00     0.000 HD 
HETATM   10  C   UNL     1      -9.891  12.243  66.737  1.00  0.00    -0.209 C  
HETATM   11  O   UNL     1      -6.949  13.975  68.396  1.00  0.00    -0.083 OA 
HETATM   12  O   UNL     1     -10.477  11.702  67.931  1.00  0.00    -0.183 OA 
HETATM   13  C   UNL     1      -8.421  12.545  67.054  1.00  0.00    -0.161 C  
HETATM   14  H   UNL     1     -10.057  10.904  68.230  1.00  0.00     0.000 HD 
HETATM   15  H   UNL     1      -6.854  11.537  67.689  1.00  0.00     0.000 HD 
HETATM   16  O   UNL     1      -7.765  11.350  67.494  1.00  0.00    -0.114 OA 
HETATM   17  C   UNL     1      -8.320  13.687  68.089  1.00  0.00    -0.166 C  
BRANCH   7  18
HETATM   18  C   UNL     1     -12.065  13.325  65.996  1.00  0.00    -0.436 C  
HETATM   19  O   UNL     1     -12.484  14.133  64.899  1.00  0.00    -0.511 OA 
HETATM   20  H   UNL     1     -13.412  14.004  64.739  1.00  0.00     0.000 HD 
ENDBRANCH   7  18
ENDBRANCH   5   6
ENDBRANCH   4   5
BRANCH   4  21
HETATM   21  C   UNL     1     -10.174  18.158  68.236  1.00  0.00    -0.389 C  
HETATM   22  H   UNL     1     -11.974  17.831  69.034  1.00  0.00     0.000 HD 
HETATM   23  O   UNL     1     -11.221  17.318  68.763  1.00  0.00    -0.040 OA 
BRANCH  21  24
HETATM   24  C   UNL     1     -10.781  18.982  67.095  1.00  0.00    -0.456 C  
HETATM   25  H   UNL     1     -10.421  20.716  66.237  1.00  0.00     0.000 HD 
HETATM   26  C   UNL     1     -10.740  18.273  65.750  1.00  0.00    -0.107 C  
HETATM   27  O   UNL     1     -10.044  20.206  66.943  1.00  0.00    -0.426 OA 
HETATM   28  O   UNL     1     -10.083  17.267  65.504  1.00  0.00    -0.581 OA 
ENDBRANCH  21  24
ENDBRANCH   4  21
ENDBRANCH   3   4
TORSDOF 6
ENDMDL
MODEL      231
REMARK 921   NORMALIZED FREE ENERGY PREDICTED BY IDOCK:   -3.16 KCAL/MOL
REMARK 922        TOTAL FREE ENERGY PREDICTED BY IDOCK:   -5.47 KCAL/MOL
REMARK 923 INTER-LIGAND FREE ENERGY PREDICTED BY IDOCK:   -5.24 KCAL/MOL
REMARK 924 INTRA-LIGAND FREE ENERGY PREDICTED BY IDOCK:   -0.23 KCAL/MOL
REMARK 927      BINDING AFFINITY PREDICTED BY RF-SCORE:    0.00 PKD
ROOT
HETATM    1  O   UNL     1      -8.872   8.602  73.086  1.00  0.00    -0.343 OA 
HETATM    2  H   UNL     1      -8.418   8.781  73.902  1.00  0.00     0.000 HD 
HETATM    3  C   UNL     1      -8.065   7.958  72.113  1.00  0.00    -0.124 C  
ENDROOT
BRANCH   3   4
HETATM    4  C   UNL     1      -8.804   7.666  70.786  1.00  0.00    -0.144 C  
BRANCH   4   5
HETATM    5  O   UNL     1      -8.589   8.628  69.737  1.00  0.00    -0.125 OA 
BRANCH   5   6
HETATM    6  C   UNL     1      -9.353   9.826  69.853  1.00  0.00    -0.231 C  
HETATM    7  C   UNL     1     -11.453  10.704  70.622  1.00  0.00    -0.281 C  
HETATM    8  O   UNL     1     -10.641   9.531  70.423  1.00  0.00    -0.233 OA 
HETATM    9  H   UNL     1      -8.356  11.205  67.003  1.00  0.00     0.000 HD 
HETATM   10  C   UNL     1     -11.701  11.451  69.303  1.00  0.00    -0.337 C  
HETATM   11  O   UNL     1      -8.254  10.795  67.855  1.00  0.00    -0.110 OA 
HETATM   12  O   UNL     1     -12.448  10.684  68.345  1.00  0.00    -0.593 OA 
HETATM   13  C   UNL     1     -10.349  11.783  68.659  1.00  0.00    -0.214 C  
HETATM   14  H   UNL     1     -12.601  11.146  67.529  1.00  0.00     0.000 HD 
HETATM   15  H   UNL     1      -9.721  12.700  67.035  1.00  0.00     0.000 HD 
HETATM   16  O   UNL     1     -10.559  12.494  67.434  1.00  0.00    -0.220 OA 
HETATM   17  C   UNL     1      -9.520  10.496  68.460  1.00  0.00    -0.164 C  
BRANCH   7  18
HETATM   18  C   UNL     1     -12.764  10.267  71.282  1.00  0.00    -0.421 C  
HETATM   19  O   UNL     1     -13.265  11.315  72.107  1.00  0.00    -0.579 OA 
HETATM   20  H   UNL     1     -14.078  11.044  72.517  1.00  0.00     0.000 HD 
ENDBRANCH   7  18
ENDBRANCH   5   6
ENDBRANCH   4   5
BRANCH   4  21
HETATM   21  C   UNL     1      -8.464   6.238  70.262  1.00  0.00    -0.134 C  
HETATM   22  H   UNL     1      -7.609   5.419  68.655  1.00  0.00     0.000 HD 
HETATM   23  O   UNL     1      -7.816   6.289  68.975  1.00  0.00    -0.105 OA 
BRANCH  21  24
HETATM   24  C   UNL     1      -9.699   5.343  70.115  1.00  0.00    -0.188 C  
HETATM   25  H   UNL     1     -11.230   4.826  71.239  1.00  0.00     0.000 HD 
HETATM   26  C   UNL     1     -10.631   5.779  68.995  1.00  0.00    -0.281 C  
HETATM   27  O   UNL     1     -10.465   5.380  71.331  1.00  0.00    -0.223 OA 
HETATM   28  O   UNL     1     -10.576   6.857  68.412  1.00  0.00    -0.193 OA 
ENDBRANCH  21  24
ENDBRANCH   4  21
ENDBRANCH   3   4
TORSDOF 6
ENDMDL
MODEL      232
REMARK 921   NORMALIZED FREE ENERGY PREDICTED BY IDOCK:   -3.16 KCAL/MOL
REMARK 922        TOTAL FREE ENERGY PREDICTED BY IDOCK:   -5.47 KCAL/MOL
REMARK 923 INTER-LIGAND FREE ENERGY PREDICTED BY IDOCK:   -4.52 KCAL/MOL
REMARK 924 INTRA-LIGAND FREE ENERGY PREDICTED BY IDOCK:   -0.95 KCAL/MOL
REMARK 927      BINDING AFFINITY PREDICTED BY RF-SCORE:    0.00 PKD
ROOT
HETATM    1  O   UNL     1      -5.752  17.744  66.976  1.00  0.00    -0.129 OA 
HETATM    2  H   UNL     1      -4.856  17.860  66.681  1.00  0.00     0.000 HD 
HETATM    3  C   UNL     1      -6.188  16.394  66.963  1.00  0.00    -0.120 C  
ENDROOT
BRANCH   3   4
HETATM    4  C   UNL     1      -7.646  16.205  67.443  1.00  0.00    -0.163 C  
BRANCH   4   5
HETATM    5  O   UNL     1      -7.846  15.153  68.405  1.00  0.00    -0.119 OA 
BRANCH   5   6
HETATM    6  C   UNL     1      -8.483  13.984  67.895  1.00  0.00    -0.170 C  
HETATM    7  C   UNL     1     -10.500  12.684  68.013  1.00  0.00    -0.224 C  
HETATM    8  O   UNL     1      -9.770  13.819  68.517  1.00  0.00    -0.225 OA 
HETATM    9  H   UNL     1      -5.756  12.102  67.708  1.00  0.00     0.000 HD 
HETATM   10  C   UNL     1      -9.724  11.375  68.220  1.00  0.00    -0.202 C  
HETATM   11  O   UNL     1      -6.298  12.866  67.553  1.00  0.00    -0.149 OA 
HETATM   12  O   UNL     1      -9.513  11.050  69.603  1.00  0.00    -0.375 OA 
HETATM   13  C   UNL     1      -8.340  11.510  67.572  1.00  0.00    -0.143 C  
HETATM   14  H   UNL     1      -9.033  10.239  69.731  1.00  0.00     0.000 HD 
HETATM   15  H   UNL     1      -6.749  10.376  67.340  1.00  0.00     0.000 HD 
HETATM   16  O   UNL     1      -7.606  10.292  67.742  1.00  0.00    -0.089 OA 
HETATM   17  C   UNL     1      -7.596  12.732  68.150  1.00  0.00    -0.134 C  
BRANCH   7  18
HETATM   18  C   UNL     1     -11.864  12.652  68.706  1.00  0.00    -0.300 C  
HETATM   19  O   UNL     1     -11.692  12.709  70.120  1.00  0.00    -0.497 OA 
HETATM   20  H   UNL     1     -12.539  12.689  70.550  1.00  0.00     0.000 HD 
ENDBRANCH   7  18
ENDBRANCH   5   6
ENDBRANCH   4   5
BRANCH   4  21
HETATM   21  C   UNL     1      -8.225  17.540  68.000  1.00  0.00    -0.239 C  
HETATM   22  H   UNL     1      -8.367  18.467  69.762  1.00  0.00     0.000 HD 
HETATM   23  O   UNL     1      -8.014  17.653  69.422  1.00  0.00     0.076 OA 
BRANCH  21  24
HETATM   24  C   UNL     1      -9.729  17.693  67.750  1.00  0.00    -0.280 C  
HETATM   25  H   UNL     1     -11.354  17.829  68.853  1.00  0.00     0.000 HD 
HETATM   26  C   UNL     1     -10.091  18.968  67.006  1.00  0.00    -0.364 C  
HETATM   27  O   UNL     1     -10.422  17.734  69.009  1.00  0.00    -0.332 OA 
HETATM   28  O   UNL     1      -9.336  19.918  66.825  1.00  0.00    -0.341 OA 
ENDBRANCH  21  24
ENDBRANCH   4  21
ENDBRANCH   3   4
TORSDOF 6
ENDMDL
MODEL      233
REMARK 921   NORMALIZED FREE ENERGY PREDICTED BY IDOCK:   -3.16 KCAL/MOL
REMARK 922        TOTAL FREE ENERGY PREDICTED BY IDOCK:   -5.47 KCAL/MOL
REMARK 923 INTER-LIGAND FREE ENERGY PREDICTED BY IDOCK:   -5.12 KCAL/MOL
REMARK 924 INTRA-LIGAND FREE ENERGY PREDICTED BY IDOCK:   -0.35 KCAL/MOL
REMARK 927      BINDING AFFINITY PREDICTED BY RF-SCORE:    0.00 PKD
ROOT
HETATM    1  O   UNL     1      -7.386   9.943  68.780  1.00  0.00    -0.074 OA 
HETATM    2  H   UNL     1      -6.550   9.802  68.351  1.00  0.00     0.000 HD 
HETATM    3  C   UNL     1      -8.434   9.136  68.266  1.00  0.00    -0.125 C  
ENDROOT
BRANCH   3   4
HETATM    4  C   UNL     1      -9.795   9.365  68.964  1.00  0.00    -0.169 C  
BRANCH   4   5
HETATM    5  O   UNL     1     -10.948   9.276  68.107  1.00  0.00    -0.138 OA 
BRANCH   5   6
HETATM    6  C   UNL     1     -11.260  10.469  67.391  1.00  0.00    -0.173 C  
HETATM    7  C   UNL     1     -10.804  11.672  65.363  1.00  0.00    -0.280 C  
HETATM    8  O   UNL     1     -10.502  10.518  66.170  1.00  0.00    -0.230 OA 
HETATM    9  H   UNL     1     -11.501  12.461  70.035  1.00  0.00     0.000 HD 
HETATM   10  C   UNL     1     -10.529  12.980  66.120  1.00  0.00    -0.279 C  
HETATM   11  O   UNL     1     -11.686  11.698  69.501  1.00  0.00    -0.289 OA 
HETATM   12  O   UNL     1      -9.146  13.161  66.461  1.00  0.00    -0.375 OA 
HETATM   13  C   UNL     1     -11.319  12.967  67.435  1.00  0.00    -0.305 C  
HETATM   14  H   UNL     1      -8.975  13.970  66.930  1.00  0.00     0.000 HD 
HETATM   15  H   UNL     1     -11.577  14.178  68.965  1.00  0.00     0.000 HD 
HETATM   16  O   UNL     1     -11.087  14.186  68.151  1.00  0.00    -0.244 OA 
HETATM   17  C   UNL     1     -10.955  11.718  68.266  1.00  0.00    -0.229 C  
BRANCH   7  18
HETATM   18  C   UNL     1      -9.983  11.579  64.074  1.00  0.00    -0.303 C  
HETATM   19  O   UNL     1     -10.120  10.280  63.505  1.00  0.00    -0.465 OA 
HETATM   20  H   UNL     1      -9.610  10.222  62.705  1.00  0.00     0.000 HD 
ENDBRANCH   7  18
ENDBRANCH   5   6
ENDBRANCH   4   5
BRANCH   4  21
HETATM   21  C   UNL     1      -9.969   8.400  70.175  1.00  0.00    -0.187 C  
HETATM   22  H   UNL     1     -11.250   6.989  70.768  1.00  0.00     0.000 HD 
HETATM   23  O   UNL     1     -11.144   7.577  70.029  1.00  0.00    -0.257 OA 
BRANCH  21  24
HETATM   24  C   UNL     1     -10.091   9.134  71.514  1.00  0.00    -0.311 C  
HETATM   25  H   UNL     1     -11.531   9.541  72.794  1.00  0.00     0.000 HD 
HETATM   26  C   UNL     1      -9.243   8.523  72.618  1.00  0.00    -0.199 C  
HETATM   27  O   UNL     1     -11.456   9.086  71.964  1.00  0.00    -0.365 OA 
HETATM   28  O   UNL     1      -8.700   7.424  72.564  1.00  0.00    -0.119 OA 
ENDBRANCH  21  24
ENDBRANCH   4  21
ENDBRANCH   3   4
TORSDOF 6
ENDMDL
MODEL      234
REMARK 921   NORMALIZED FREE ENERGY PREDICTED BY IDOCK:   -3.15 KCAL/MOL
REMARK 922        TOTAL FREE ENERGY PREDICTED BY IDOCK:   -5.46 KCAL/MOL
REMARK 923 INTER-LIGAND FREE ENERGY PREDICTED BY IDOCK:   -4.73 KCAL/MOL
REMARK 924 INTRA-LIGAND FREE ENERGY PREDICTED BY IDOCK:   -0.72 KCAL/MOL
REMARK 927      BINDING AFFINITY PREDICTED BY RF-SCORE:    0.00 PKD
ROOT
HETATM    1  O   UNL     1     -10.923  12.433  69.406  1.00  0.00    -0.429 OA 
HETATM    2  H   UNL     1     -11.795  12.744  69.192  1.00  0.00     0.000 HD 
HETATM    3  C   UNL     1     -10.311  11.690  68.363  1.00  0.00    -0.204 C  
ENDROOT
BRANCH   3   4
HETATM    4  C   UNL     1      -8.891  11.183  68.710  1.00  0.00    -0.125 C  
BRANCH   4   5
HETATM    5  O   UNL     1      -8.843  10.043  69.586  1.00  0.00    -0.194 OA 
BRANCH   5   6
HETATM    6  C   UNL     1     -10.064   9.316  69.698  1.00  0.00    -0.197 C  
HETATM    7  C   UNL     1     -11.990   8.991  71.098  1.00  0.00    -0.298 C  
HETATM    8  O   UNL     1     -10.718   9.647  70.936  1.00  0.00    -0.302 OA 
HETATM    9  H   UNL     1      -8.961   6.486  68.360  1.00  0.00     0.000 HD 
HETATM   10  C   UNL     1     -11.847   7.462  71.054  1.00  0.00    -0.307 C  
HETATM   11  O   UNL     1      -9.128   7.420  68.406  1.00  0.00    -0.134 OA 
HETATM   12  O   UNL     1     -11.058   6.933  72.131  1.00  0.00    -0.229 OA 
HETATM   13  C   UNL     1     -11.150   7.065  69.746  1.00  0.00    -0.241 C  
HETATM   14  H   UNL     1     -10.970   5.987  72.104  1.00  0.00     0.000 HD 
HETATM   15  H   UNL     1     -10.589   5.395  68.870  1.00  0.00     0.000 HD 
HETATM   16  O   UNL     1     -11.020   5.641  69.681  1.00  0.00    -0.348 OA 
HETATM   17  C   UNL     1      -9.791   7.787  69.624  1.00  0.00    -0.182 C  
BRANCH   7  18
HETATM   18  C   UNL     1     -12.606   9.467  72.416  1.00  0.00    -0.237 C  
HETATM   19  O   UNL     1     -13.366  10.652  72.196  1.00  0.00    -0.574 OA 
HETATM   20  H   UNL     1     -13.748  10.947  73.013  1.00  0.00     0.000 HD 
ENDBRANCH   7  18
ENDBRANCH   5   6
ENDBRANCH   4   5
BRANCH   4  21
HETATM   21  C   UNL     1      -8.077  10.883  67.416  1.00  0.00    -0.114 C  
HETATM   22  H   UNL     1      -8.342   9.903  65.697  1.00  0.00     0.000 HD 
HETATM   23  O   UNL     1      -8.839  10.086  66.486  1.00  0.00    -0.137 OA 
BRANCH  21  24
HETATM   24  C   UNL     1      -6.769  10.133  67.691  1.00  0.00    -0.075 C  
HETATM   25  H   UNL     1      -5.978   8.405  67.177  1.00  0.00     0.000 HD 
HETATM   26  C   UNL     1      -5.534  10.877  67.207  1.00  0.00    -0.044 C  
HETATM   27  O   UNL     1      -6.788   8.869  67.006  1.00  0.00    -0.072 OA 
HETATM   28  O   UNL     1      -5.544  11.846  66.455  1.00  0.00    -0.289 OA 
ENDBRANCH  21  24
ENDBRANCH   4  21
ENDBRANCH   3   4
TORSDOF 6
ENDMDL
MODEL      235
REMARK 921   NORMALIZED FREE ENERGY PREDICTED BY IDOCK:   -3.15 KCAL/MOL
REMARK 922        TOTAL FREE ENERGY PREDICTED BY IDOCK:   -5.45 KCAL/MOL
REMARK 923 INTER-LIGAND FREE ENERGY PREDICTED BY IDOCK:   -4.59 KCAL/MOL
REMARK 924 INTRA-LIGAND FREE ENERGY PREDICTED BY IDOCK:   -0.86 KCAL/MOL
REMARK 927      BINDING AFFINITY PREDICTED BY RF-SCORE:    0.00 PKD
ROOT
HETATM    1  O   UNL     1     -10.804  11.621  69.786  1.00  0.00    -0.457 OA 
HETATM    2  H   UNL     1     -11.177  12.409  69.407  1.00  0.00     0.000 HD 
HETATM    3  C   UNL     1     -11.194  10.429  69.124  1.00  0.00    -0.246 C  
ENDROOT
BRANCH   3   4
HETATM    4  C   UNL     1     -10.587   9.147  69.741  1.00  0.00    -0.229 C  
BRANCH   4   5
HETATM    5  O   UNL     1      -9.232   8.858  69.350  1.00  0.00    -0.143 OA 
BRANCH   5   6
HETATM    6  C   UNL     1      -8.920   9.157  67.992  1.00  0.00    -0.128 C  
HETATM    7  C   UNL     1      -8.363   8.159  65.879  1.00  0.00    -0.132 C  
HETATM    8  O   UNL     1      -8.636   7.942  67.276  1.00  0.00    -0.126 OA 
HETATM    9  H   UNL     1      -7.204  11.935  68.587  1.00  0.00     0.000 HD 
HETATM   10  C   UNL     1      -7.164   9.097  65.675  1.00  0.00    -0.082 C  
HETATM   11  O   UNL     1      -7.947  11.345  68.632  1.00  0.00    -0.135 OA 
HETATM   12  O   UNL     1      -5.930   8.561  66.178  1.00  0.00    -0.043 OA 
HETATM   13  C   UNL     1      -7.426  10.408  66.427  1.00  0.00    -0.120 C  
HETATM   14  H   UNL     1      -5.187   9.141  66.053  1.00  0.00     0.000 HD 
HETATM   15  H   UNL     1      -6.486  12.115  66.702  1.00  0.00     0.000 HD 
HETATM   16  O   UNL     1      -6.323  11.302  66.237  1.00  0.00    -0.125 OA 
HETATM   17  C   UNL     1      -7.704  10.124  67.918  1.00  0.00    -0.089 C  
BRANCH   7  18
HETATM   18  C   UNL     1      -8.136   6.795  65.222  1.00  0.00    -0.130 C  
HETATM   19  O   UNL     1      -8.445   6.868  63.833  1.00  0.00    -0.346 OA 
HETATM   20  H   UNL     1      -8.304   6.022  63.425  1.00  0.00     0.000 HD 
ENDBRANCH   7  18
ENDBRANCH   5   6
ENDBRANCH   4   5
BRANCH   4  21
HETATM   21  C   UNL     1     -10.687   9.177  71.296  1.00  0.00    -0.331 C  
HETATM   22  H   UNL     1      -9.452   9.044  72.858  1.00  0.00     0.000 HD 
HETATM   23  O   UNL     1      -9.391   9.025  71.910  1.00  0.00    -0.341 OA 
BRANCH  21  24
HETATM   24  C   UNL     1     -11.590   8.075  71.860  1.00  0.00    -0.298 C  
HETATM   25  H   UNL     1     -11.774   7.116  73.570  1.00  0.00     0.000 HD 
HETATM   26  C   UNL     1     -13.063   8.452  71.879  1.00  0.00    -0.358 C  
HETATM   27  O   UNL     1     -11.214   7.799  73.220  1.00  0.00    -0.350 OA 
HETATM   28  O   UNL     1     -13.503   9.584  71.708  1.00  0.00    -0.381 OA 
ENDBRANCH  21  24
ENDBRANCH   4  21
ENDBRANCH   3   4
TORSDOF 6
ENDMDL
MODEL      236
REMARK 921   NORMALIZED FREE ENERGY PREDICTED BY IDOCK:   -3.13 KCAL/MOL
REMARK 922        TOTAL FREE ENERGY PREDICTED BY IDOCK:   -5.43 KCAL/MOL
REMARK 923 INTER-LIGAND FREE ENERGY PREDICTED BY IDOCK:   -4.41 KCAL/MOL
REMARK 924 INTRA-LIGAND FREE ENERGY PREDICTED BY IDOCK:   -1.02 KCAL/MOL
REMARK 927      BINDING AFFINITY PREDICTED BY RF-SCORE:    0.00 PKD
ROOT
HETATM    1  O   UNL     1      -7.230   6.974  72.874  1.00  0.00    -0.073 OA 
HETATM    2  H   UNL     1      -6.739   6.331  73.371  1.00  0.00     0.000 HD 
HETATM    3  C   UNL     1      -8.517   6.528  72.475  1.00  0.00    -0.121 C  
ENDROOT
BRANCH   3   4
HETATM    4  C   UNL     1      -9.317   7.575  71.665  1.00  0.00    -0.145 C  
BRANCH   4   5
HETATM    5  O   UNL     1      -9.543   7.243  70.283  1.00  0.00    -0.166 OA 
BRANCH   5   6
HETATM    6  C   UNL     1      -9.014   8.177  69.345  1.00  0.00    -0.147 C  
HETATM    7  C   UNL     1      -7.619  10.122  69.142  1.00  0.00    -0.103 C  
HETATM    8  O   UNL     1      -8.233   9.170  70.032  1.00  0.00    -0.113 OA 
HETATM    9  H   UNL     1     -11.680   8.302  67.372  1.00  0.00     0.000 HD 
HETATM   10  C   UNL     1      -8.666  10.869  68.302  1.00  0.00    -0.140 C  
HETATM   11  O   UNL     1     -10.976   7.890  67.858  1.00  0.00    -0.045 OA 
HETATM   12  O   UNL     1      -9.559  11.673  69.089  1.00  0.00    -0.410 OA 
HETATM   13  C   UNL     1      -9.525   9.843  67.553  1.00  0.00    -0.151 C  
HETATM   14  H   UNL     1     -10.207  12.135  68.569  1.00  0.00     0.000 HD 
HETATM   15  H   UNL     1     -11.031   9.885  66.287  1.00  0.00     0.000 HD 
HETATM   16  O   UNL     1     -10.500  10.521  66.752  1.00  0.00    -0.239 OA 
HETATM   17  C   UNL     1     -10.166   8.853  68.549  1.00  0.00    -0.197 C  
BRANCH   7  18
HETATM   18  C   UNL     1      -6.775  11.083  69.983  1.00  0.00    -0.094 C  
HETATM   19  O   UNL     1      -6.861  12.401  69.448  1.00  0.00    -0.251 OA 
HETATM   20  H   UNL     1      -6.337  12.997  69.970  1.00  0.00     0.000 HD 
ENDBRANCH   7  18
ENDBRANCH   5   6
ENDBRANCH   4   5
BRANCH   4  21
HETATM   21  C   UNL     1     -10.678   7.891  72.356  1.00  0.00    -0.305 C  
HETATM   22  H   UNL     1     -11.635   7.386  74.033  1.00  0.00     0.000 HD 
HETATM   23  O   UNL     1     -10.805   7.194  73.612  1.00  0.00    -0.352 OA 
BRANCH  21  24
HETATM   24  C   UNL     1     -11.889   7.510  71.499  1.00  0.00    -0.295 C  
HETATM   25  H   UNL     1     -13.138   5.992  71.387  1.00  0.00     0.000 HD 
HETATM   26  C   UNL     1     -13.044   8.491  71.614  1.00  0.00    -0.341 C  
HETATM   27  O   UNL     1     -12.388   6.229  71.919  1.00  0.00    -0.312 OA 
HETATM   28  O   UNL     1     -13.143   9.366  72.468  1.00  0.00    -0.404 OA 
ENDBRANCH  21  24
ENDBRANCH   4  21
ENDBRANCH   3   4
TORSDOF 6
ENDMDL
MODEL      237
REMARK 921   NORMALIZED FREE ENERGY PREDICTED BY IDOCK:   -3.13 KCAL/MOL
REMARK 922        TOTAL FREE ENERGY PREDICTED BY IDOCK:   -5.43 KCAL/MOL
REMARK 923 INTER-LIGAND FREE ENERGY PREDICTED BY IDOCK:   -4.24 KCAL/MOL
REMARK 924 INTRA-LIGAND FREE ENERGY PREDICTED BY IDOCK:   -1.18 KCAL/MOL
REMARK 927      BINDING AFFINITY PREDICTED BY RF-SCORE:    0.00 PKD
ROOT
HETATM    1  O   UNL     1      -8.264   7.139  68.057  1.00  0.00    -0.118 OA 
HETATM    2  H   UNL     1      -7.630   6.433  67.998  1.00  0.00     0.000 HD 
HETATM    3  C   UNL     1      -7.747   8.402  67.671  1.00  0.00    -0.099 C  
ENDROOT
BRANCH   3   4
HETATM    4  C   UNL     1      -8.778   9.552  67.765  1.00  0.00    -0.115 C  
BRANCH   4   5
HETATM    5  O   UNL     1      -8.576  10.471  68.854  1.00  0.00    -0.137 OA 
BRANCH   5   6
HETATM    6  C   UNL     1      -9.338  10.192  70.026  1.00  0.00    -0.013 C  
HETATM    7  C   UNL     1      -9.852   8.475  71.626  1.00  0.00    -0.247 C  
HETATM    8  O   UNL     1      -9.153   8.820  70.415  1.00  0.00    -0.154 OA 
HETATM    9  H   UNL     1     -11.988  12.019  69.215  1.00  0.00     0.000 HD 
HETATM   10  C   UNL     1     -11.364   8.709  71.493  1.00  0.00    -0.289 C  
HETATM   11  O   UNL     1     -11.068  11.842  69.371  1.00  0.00    -0.235 OA 
HETATM   12  O   UNL     1     -11.984   7.877  70.501  1.00  0.00    -0.480 OA 
HETATM   13  C   UNL     1     -11.606  10.165  71.077  1.00  0.00    -0.376 C  
HETATM   14  H   UNL     1     -12.920   8.021  70.419  1.00  0.00     0.000 HD 
HETATM   15  H   UNL     1     -13.163  11.309  70.704  1.00  0.00     0.000 HD 
HETATM   16  O   UNL     1     -13.013  10.407  70.961  1.00  0.00    -0.368 OA 
HETATM   17  C   UNL     1     -10.845  10.482  69.772  1.00  0.00    -0.281 C  
BRANCH   7  18
HETATM   18  C   UNL     1      -9.530   7.017  71.962  1.00  0.00    -0.138 C  
HETATM   19  O   UNL     1      -9.492   6.241  70.767  1.00  0.00    -0.169 OA 
HETATM   20  H   UNL     1      -9.292   5.336  70.975  1.00  0.00     0.000 HD 
ENDBRANCH   7  18
ENDBRANCH   5   6
ENDBRANCH   4   5
BRANCH   4  21
HETATM   21  C   UNL     1      -8.856  10.341  66.423  1.00  0.00    -0.145 C  
HETATM   22  H   UNL     1      -9.588  12.080  65.772  1.00  0.00     0.000 HD 
HETATM   23  O   UNL     1      -9.540  11.599  66.591  1.00  0.00    -0.195 OA 
BRANCH  21  24
HETATM   24  C   UNL     1      -9.583   9.571  65.316  1.00  0.00    -0.243 C  
HETATM   25  H   UNL     1     -11.094   9.905  64.100  1.00  0.00     0.000 HD 
HETATM   26  C   UNL     1      -8.684   9.201  64.147  1.00  0.00    -0.141 C  
HETATM   27  O   UNL     1     -10.643  10.383  64.785  1.00  0.00    -0.185 OA 
HETATM   28  O   UNL     1      -7.563   9.659  63.947  1.00  0.00    -0.116 OA 
ENDBRANCH  21  24
ENDBRANCH   4  21
ENDBRANCH   3   4
TORSDOF 6
ENDMDL
MODEL      238
REMARK 921   NORMALIZED FREE ENERGY PREDICTED BY IDOCK:   -3.13 KCAL/MOL
REMARK 922        TOTAL FREE ENERGY PREDICTED BY IDOCK:   -5.43 KCAL/MOL
REMARK 923 INTER-LIGAND FREE ENERGY PREDICTED BY IDOCK:   -5.35 KCAL/MOL
REMARK 924 INTRA-LIGAND FREE ENERGY PREDICTED BY IDOCK:   -0.08 KCAL/MOL
REMARK 927      BINDING AFFINITY PREDICTED BY RF-SCORE:    0.00 PKD
ROOT
HETATM    1  O   UNL     1     -11.468  11.258  70.482  1.00  0.00    -0.461 OA 
HETATM    2  H   UNL     1     -12.206  11.566  70.995  1.00  0.00     0.000 HD 
HETATM    3  C   UNL     1     -11.826  10.794  69.189  1.00  0.00    -0.275 C  
ENDROOT
BRANCH   3   4
HETATM    4  C   UNL     1     -10.624  10.292  68.354  1.00  0.00    -0.216 C  
BRANCH   4   5
HETATM    5  O   UNL     1      -9.505  11.193  68.282  1.00  0.00    -0.168 OA 
BRANCH   5   6
HETATM    6  C   UNL     1      -9.780  12.446  67.659  1.00  0.00    -0.195 C  
HETATM    7  C   UNL     1     -10.598  14.666  68.078  1.00  0.00    -0.240 C  
HETATM    8  O   UNL     1     -10.342  13.356  68.620  1.00  0.00    -0.240 OA 
HETATM    9  H   UNL     1     -10.831  11.220  64.759  1.00  0.00     0.000 HD 
HETATM   10  C   UNL     1     -11.568  14.606  66.889  1.00  0.00    -0.362 C  
HETATM   11  O   UNL     1     -10.234  11.339  65.489  1.00  0.00    -0.239 OA 
HETATM   12  O   UNL     1     -12.876  14.129  67.244  1.00  0.00    -0.276 OA 
HETATM   13  C   UNL     1     -11.006  13.640  65.838  1.00  0.00    -0.282 C  
HETATM   14  H   UNL     1     -13.476  14.091  66.508  1.00  0.00     0.000 HD 
HETATM   15  H   UNL     1     -11.542  12.984  64.062  1.00  0.00     0.000 HD 
HETATM   16  O   UNL     1     -11.891  13.581  64.713  1.00  0.00    -0.351 OA 
HETATM   17  C   UNL     1     -10.757  12.252  66.465  1.00  0.00    -0.246 C  
BRANCH   7  18
HETATM   18  C   UNL     1     -11.135  15.551  69.205  1.00  0.00    -0.285 C  
HETATM   19  O   UNL     1     -10.186  15.614  70.267  1.00  0.00    -0.287 OA 
HETATM   20  H   UNL     1     -10.520  16.163  70.966  1.00  0.00     0.000 HD 
ENDBRANCH   7  18
ENDBRANCH   5   6
ENDBRANCH   4   5
BRANCH   4  21
HETATM   21  C   UNL     1     -10.141   8.898  68.857  1.00  0.00    -0.197 C  
HETATM   22  H   UNL     1      -8.412   8.010  69.313  1.00  0.00     0.000 HD 
HETATM   23  O   UNL     1      -8.707   8.860  69.007  1.00  0.00    -0.132 OA 
BRANCH  21  24
HETATM   24  C   UNL     1     -10.531   7.753  67.917  1.00  0.00    -0.201 C  
HETATM   25  H   UNL     1      -9.616   6.615  66.596  1.00  0.00     0.000 HD 
HETATM   26  C   UNL     1     -11.066   6.529  68.644  1.00  0.00    -0.270 C  
HETATM   27  O   UNL     1      -9.374   7.325  67.178  1.00  0.00    -0.132 OA 
HETATM   28  O   UNL     1     -10.981   6.335  69.853  1.00  0.00    -0.296 OA 
ENDBRANCH  21  24
ENDBRANCH   4  21
ENDBRANCH   3   4
TORSDOF 6
ENDMDL
MODEL      239
REMARK 921   NORMALIZED FREE ENERGY PREDICTED BY IDOCK:   -3.12 KCAL/MOL
REMARK 922        TOTAL FREE ENERGY PREDICTED BY IDOCK:   -5.41 KCAL/MOL
REMARK 923 INTER-LIGAND FREE ENERGY PREDICTED BY IDOCK:   -5.99 KCAL/MOL
REMARK 924 INTRA-LIGAND FREE ENERGY PREDICTED BY IDOCK:    0.58 KCAL/MOL
REMARK 927      BINDING AFFINITY PREDICTED BY RF-SCORE:    0.00 PKD
ROOT
HETATM    1  O   UNL     1     -10.550  16.461  65.036  1.00  0.00    -0.651 OA 
HETATM    2  H   UNL     1     -10.104  16.016  64.324  1.00  0.00     0.000 HD 
HETATM    3  C   UNL     1      -9.678  16.920  66.057  1.00  0.00    -0.233 C  
ENDROOT
BRANCH   3   4
HETATM    4  C   UNL     1     -10.403  17.644  67.216  1.00  0.00    -0.354 C  
BRANCH   4   5
HETATM    5  O   UNL     1     -11.081  16.784  68.150  1.00  0.00    -0.363 OA 
BRANCH   5   6
HETATM    6  C   UNL     1     -10.335  15.644  68.570  1.00  0.00    -0.219 C  
HETATM    7  C   UNL     1      -8.104  14.797  68.845  1.00  0.00    -0.160 C  
HETATM    8  O   UNL     1      -8.929  15.887  68.391  1.00  0.00    -0.180 OA 
HETATM    9  H   UNL     1     -12.441  13.351  67.420  1.00  0.00     0.000 HD 
HETATM   10  C   UNL     1      -8.435  13.491  68.109  1.00  0.00    -0.172 C  
HETATM   11  O   UNL     1     -12.174  14.119  67.911  1.00  0.00    -0.319 OA 
HETATM   12  O   UNL     1      -8.169  13.549  66.699  1.00  0.00    -0.401 OA 
HETATM   13  C   UNL     1      -9.932  13.195  68.273  1.00  0.00    -0.236 C  
HETATM   14  H   UNL     1      -8.374  12.740  66.243  1.00  0.00     0.000 HD 
HETATM   15  H   UNL     1     -11.185  11.788  67.706  1.00  0.00     0.000 HD 
HETATM   16  O   UNL     1     -10.259  11.972  67.604  1.00  0.00    -0.195 OA 
HETATM   17  C   UNL     1     -10.772  14.387  67.766  1.00  0.00    -0.248 C  
BRANCH   7  18
HETATM   18  C   UNL     1      -6.639  15.200  68.656  1.00  0.00    -0.090 C  
HETATM   19  O   UNL     1      -5.836  14.037  68.471  1.00  0.00    -0.081 OA 
HETATM   20  H   UNL     1      -4.927  14.287  68.354  1.00  0.00     0.000 HD 
ENDBRANCH   7  18
ENDBRANCH   5   6
ENDBRANCH   4   5
BRANCH   4  21
HETATM   21  C   UNL     1      -9.424  18.582  67.985  1.00  0.00    -0.303 C  
HETATM   22  H   UNL     1      -9.476  19.790  69.573  1.00  0.00     0.000 HD 
HETATM   23  O   UNL     1     -10.073  19.217  69.104  1.00  0.00    -0.401 OA 
BRANCH  21  24
HETATM   24  C   UNL     1      -8.843  19.693  67.104  1.00  0.00    -0.312 C  
HETATM   25  H   UNL     1      -9.359  21.521  66.586  1.00  0.00     0.000 HD 
HETATM   26  C   UNL     1      -7.477  20.177  67.565  1.00  0.00    -0.297 C  
HETATM   27  O   UNL     1      -9.719  20.833  67.132  1.00  0.00    -0.462 OA 
HETATM   28  O   UNL     1      -6.967  19.919  68.650  1.00  0.00    -0.315 OA 
ENDBRANCH  21  24
ENDBRANCH   4  21
ENDBRANCH   3   4
TORSDOF 6
ENDMDL
MODEL      240
REMARK 921   NORMALIZED FREE ENERGY PREDICTED BY IDOCK:   -3.11 KCAL/MOL
REMARK 922        TOTAL FREE ENERGY PREDICTED BY IDOCK:   -5.41 KCAL/MOL
REMARK 923 INTER-LIGAND FREE ENERGY PREDICTED BY IDOCK:   -4.97 KCAL/MOL
REMARK 924 INTRA-LIGAND FREE ENERGY PREDICTED BY IDOCK:   -0.44 KCAL/MOL
REMARK 927      BINDING AFFINITY PREDICTED BY RF-SCORE:    0.00 PKD
ROOT
HETATM    1  O   UNL     1      -9.582  11.224  68.976  1.00  0.00    -0.359 OA 
HETATM    2  H   UNL     1      -9.081  11.142  69.779  1.00  0.00     0.000 HD 
HETATM    3  C   UNL     1      -9.413  12.474  68.324  1.00  0.00    -0.201 C  
ENDROOT
BRANCH   3   4
HETATM    4  C   UNL     1     -10.228  12.609  67.016  1.00  0.00    -0.226 C  
BRANCH   4   5
HETATM    5  O   UNL     1     -10.473  13.959  66.581  1.00  0.00    -0.268 OA 
BRANCH   5   6
HETATM    6  C   UNL     1      -9.938  14.972  67.429  1.00  0.00    -0.226 C  
HETATM    7  C   UNL     1     -10.250  16.082  69.536  1.00  0.00    -0.274 C  
HETATM    8  O   UNL     1     -10.758  15.111  68.602  1.00  0.00    -0.227 OA 
HETATM    9  H   UNL     1      -8.997  17.047  65.015  1.00  0.00     0.000 HD 
HETATM   10  C   UNL     1     -10.132  17.474  68.897  1.00  0.00    -0.346 C  
HETATM   11  O   UNL     1      -9.050  16.221  65.482  1.00  0.00    -0.374 OA 
HETATM   12  O   UNL     1     -11.395  18.025  68.495  1.00  0.00     0.153 OA 
HETATM   13  C   UNL     1      -9.263  17.369  67.637  1.00  0.00    -0.234 C  
HETATM   14  H   UNL     1     -11.322  18.887  68.100  1.00  0.00     0.000 HD 
HETATM   15  H   UNL     1      -8.590  18.597  66.254  1.00  0.00     0.000 HD 
HETATM   16  O   UNL     1      -9.129  18.661  67.034  1.00  0.00    -0.279 OA 
HETATM   17  C   UNL     1      -9.853  16.324  66.666  1.00  0.00    -0.253 C  
BRANCH   7  18
HETATM   18  C   UNL     1     -11.173  16.094  70.758  1.00  0.00    -0.328 C  
HETATM   19  O   UNL     1     -11.169  14.813  71.382  1.00  0.00    -0.545 OA 
HETATM   20  H   UNL     1     -11.741  14.821  72.140  1.00  0.00     0.000 HD 
ENDBRANCH   7  18
ENDBRANCH   5   6
ENDBRANCH   4   5
BRANCH   4  21
HETATM   21  C   UNL     1      -9.565  11.800  65.861  1.00  0.00    -0.230 C  
HETATM   22  H   UNL     1      -9.227  12.021  63.907  1.00  0.00     0.000 HD 
HETATM   23  O   UNL     1      -9.631  12.515  64.611  1.00  0.00     0.009 OA 
BRANCH  21  24
HETATM   24  C   UNL     1     -10.215  10.430  65.638  1.00  0.00    -0.238 C  
HETATM   25  H   UNL     1     -10.643   9.288  64.092  1.00  0.00     0.000 HD 
HETATM   26  C   UNL     1      -9.470   9.290  66.313  1.00  0.00    -0.224 C  
HETATM   27  O   UNL     1     -10.240  10.136  64.231  1.00  0.00    -0.177 OA 
HETATM   28  O   UNL     1      -8.339   9.367  66.782  1.00  0.00    -0.121 OA 
ENDBRANCH  21  24
ENDBRANCH   4  21
ENDBRANCH   3   4
TORSDOF 6
ENDMDL
MODEL      241
REMARK 921   NORMALIZED FREE ENERGY PREDICTED BY IDOCK:   -3.11 KCAL/MOL
REMARK 922        TOTAL FREE ENERGY PREDICTED BY IDOCK:   -5.41 KCAL/MOL
REMARK 923 INTER-LIGAND FREE ENERGY PREDICTED BY IDOCK:   -4.59 KCAL/MOL
REMARK 924 INTRA-LIGAND FREE ENERGY PREDICTED BY IDOCK:   -0.81 KCAL/MOL
REMARK 927      BINDING AFFINITY PREDICTED BY RF-SCORE:    0.00 PKD
ROOT
HETATM    1  O   UNL     1     -12.244  11.362  67.864  1.00  0.00    -0.592 OA 
HETATM    2  H   UNL     1     -12.936  11.785  68.360  1.00  0.00     0.000 HD 
HETATM    3  C   UNL     1     -11.342  10.615  68.665  1.00  0.00    -0.281 C  
ENDROOT
BRANCH   3   4
HETATM    4  C   UNL     1     -10.216   9.927  67.858  1.00  0.00    -0.193 C  
BRANCH   4   5
HETATM    5  O   UNL     1     -10.652   8.919  66.929  1.00  0.00    -0.263 OA 
BRANCH   5   6
HETATM    6  C   UNL     1     -10.535   7.577  67.396  1.00  0.00    -0.297 C  
HETATM    7  C   UNL     1     -10.865   6.171  69.316  1.00  0.00    -0.351 C  
HETATM    8  O   UNL     1     -10.907   7.509  68.784  1.00  0.00    -0.140 OA 
HETATM    9  H   UNL     1      -7.780   6.813  65.709  1.00  0.00     0.000 HD 
HETATM   10  C   UNL     1      -9.464   5.556  69.191  1.00  0.00    -0.129 C  
HETATM   11  O   UNL     1      -8.669   7.127  65.828  1.00  0.00    -0.154 OA 
HETATM   12  O   UNL     1      -8.466   6.251  69.955  1.00  0.00    -0.126 OA 
HETATM   13  C   UNL     1      -9.026   5.611  67.722  1.00  0.00    -0.107 C  
HETATM   14  H   UNL     1      -7.598   5.870  69.878  1.00  0.00     0.000 HD 
HETATM   15  H   UNL     1      -7.455   5.061  66.672  1.00  0.00     0.000 HD 
HETATM   16  O   UNL     1      -7.726   5.028  67.582  1.00  0.00    -0.086 OA 
HETATM   17  C   UNL     1      -9.080   7.063  67.202  1.00  0.00    -0.128 C  
BRANCH   7  18
HETATM   18  C   UNL     1     -11.335   6.225  70.772  1.00  0.00    -0.332 C  
HETATM   19  O   UNL     1     -10.623   5.263  71.547  1.00  0.00    -0.225 OA 
HETATM   20  H   UNL     1     -10.914   5.296  72.450  1.00  0.00     0.000 HD 
ENDBRANCH   7  18
ENDBRANCH   5   6
ENDBRANCH   4   5
BRANCH   4  21
HETATM   21  C   UNL     1      -9.342  10.981  67.114  1.00  0.00    -0.164 C  
HETATM   22  H   UNL     1      -8.702  12.847  67.415  1.00  0.00     0.000 HD 
HETATM   23  O   UNL     1      -9.234  12.204  67.870  1.00  0.00    -0.175 OA 
BRANCH  21  24
HETATM   24  C   UNL     1      -9.892  11.348  65.731  1.00  0.00    -0.232 C  
HETATM   25  H   UNL     1     -10.284  13.005  64.743  1.00  0.00     0.000 HD 
HETATM   26  C   UNL     1      -9.038  10.830  64.585  1.00  0.00    -0.201 C  
HETATM   27  O   UNL     1      -9.942  12.778  65.600  1.00  0.00    -0.269 OA 
HETATM   28  O   UNL     1      -7.901  10.383  64.698  1.00  0.00    -0.145 OA 
ENDBRANCH  21  24
ENDBRANCH   4  21
ENDBRANCH   3   4
TORSDOF 6
ENDMDL
MODEL      242
REMARK 921   NORMALIZED FREE ENERGY PREDICTED BY IDOCK:   -3.10 KCAL/MOL
REMARK 922        TOTAL FREE ENERGY PREDICTED BY IDOCK:   -5.39 KCAL/MOL
REMARK 923 INTER-LIGAND FREE ENERGY PREDICTED BY IDOCK:   -4.51 KCAL/MOL
REMARK 924 INTRA-LIGAND FREE ENERGY PREDICTED BY IDOCK:   -0.89 KCAL/MOL
REMARK 927      BINDING AFFINITY PREDICTED BY RF-SCORE:    0.00 PKD
ROOT
HETATM    1  O   UNL     1     -10.084   7.916  66.086  1.00  0.00    -0.469 OA 
HETATM    2  H   UNL     1     -10.150   8.098  65.156  1.00  0.00     0.000 HD 
HETATM    3  C   UNL     1      -9.196   8.782  66.775  1.00  0.00    -0.169 C  
ENDROOT
BRANCH   3   4
HETATM    4  C   UNL     1      -9.088   8.486  68.290  1.00  0.00    -0.138 C  
BRANCH   4   5
HETATM    5  O   UNL     1     -10.279   7.956  68.899  1.00  0.00    -0.197 OA 
BRANCH   5   6
HETATM    6  C   UNL     1     -10.522   8.398  70.233  1.00  0.00    -0.218 C  
HETATM    7  C   UNL     1     -10.887   7.631  72.480  1.00  0.00    -0.314 C  
HETATM    8  O   UNL     1     -10.691   7.264  71.101  1.00  0.00    -0.226 OA 
HETATM    9  H   UNL     1     -12.428  10.998  69.442  1.00  0.00     0.000 HD 
HETATM   10  C   UNL     1     -12.123   8.525  72.657  1.00  0.00    -0.235 C  
HETATM   11  O   UNL     1     -11.657  10.444  69.414  1.00  0.00    -0.245 OA 
HETATM   12  O   UNL     1     -13.353   7.874  72.305  1.00  0.00    -0.502 OA 
HETATM   13  C   UNL     1     -11.984   9.750  71.743  1.00  0.00    -0.311 C  
HETATM   14  H   UNL     1     -14.118   8.427  72.414  1.00  0.00     0.000 HD 
HETATM   15  H   UNL     1     -13.036  11.364  71.339  1.00  0.00     0.000 HD 
HETATM   16  O   UNL     1     -13.122  10.605  71.904  1.00  0.00    -0.469 OA 
HETATM   17  C   UNL     1     -11.785   9.305  70.278  1.00  0.00    -0.051 C  
BRANCH   7  18
HETATM   18  C   UNL     1     -10.994   6.345  73.303  1.00  0.00    -0.190 C  
HETATM   19  O   UNL     1     -10.703   5.217  72.481  1.00  0.00    -0.217 OA 
HETATM   20  H   UNL     1     -10.770   4.419  72.992  1.00  0.00     0.000 HD 
ENDBRANCH   7  18
ENDBRANCH   5   6
ENDBRANCH   4   5
BRANCH   4  21
HETATM   21  C   UNL     1      -7.884   7.542  68.588  1.00  0.00    -0.121 C  
HETATM   22  H   UNL     1      -6.074   7.174  67.833  1.00  0.00     0.000 HD 
HETATM   23  O   UNL     1      -6.808   7.750  67.651  1.00  0.00    -0.065 OA 
BRANCH  21  24
HETATM   24  C   UNL     1      -8.258   6.057  68.530  1.00  0.00    -0.110 C  
HETATM   25  H   UNL     1      -7.574   4.447  67.626  1.00  0.00     0.000 HD 
HETATM   26  C   UNL     1      -8.190   5.364  69.881  1.00  0.00    -0.096 C  
HETATM   27  O   UNL     1      -7.342   5.367  67.662  1.00  0.00    -0.074 OA 
HETATM   28  O   UNL     1      -7.663   5.829  70.887  1.00  0.00    -0.092 OA 
ENDBRANCH  21  24
ENDBRANCH   4  21
ENDBRANCH   3   4
TORSDOF 6
ENDMDL
MODEL      243
REMARK 921   NORMALIZED FREE ENERGY PREDICTED BY IDOCK:   -3.10 KCAL/MOL
REMARK 922        TOTAL FREE ENERGY PREDICTED BY IDOCK:   -5.39 KCAL/MOL
REMARK 923 INTER-LIGAND FREE ENERGY PREDICTED BY IDOCK:   -6.05 KCAL/MOL
REMARK 924 INTRA-LIGAND FREE ENERGY PREDICTED BY IDOCK:    0.66 KCAL/MOL
REMARK 927      BINDING AFFINITY PREDICTED BY RF-SCORE:    0.00 PKD
ROOT
HETATM    1  O   UNL     1     -10.116  14.554  64.358  1.00  0.00    -0.560 OA 
HETATM    2  H   UNL     1     -10.433  15.084  63.635  1.00  0.00     0.000 HD 
HETATM    3  C   UNL     1     -11.144  14.102  65.226  1.00  0.00    -0.331 C  
ENDROOT
BRANCH   3   4
HETATM    4  C   UNL     1     -10.629  13.239  66.403  1.00  0.00    -0.284 C  
BRANCH   4   5
HETATM    5  O   UNL     1      -9.361  13.640  66.951  1.00  0.00    -0.240 OA 
BRANCH   5   6
HETATM    6  C   UNL     1      -9.393  14.826  67.741  1.00  0.00    -0.199 C  
HETATM    7  C   UNL     1     -10.076  17.129  67.731  1.00  0.00    -0.306 C  
HETATM    8  O   UNL     1      -9.959  15.906  66.979  1.00  0.00    -0.239 OA 
HETATM    9  H   UNL     1      -6.481  14.361  69.266  1.00  0.00     0.000 HD 
HETATM   10  C   UNL     1      -8.711  17.606  68.249  1.00  0.00    -0.276 C  
HETATM   11  O   UNL     1      -7.357  14.135  68.974  1.00  0.00    -0.124 OA 
HETATM   12  O   UNL     1      -7.789  17.944  67.201  1.00  0.00    -0.201 OA 
HETATM   13  C   UNL     1      -8.069  16.479  69.068  1.00  0.00    -0.214 C  
HETATM   14  H   UNL     1      -6.945  18.239  67.521  1.00  0.00     0.000 HD 
HETATM   15  H   UNL     1      -6.403  16.213  70.081  1.00  0.00     0.000 HD 
HETATM   16  O   UNL     1      -6.801  16.911  69.573  1.00  0.00    -0.230 OA 
HETATM   17  C   UNL     1      -7.960  15.195  68.218  1.00  0.00    -0.129 C  
BRANCH   7  18
HETATM   18  C   UNL     1     -10.741  18.176  66.833  1.00  0.00    -0.224 C  
HETATM   19  O   UNL     1     -10.467  17.888  65.465  1.00  0.00    -0.650 OA 
HETATM   20  H   UNL     1     -10.879  18.537  64.909  1.00  0.00     0.000 HD 
ENDBRANCH   7  18
ENDBRANCH   5   6
ENDBRANCH   4   5
BRANCH   4  21
HETATM   21  C   UNL     1     -11.691  13.164  67.542  1.00  0.00    -0.366 C  
HETATM   22  H   UNL     1     -12.919  14.411  68.501  1.00  0.00     0.000 HD 
HETATM   23  O   UNL     1     -12.272  14.457  67.806  1.00  0.00    -0.314 OA 
BRANCH  21  24
HETATM   24  C   UNL     1     -11.116  12.645  68.864  1.00  0.00    -0.259 C  
HETATM   25  H   UNL     1     -11.501  12.882  70.780  1.00  0.00     0.000 HD 
HETATM   26  C   UNL     1     -11.195  11.133  69.004  1.00  0.00    -0.256 C  
HETATM   27  O   UNL     1     -11.858  13.204  69.961  1.00  0.00    -0.321 OA 
HETATM   28  O   UNL     1     -11.857  10.392  68.285  1.00  0.00    -0.324 OA 
ENDBRANCH  21  24
ENDBRANCH   4  21
ENDBRANCH   3   4
TORSDOF 6
ENDMDL
MODEL      244
REMARK 921   NORMALIZED FREE ENERGY PREDICTED BY IDOCK:   -3.10 KCAL/MOL
REMARK 922        TOTAL FREE ENERGY PREDICTED BY IDOCK:   -5.39 KCAL/MOL
REMARK 923 INTER-LIGAND FREE ENERGY PREDICTED BY IDOCK:   -4.70 KCAL/MOL
REMARK 924 INTRA-LIGAND FREE ENERGY PREDICTED BY IDOCK:   -0.69 KCAL/MOL
REMARK 927      BINDING AFFINITY PREDICTED BY RF-SCORE:    0.00 PKD
ROOT
HETATM    1  O   UNL     1     -12.764  10.612  69.028  1.00  0.00    -0.675 OA 
HETATM    2  H   UNL     1     -13.261   9.994  69.552  1.00  0.00     0.000 HD 
HETATM    3  C   UNL     1     -11.689  11.219  69.728  1.00  0.00    -0.349 C  
ENDROOT
BRANCH   3   4
HETATM    4  C   UNL     1     -10.879  12.224  68.874  1.00  0.00    -0.196 C  
BRANCH   4   5
HETATM    5  O   UNL     1     -11.126  12.167  67.458  1.00  0.00    -0.245 OA 
BRANCH   5   6
HETATM    6  C   UNL     1     -10.303  11.251  66.740  1.00  0.00    -0.238 C  
HETATM    7  C   UNL     1      -9.805   8.917  66.467  1.00  0.00    -0.274 C  
HETATM    8  O   UNL     1     -10.562   9.908  67.186  1.00  0.00    -0.245 OA 
HETATM    9  H   UNL     1      -7.590  13.160  66.632  1.00  0.00     0.000 HD 
HETATM   10  C   UNL     1      -8.293   9.155  66.598  1.00  0.00    -0.122 C  
HETATM   11  O   UNL     1      -8.508  12.943  66.512  1.00  0.00     0.002 OA 
HETATM   12  O   UNL     1      -7.811   9.032  67.945  1.00  0.00    -0.099 OA 
HETATM   13  C   UNL     1      -7.973  10.581  66.132  1.00  0.00    -0.147 C  
HETATM   14  H   UNL     1      -6.876   9.179  68.026  1.00  0.00     0.000 HD 
HETATM   15  H   UNL     1      -6.366  11.701  65.944  1.00  0.00     0.000 HD 
HETATM   16  O   UNL     1      -6.564  10.818  66.233  1.00  0.00    -0.116 OA 
HETATM   17  C   UNL     1      -8.802  11.605  66.937  1.00  0.00    -0.190 C  
BRANCH   7  18
HETATM   18  C   UNL     1     -10.210   7.537  66.992  1.00  0.00    -0.298 C  
HETATM   19  O   UNL     1      -9.619   7.310  68.268  1.00  0.00    -0.146 OA 
HETATM   20  H   UNL     1      -9.870   6.454  68.594  1.00  0.00     0.000 HD 
ENDBRANCH   7  18
ENDBRANCH   5   6
ENDBRANCH   4   5
BRANCH   4  21
HETATM   21  C   UNL     1     -11.091  13.682  69.384  1.00  0.00    -0.141 C  
HETATM   22  H   UNL     1     -12.528  14.740  70.278  1.00  0.00     0.000 HD 
HETATM   23  O   UNL     1     -12.399  13.851  69.967  1.00  0.00    -0.330 OA 
BRANCH  21  24
HETATM   24  C   UNL     1     -10.948  14.731  68.276  1.00  0.00    -0.258 C  
HETATM   25  H   UNL     1     -12.058  16.170  67.520  1.00  0.00     0.000 HD 
HETATM   26  C   UNL     1      -9.797  15.698  68.505  1.00  0.00    -0.205 C  
HETATM   27  O   UNL     1     -12.147  15.520  68.207  1.00  0.00    -0.163 OA 
HETATM   28  O   UNL     1      -9.182  15.825  69.559  1.00  0.00    -0.260 OA 
ENDBRANCH  21  24
ENDBRANCH   4  21
ENDBRANCH   3   4
TORSDOF 6
ENDMDL
MODEL      245
REMARK 921   NORMALIZED FREE ENERGY PREDICTED BY IDOCK:   -3.08 KCAL/MOL
REMARK 922        TOTAL FREE ENERGY PREDICTED BY IDOCK:   -5.36 KCAL/MOL
REMARK 923 INTER-LIGAND FREE ENERGY PREDICTED BY IDOCK:   -4.85 KCAL/MOL
REMARK 924 INTRA-LIGAND FREE ENERGY PREDICTED BY IDOCK:   -0.52 KCAL/MOL
REMARK 927      BINDING AFFINITY PREDICTED BY RF-SCORE:    0.00 PKD
ROOT
HETATM    1  O   UNL     1     -13.401   7.264  70.909  1.00  0.00    -0.602 OA 
HETATM    2  H   UNL     1     -14.063   7.798  71.333  1.00  0.00     0.000 HD 
HETATM    3  C   UNL     1     -12.467   6.690  71.810  1.00  0.00    -0.311 C  
ENDROOT
BRANCH   3   4
HETATM    4  C   UNL     1     -11.390   5.821  71.119  1.00  0.00    -0.068 C  
BRANCH   4   5
HETATM    5  O   UNL     1     -10.657   6.471  70.065  1.00  0.00    -0.202 OA 
BRANCH   5   6
HETATM    6  C   UNL     1     -10.173   7.774  70.383  1.00  0.00    -0.197 C  
HETATM    7  C   UNL     1     -10.708  10.112  70.254  1.00  0.00    -0.293 C  
HETATM    8  O   UNL     1     -11.104   8.768  69.921  1.00  0.00    -0.220 OA 
HETATM    9  H   UNL     1      -6.968   7.159  69.776  1.00  0.00     0.000 HD 
HETATM   10  C   UNL     1      -9.337  10.463  69.658  1.00  0.00    -0.066 C  
HETATM   11  O   UNL     1      -7.821   7.020  70.169  1.00  0.00    -0.105 OA 
HETATM   12  O   UNL     1      -9.321  10.455  68.222  1.00  0.00    -0.142 OA 
HETATM   13  C   UNL     1      -8.312   9.422  70.126  1.00  0.00    -0.182 C  
HETATM   14  H   UNL     1      -8.473  10.672  67.853  1.00  0.00     0.000 HD 
HETATM   15  H   UNL     1      -6.386   9.097  69.882  1.00  0.00     0.000 HD 
HETATM   16  O   UNL     1      -7.022   9.741  69.592  1.00  0.00    -0.061 OA 
HETATM   17  C   UNL     1      -8.776   8.002  69.739  1.00  0.00    -0.136 C  
BRANCH   7  18
HETATM   18  C   UNL     1     -11.802  11.064  69.763  1.00  0.00    -0.347 C  
HETATM   19  O   UNL     1     -12.165  10.737  68.424  1.00  0.00    -0.832 OA 
HETATM   20  H   UNL     1     -12.844  11.327  68.120  1.00  0.00     0.000 HD 
ENDBRANCH   7  18
ENDBRANCH   5   6
ENDBRANCH   4   5
BRANCH   4  21
HETATM   21  C   UNL     1     -10.393   5.236  72.165  1.00  0.00    -0.212 C  
HETATM   22  H   UNL     1     -10.409   3.862  73.613  1.00  0.00     0.000 HD 
HETATM   23  O   UNL     1     -11.016   4.218  72.975  1.00  0.00    -0.201 OA 
BRANCH  21  24
HETATM   24  C   UNL     1      -9.835   6.297  73.120  1.00  0.00    -0.167 C  
HETATM   25  H   UNL     1     -10.184   6.883  74.967  1.00  0.00     0.000 HD 
HETATM   26  C   UNL     1      -8.356   6.116  73.425  1.00  0.00    -0.116 C  
HETATM   27  O   UNL     1     -10.530   6.225  74.376  1.00  0.00    -0.293 OA 
HETATM   28  O   UNL     1      -7.700   5.113  73.164  1.00  0.00    -0.095 OA 
ENDBRANCH  21  24
ENDBRANCH   4  21
ENDBRANCH   3   4
TORSDOF 6
ENDMDL
MODEL      246
REMARK 921   NORMALIZED FREE ENERGY PREDICTED BY IDOCK:   -3.07 KCAL/MOL
REMARK 922        TOTAL FREE ENERGY PREDICTED BY IDOCK:   -5.35 KCAL/MOL
REMARK 923 INTER-LIGAND FREE ENERGY PREDICTED BY IDOCK:   -4.57 KCAL/MOL
REMARK 924 INTRA-LIGAND FREE ENERGY PREDICTED BY IDOCK:   -0.78 KCAL/MOL
REMARK 927      BINDING AFFINITY PREDICTED BY RF-SCORE:    0.00 PKD
ROOT
HETATM    1  O   UNL     1     -11.523   4.917  65.456  1.00  0.00    -0.914 OA 
HETATM    2  H   UNL     1     -11.787   4.111  65.028  1.00  0.00     0.000 HD 
HETATM    3  C   UNL     1     -10.173   4.915  65.894  1.00  0.00    -0.223 C  
ENDROOT
BRANCH   3   4
HETATM    4  C   UNL     1      -9.743   6.227  66.592  1.00  0.00    -0.155 C  
BRANCH   4   5
HETATM    5  O   UNL     1      -9.920   6.250  68.020  1.00  0.00    -0.127 OA 
BRANCH   5   6
HETATM    6  C   UNL     1     -10.630   7.381  68.521  1.00  0.00    -0.153 C  
HETATM    7  C   UNL     1     -11.006   9.727  68.170  1.00  0.00    -0.175 C  
HETATM    8  O   UNL     1     -10.286   8.550  67.758  1.00  0.00    -0.199 OA 
HETATM    9  H   UNL     1     -10.419   6.584  71.736  1.00  0.00     0.000 HD 
HETATM   10  C   UNL     1     -10.749  10.058  69.648  1.00  0.00    -0.255 C  
HETATM   11  O   UNL     1     -10.620   6.449  70.817  1.00  0.00    -0.220 OA 
HETATM   12  O   UNL     1      -9.380  10.387  69.929  1.00  0.00    -0.407 OA 
HETATM   13  C   UNL     1     -11.102   8.832  70.500  1.00  0.00    -0.246 C  
HETATM   14  H   UNL     1      -9.221  10.592  70.843  1.00  0.00     0.000 HD 
HETATM   15  H   UNL     1     -11.102   8.367  72.412  1.00  0.00     0.000 HD 
HETATM   16  O   UNL     1     -10.883   9.126  71.884  1.00  0.00    -0.359 OA 
HETATM   17  C   UNL     1     -10.300   7.602  70.024  1.00  0.00    -0.223 C  
BRANCH   7  18
HETATM   18  C   UNL     1     -10.598  10.881  67.251  1.00  0.00    -0.251 C  
HETATM   19  O   UNL     1     -10.692  12.118  67.953  1.00  0.00    -0.196 OA 
HETATM   20  H   UNL     1     -10.438  12.833  67.382  1.00  0.00     0.000 HD 
ENDBRANCH   7  18
ENDBRANCH   5   6
ENDBRANCH   4   5
BRANCH   4  21
HETATM   21  C   UNL     1      -8.267   6.584  66.243  1.00  0.00    -0.119 C  
HETATM   22  H   UNL     1      -7.273   7.461  64.750  1.00  0.00     0.000 HD 
HETATM   23  O   UNL     1      -8.173   7.243  64.963  1.00  0.00    -0.137 OA 
BRANCH  21  24
HETATM   24  C   UNL     1      -7.349   5.358  66.191  1.00  0.00    -0.081 C  
HETATM   25  H   UNL     1      -5.865   4.731  65.058  1.00  0.00     0.000 HD 
HETATM   26  C   UNL     1      -6.506   5.181  67.444  1.00  0.00    -0.049 C  
HETATM   27  O   UNL     1      -6.434   5.491  65.090  1.00  0.00    -0.037 OA 
HETATM   28  O   UNL     1      -6.356   6.030  68.318  1.00  0.00    -0.040 OA 
ENDBRANCH  21  24
ENDBRANCH   4  21
ENDBRANCH   3   4
TORSDOF 6
ENDMDL
MODEL      247
REMARK 921   NORMALIZED FREE ENERGY PREDICTED BY IDOCK:   -3.06 KCAL/MOL
REMARK 922        TOTAL FREE ENERGY PREDICTED BY IDOCK:   -5.34 KCAL/MOL
REMARK 923 INTER-LIGAND FREE ENERGY PREDICTED BY IDOCK:   -4.56 KCAL/MOL
REMARK 924 INTRA-LIGAND FREE ENERGY PREDICTED BY IDOCK:   -0.78 KCAL/MOL
REMARK 927      BINDING AFFINITY PREDICTED BY RF-SCORE:    0.00 PKD
ROOT
HETATM    1  O   UNL     1      -9.212   6.182  71.940  1.00  0.00    -0.148 OA 
HETATM    2  H   UNL     1      -8.716   5.438  72.262  1.00  0.00     0.000 HD 
HETATM    3  C   UNL     1      -8.749   6.680  70.695  1.00  0.00    -0.143 C  
ENDROOT
BRANCH   3   4
HETATM    4  C   UNL     1      -9.557   7.891  70.170  1.00  0.00    -0.175 C  
BRANCH   4   5
HETATM    5  O   UNL     1     -10.641   7.568  69.280  1.00  0.00    -0.223 OA 
BRANCH   5   6
HETATM    6  C   UNL     1     -10.399   7.859  67.906  1.00  0.00    -0.221 C  
HETATM    7  C   UNL     1      -8.971   7.329  66.048  1.00  0.00    -0.116 C  
HETATM    8  O   UNL     1      -9.248   7.128  67.447  1.00  0.00    -0.125 OA 
HETATM    9  H   UNL     1     -11.177  11.083  68.044  1.00  0.00     0.000 HD 
HETATM   10  C   UNL     1      -8.725   8.810  65.727  1.00  0.00    -0.179 C  
HETATM   11  O   UNL     1     -11.308  10.149  68.165  1.00  0.00    -0.237 OA 
HETATM   12  O   UNL     1      -7.565   9.350  66.379  1.00  0.00    -0.096 OA 
HETATM   13  C   UNL     1      -9.933   9.628  66.203  1.00  0.00    -0.276 C  
HETATM   14  H   UNL     1      -7.413  10.267  66.180  1.00  0.00     0.000 HD 
HETATM   15  H   UNL     1     -10.477  11.519  66.194  1.00  0.00     0.000 HD 
HETATM   16  O   UNL     1      -9.729  11.013  65.899  1.00  0.00    -0.206 OA 
HETATM   17  C   UNL     1     -10.183   9.386  67.707  1.00  0.00    -0.222 C  
BRANCH   7  18
HETATM   18  C   UNL     1      -7.768   6.459  65.673  1.00  0.00    -0.094 C  
HETATM   19  O   UNL     1      -7.372   5.670  66.791  1.00  0.00    -0.080 OA 
HETATM   20  H   UNL     1      -6.626   5.130  66.558  1.00  0.00     0.000 HD 
ENDBRANCH   7  18
ENDBRANCH   5   6
ENDBRANCH   4   5
BRANCH   4  21
HETATM   21  C   UNL     1     -10.090   8.758  71.350  1.00  0.00    -0.284 C  
HETATM   22  H   UNL     1      -9.481   9.312  73.169  1.00  0.00     0.000 HD 
HETATM   23  O   UNL     1      -9.155   8.784  72.449  1.00  0.00    -0.366 OA 
BRANCH  21  24
HETATM   24  C   UNL     1     -11.429   8.259  71.904  1.00  0.00    -0.310 C  
HETATM   25  H   UNL     1     -12.104   7.604  73.633  1.00  0.00     0.000 HD 
HETATM   26  C   UNL     1     -12.537   9.298  71.830  1.00  0.00    -0.390 C  
HETATM   27  O   UNL     1     -11.274   7.913  73.291  1.00  0.00    -0.308 OA 
HETATM   28  O   UNL     1     -12.371  10.491  71.597  1.00  0.00    -0.362 OA 
ENDBRANCH  21  24
ENDBRANCH   4  21
ENDBRANCH   3   4
TORSDOF 6
ENDMDL
MODEL      248
REMARK 921   NORMALIZED FREE ENERGY PREDICTED BY IDOCK:   -3.06 KCAL/MOL
REMARK 922        TOTAL FREE ENERGY PREDICTED BY IDOCK:   -5.33 KCAL/MOL
REMARK 923 INTER-LIGAND FREE ENERGY PREDICTED BY IDOCK:   -4.28 KCAL/MOL
REMARK 924 INTRA-LIGAND FREE ENERGY PREDICTED BY IDOCK:   -1.05 KCAL/MOL
REMARK 927      BINDING AFFINITY PREDICTED BY RF-SCORE:    0.00 PKD
ROOT
HETATM    1  O   UNL     1      -7.594  11.945  69.137  1.00  0.00    -0.308 OA 
HETATM    2  H   UNL     1      -7.156  12.787  69.194  1.00  0.00     0.000 HD 
HETATM    3  C   UNL     1      -8.632  11.906  68.171  1.00  0.00    -0.165 C  
ENDROOT
BRANCH   3   4
HETATM    4  C   UNL     1      -9.345  10.536  68.078  1.00  0.00    -0.145 C  
BRANCH   4   5
HETATM    5  O   UNL     1      -9.719   9.950  69.339  1.00  0.00    -0.189 OA 
BRANCH   5   6
HETATM    6  C   UNL     1      -9.045   8.737  69.663  1.00  0.00    -0.149 C  
HETATM    7  C   UNL     1      -9.362   6.373  69.942  1.00  0.00    -0.151 C  
HETATM    8  O   UNL     1      -9.980   7.645  69.674  1.00  0.00    -0.180 OA 
HETATM    9  H   UNL     1      -6.985  10.028  71.924  1.00  0.00     0.000 HD 
HETATM   10  C   UNL     1      -8.644   6.368  71.300  1.00  0.00    -0.127 C  
HETATM   11  O   UNL     1      -7.412   9.951  71.079  1.00  0.00    -0.289 OA 
HETATM   12  O   UNL     1      -9.531   6.551  72.414  1.00  0.00    -0.147 OA 
HETATM   13  C   UNL     1      -7.635   7.523  71.332  1.00  0.00    -0.081 C  
HETATM   14  H   UNL     1      -9.087   6.548  73.255  1.00  0.00     0.000 HD 
HETATM   15  H   UNL     1      -6.319   8.241  72.607  1.00  0.00     0.000 HD 
HETATM   16  O   UNL     1      -6.944   7.527  72.587  1.00  0.00    -0.066 OA 
HETATM   17  C   UNL     1      -8.347   8.863  71.048  1.00  0.00    -0.191 C  
BRANCH   7  18
HETATM   18  C   UNL     1     -10.445   5.293  69.868  1.00  0.00    -0.281 C  
HETATM   19  O   UNL     1     -10.280   4.366  70.938  1.00  0.00    -0.164 OA 
HETATM   20  H   UNL     1     -10.952   3.696  70.892  1.00  0.00     0.000 HD 
ENDBRANCH   7  18
ENDBRANCH   5   6
ENDBRANCH   4   5
BRANCH   4  21
HETATM   21  C   UNL     1     -10.594  10.620  67.150  1.00  0.00    -0.260 C  
HETATM   22  H   UNL     1     -11.043  10.248  65.241  1.00  0.00     0.000 HD 
HETATM   23  O   UNL     1     -10.281  10.196  65.807  1.00  0.00    -0.263 OA 
BRANCH  21  24
HETATM   24  C   UNL     1     -11.177  12.034  67.056  1.00  0.00    -0.320 C  
HETATM   25  H   UNL     1     -12.286  13.040  65.778  1.00  0.00     0.000 HD 
HETATM   26  C   UNL     1     -12.128  12.372  68.193  1.00  0.00    -0.040 C  
HETATM   27  O   UNL     1     -11.925  12.164  65.836  1.00  0.00    -0.561 OA 
HETATM   28  O   UNL     1     -12.602  11.559  68.980  1.00  0.00    -0.203 OA 
ENDBRANCH  21  24
ENDBRANCH   4  21
ENDBRANCH   3   4
TORSDOF 6
ENDMDL
MODEL      249
REMARK 921   NORMALIZED FREE ENERGY PREDICTED BY IDOCK:   -3.02 KCAL/MOL
REMARK 922        TOTAL FREE ENERGY PREDICTED BY IDOCK:   -5.29 KCAL/MOL
REMARK 923 INTER-LIGAND FREE ENERGY PREDICTED BY IDOCK:   -4.34 KCAL/MOL
REMARK 924 INTRA-LIGAND FREE ENERGY PREDICTED BY IDOCK:   -0.95 KCAL/MOL
REMARK 927      BINDING AFFINITY PREDICTED BY RF-SCORE:    0.00 PKD
ROOT
HETATM    1  O   UNL     1     -12.234  12.043  70.957  1.00  0.00    -0.330 OA 
HETATM    2  H   UNL     1     -12.789  12.811  70.879  1.00  0.00     0.000 HD 
HETATM    3  C   UNL     1     -12.028  11.361  69.730  1.00  0.00    -0.353 C  
ENDROOT
BRANCH   3   4
HETATM    4  C   UNL     1     -11.126  10.111  69.857  1.00  0.00    -0.293 C  
BRANCH   4   5
HETATM    5  O   UNL     1      -9.711  10.374  69.891  1.00  0.00    -0.149 OA 
BRANCH   5   6
HETATM    6  C   UNL     1      -8.905   9.426  69.194  1.00  0.00    -0.143 C  
HETATM    7  C   UNL     1      -9.002   7.512  67.746  1.00  0.00    -0.131 C  
HETATM    8  O   UNL     1      -9.745   8.474  68.518  1.00  0.00    -0.157 OA 
HETATM    9  H   UNL     1      -6.522   9.175  71.491  1.00  0.00     0.000 HD 
HETATM   10  C   UNL     1      -8.026   6.714  68.623  1.00  0.00    -0.118 C  
HETATM   11  O   UNL     1      -7.105   9.619  70.886  1.00  0.00    -0.255 OA 
HETATM   12  O   UNL     1      -8.680   5.911  69.618  1.00  0.00    -0.125 OA 
HETATM   13  C   UNL     1      -7.110   7.696  69.366  1.00  0.00    -0.075 C  
HETATM   14  H   UNL     1      -8.076   5.417  70.160  1.00  0.00     0.000 HD 
HETATM   15  H   UNL     1      -5.615   7.577  70.639  1.00  0.00     0.000 HD 
HETATM   16  O   UNL     1      -6.182   6.969  70.179  1.00  0.00    -0.027 OA 
HETATM   17  C   UNL     1      -7.952   8.698  70.184  1.00  0.00    -0.103 C  
BRANCH   7  18
HETATM   18  C   UNL     1     -10.003   6.599  67.034  1.00  0.00    -0.169 C  
HETATM   19  O   UNL     1     -10.956   6.101  67.970  1.00  0.00    -0.312 OA 
HETATM   20  H   UNL     1     -11.577   5.535  67.528  1.00  0.00     0.000 HD 
ENDBRANCH   7  18
ENDBRANCH   5   6
ENDBRANCH   4   5
BRANCH   4  21
HETATM   21  C   UNL     1     -11.528   9.258  71.098  1.00  0.00    -0.333 C  
HETATM   22  H   UNL     1     -10.690   8.641  72.801  1.00  0.00     0.000 HD 
HETATM   23  O   UNL     1     -10.444   9.161  72.045  1.00  0.00    -0.322 OA 
BRANCH  21  24
HETATM   24  C   UNL     1     -11.944   7.829  70.735  1.00  0.00    -0.149 C  
HETATM   25  H   UNL     1     -11.180   6.025  70.932  1.00  0.00     0.000 HD 
HETATM   26  C   UNL     1     -13.236   7.387  71.404  1.00  0.00    -0.339 C  
HETATM   27  O   UNL     1     -10.922   6.911  71.157  1.00  0.00    -0.240 OA 
HETATM   28  O   UNL     1     -13.787   7.974  72.329  1.00  0.00    -0.216 OA 
ENDBRANCH  21  24
ENDBRANCH   4  21
ENDBRANCH   3   4
TORSDOF 6
ENDMDL
MODEL      250
REMARK 921   NORMALIZED FREE ENERGY PREDICTED BY IDOCK:   -3.02 KCAL/MOL
REMARK 922        TOTAL FREE ENERGY PREDICTED BY IDOCK:   -5.29 KCAL/MOL
REMARK 923 INTER-LIGAND FREE ENERGY PREDICTED BY IDOCK:   -4.25 KCAL/MOL
REMARK 924 INTRA-LIGAND FREE ENERGY PREDICTED BY IDOCK:   -1.03 KCAL/MOL
REMARK 927      BINDING AFFINITY PREDICTED BY RF-SCORE:    0.00 PKD
ROOT
HETATM    1  O   UNL     1     -12.142  15.678  67.642  1.00  0.00    -0.117 OA 
HETATM    2  H   UNL     1     -13.041  15.980  67.699  1.00  0.00     0.000 HD 
HETATM    3  C   UNL     1     -12.021  14.274  67.474  1.00  0.00    -0.376 C  
ENDROOT
BRANCH   3   4
HETATM    4  C   UNL     1     -10.557  13.783  67.380  1.00  0.00    -0.260 C  
BRANCH   4   5
HETATM    5  O   UNL     1      -9.722  14.119  68.503  1.00  0.00    -0.219 OA 
BRANCH   5   6
HETATM    6  C   UNL     1      -8.438  14.639  68.165  1.00  0.00    -0.156 C  
HETATM    7  C   UNL     1      -6.100  14.486  68.693  1.00  0.00    -0.084 C  
HETATM    8  O   UNL     1      -7.435  14.049  69.010  1.00  0.00    -0.119 OA 
HETATM    9  H   UNL     1      -9.418  17.756  67.583  1.00  0.00     0.000 HD 
HETATM   10  C   UNL     1      -5.958  16.010  68.817  1.00  0.00    -0.105 C  
HETATM   11  O   UNL     1      -9.425  16.810  67.493  1.00  0.00    -0.233 OA 
HETATM   12  O   UNL     1      -6.160  16.495  70.153  1.00  0.00    -0.192 OA 
HETATM   13  C   UNL     1      -7.016  16.680  67.930  1.00  0.00    -0.144 C  
HETATM   14  H   UNL     1      -6.073  17.438  70.230  1.00  0.00     0.000 HD 
HETATM   15  H   UNL     1      -7.545  18.519  67.471  1.00  0.00     0.000 HD 
HETATM   16  O   UNL     1      -6.891  18.104  68.021  1.00  0.00    -0.200 OA 
HETATM   17  C   UNL     1      -8.427  16.187  68.314  1.00  0.00    -0.180 C  
BRANCH   7  18
HETATM   18  C   UNL     1      -5.126  13.748  69.616  1.00  0.00    -0.084 C  
HETATM   19  O   UNL     1      -5.753  13.482  70.868  1.00  0.00    -0.182 OA 
HETATM   20  H   UNL     1      -5.149  13.024  71.441  1.00  0.00     0.000 HD 
ENDBRANCH   7  18
ENDBRANCH   5   6
ENDBRANCH   4   5
BRANCH   4  21
HETATM   21  C   UNL     1     -10.501  12.246  67.129  1.00  0.00    -0.219 C  
HETATM   22  H   UNL     1     -11.546  10.875  66.122  1.00  0.00     0.000 HD 
HETATM   23  O   UNL     1     -11.580  11.812  66.275  1.00  0.00    -0.441 OA 
BRANCH  21  24
HETATM   24  C   UNL     1     -10.583  11.424  68.419  1.00  0.00    -0.202 C  
HETATM   25  H   UNL     1     -11.942  10.328  69.330  1.00  0.00     0.000 HD 
HETATM   26  C   UNL     1      -9.583  10.280  68.472  1.00  0.00    -0.161 C  
HETATM   27  O   UNL     1     -11.891  10.837  68.531  1.00  0.00    -0.444 OA 
HETATM   28  O   UNL     1      -8.935   9.866  67.516  1.00  0.00    -0.134 OA 
ENDBRANCH  21  24
ENDBRANCH   4  21
ENDBRANCH   3   4
TORSDOF 6
ENDMDL
MODEL      251
REMARK 921   NORMALIZED FREE ENERGY PREDICTED BY IDOCK:   -3.02 KCAL/MOL
REMARK 922        TOTAL FREE ENERGY PREDICTED BY IDOCK:   -5.28 KCAL/MOL
REMARK 923 INTER-LIGAND FREE ENERGY PREDICTED BY IDOCK:   -4.04 KCAL/MOL
REMARK 924 INTRA-LIGAND FREE ENERGY PREDICTED BY IDOCK:   -1.24 KCAL/MOL
REMARK 927      BINDING AFFINITY PREDICTED BY RF-SCORE:    0.00 PKD
ROOT
HETATM    1  O   UNL     1      -8.205   6.609  67.489  1.00  0.00    -0.120 OA 
HETATM    2  H   UNL     1      -7.588   5.983  67.126  1.00  0.00     0.000 HD 
HETATM    3  C   UNL     1      -9.546   6.146  67.500  1.00  0.00    -0.112 C  
ENDROOT
BRANCH   3   4
HETATM    4  C   UNL     1     -10.551   7.165  68.091  1.00  0.00    -0.192 C  
BRANCH   4   5
HETATM    5  O   UNL     1     -10.392   7.443  69.494  1.00  0.00    -0.205 OA 
BRANCH   5   6
HETATM    6  C   UNL     1      -9.659   6.461  70.223  1.00  0.00    -0.164 C  
HETATM    7  C   UNL     1      -9.862   4.780  71.927  1.00  0.00    -0.176 C  
HETATM    8  O   UNL     1     -10.519   5.826  71.185  1.00  0.00    -0.219 OA 
HETATM    9  H   UNL     1      -6.823   8.171  70.443  1.00  0.00     0.000 HD 
HETATM   10  C   UNL     1      -8.640   5.311  72.692  1.00  0.00    -0.117 C  
HETATM   11  O   UNL     1      -7.567   7.771  70.008  1.00  0.00    -0.082 OA 
HETATM   12  O   UNL     1      -8.974   6.278  73.699  1.00  0.00    -0.124 OA 
HETATM   13  C   UNL     1      -7.696   6.001  71.699  1.00  0.00    -0.101 C  
HETATM   14  H   UNL     1      -8.218   6.607  74.172  1.00  0.00     0.000 HD 
HETATM   15  H   UNL     1      -5.956   6.918  71.777  1.00  0.00     0.000 HD 
HETATM   16  O   UNL     1      -6.541   6.491  72.391  1.00  0.00    -0.058 OA 
HETATM   17  C   UNL     1      -8.442   7.116  70.937  1.00  0.00    -0.133 C  
BRANCH   7  18
HETATM   18  C   UNL     1     -10.891   4.148  72.869  1.00  0.00    -0.120 C  
HETATM   19  O   UNL     1     -11.812   5.139  73.317  1.00  0.00    -0.527 OA 
HETATM   20  H   UNL     1     -12.450   4.747  73.901  1.00  0.00     0.000 HD 
ENDBRANCH   7  18
ENDBRANCH   5   6
ENDBRANCH   4   5
BRANCH   4  21
HETATM   21  C   UNL     1     -10.526   8.500  67.287  1.00  0.00    -0.296 C  
HETATM   22  H   UNL     1      -9.811   9.162  65.545  1.00  0.00     0.000 HD 
HETATM   23  O   UNL     1      -9.826   8.348  66.035  1.00  0.00    -0.182 OA 
BRANCH  21  24
HETATM   24  C   UNL     1      -9.852   9.646  68.049  1.00  0.00    -0.150 C  
HETATM   25  H   UNL     1      -8.352  10.881  67.736  1.00  0.00     0.000 HD 
HETATM   26  C   UNL     1     -10.788  10.809  68.341  1.00  0.00    -0.232 C  
HETATM   27  O   UNL     1      -8.769  10.171  67.263  1.00  0.00    -0.128 OA 
HETATM   28  O   UNL     1     -11.892  10.970  67.831  1.00  0.00    -0.600 OA 
ENDBRANCH  21  24
ENDBRANCH   4  21
ENDBRANCH   3   4
TORSDOF 6
ENDMDL
MODEL      252
REMARK 921   NORMALIZED FREE ENERGY PREDICTED BY IDOCK:   -3.01 KCAL/MOL
REMARK 922        TOTAL FREE ENERGY PREDICTED BY IDOCK:   -5.27 KCAL/MOL
REMARK 923 INTER-LIGAND FREE ENERGY PREDICTED BY IDOCK:   -4.67 KCAL/MOL
REMARK 924 INTRA-LIGAND FREE ENERGY PREDICTED BY IDOCK:   -0.60 KCAL/MOL
REMARK 927      BINDING AFFINITY PREDICTED BY RF-SCORE:    0.00 PKD
ROOT
HETATM    1  O   UNL     1     -11.387   5.921  66.165  1.00  0.00    -0.656 OA 
HETATM    2  H   UNL     1     -12.321   5.752  66.212  1.00  0.00     0.000 HD 
HETATM    3  C   UNL     1     -10.911   6.783  67.186  1.00  0.00    -0.392 C  
ENDROOT
BRANCH   3   4
HETATM    4  C   UNL     1      -9.390   7.058  67.110  1.00  0.00    -0.143 C  
BRANCH   4   5
HETATM    5  O   UNL     1      -8.940   8.227  67.819  1.00  0.00    -0.136 OA 
BRANCH   5   6
HETATM    6  C   UNL     1      -8.785   9.395  67.016  1.00  0.00    -0.127 C  
HETATM    7  C   UNL     1      -9.953  11.309  66.154  1.00  0.00    -0.228 C  
HETATM    8  O   UNL     1     -10.042  10.085  66.908  1.00  0.00    -0.208 OA 
HETATM    9  H   UNL     1      -6.682   8.078  64.811  1.00  0.00     0.000 HD 
HETATM   10  C   UNL     1      -9.449  11.058  64.725  1.00  0.00    -0.230 C  
HETATM   11  O   UNL     1      -7.006   8.312  65.673  1.00  0.00    -0.065 OA 
HETATM   12  O   UNL     1     -10.337  10.245  63.942  1.00  0.00    -0.451 OA 
HETATM   13  C   UNL     1      -8.106  10.319  64.795  1.00  0.00    -0.151 C  
HETATM   14  H   UNL     1     -10.026  10.090  63.058  1.00  0.00     0.000 HD 
HETATM   15  H   UNL     1      -6.780   9.631  63.514  1.00  0.00     0.000 HD 
HETATM   16  O   UNL     1      -7.612  10.088  63.471  1.00  0.00    -0.140 OA 
HETATM   17  C   UNL     1      -8.256   9.013  65.605  1.00  0.00    -0.119 C  
BRANCH   7  18
HETATM   18  C   UNL     1     -11.332  11.973  66.161  1.00  0.00    -0.351 C  
HETATM   19  O   UNL     1     -11.994  11.702  67.394  1.00  0.00    -0.621 OA 
HETATM   20  H   UNL     1     -12.850  12.114  67.399  1.00  0.00     0.000 HD 
ENDBRANCH   7  18
ENDBRANCH   5   6
ENDBRANCH   4   5
BRANCH   4  21
HETATM   21  C   UNL     1      -8.576   5.816  67.581  1.00  0.00    -0.101 C  
HETATM   22  H   UNL     1      -6.954   5.444  68.683  1.00  0.00     0.000 HD 
HETATM   23  O   UNL     1      -7.450   6.202  68.396  1.00  0.00    -0.084 OA 
BRANCH  21  24
HETATM   24  C   UNL     1      -8.030   4.980  66.419  1.00  0.00    -0.107 C  
HETATM   25  H   UNL     1      -6.290   4.222  65.898  1.00  0.00     0.000 HD 
HETATM   26  C   UNL     1      -8.696   3.619  66.289  1.00  0.00    -0.120 C  
HETATM   27  O   UNL     1      -6.627   4.740  66.619  1.00  0.00    -0.047 OA 
HETATM   28  O   UNL     1      -9.412   3.101  67.140  1.00  0.00    -0.189 OA 
ENDBRANCH  21  24
ENDBRANCH   4  21
ENDBRANCH   3   4
TORSDOF 6
ENDMDL
MODEL      253
REMARK 921   NORMALIZED FREE ENERGY PREDICTED BY IDOCK:   -2.99 KCAL/MOL
REMARK 922        TOTAL FREE ENERGY PREDICTED BY IDOCK:   -5.24 KCAL/MOL
REMARK 923 INTER-LIGAND FREE ENERGY PREDICTED BY IDOCK:   -5.81 KCAL/MOL
REMARK 924 INTRA-LIGAND FREE ENERGY PREDICTED BY IDOCK:    0.57 KCAL/MOL
REMARK 927      BINDING AFFINITY PREDICTED BY RF-SCORE:    0.00 PKD
ROOT
HETATM    1  O   UNL     1     -11.425  12.971  69.698  1.00  0.00    -0.400 OA 
HETATM    2  H   UNL     1     -11.937  13.760  69.836  1.00  0.00     0.000 HD 
HETATM    3  C   UNL     1     -11.870  12.187  68.603  1.00  0.00    -0.306 C  
ENDROOT
BRANCH   3   4
HETATM    4  C   UNL     1     -11.037  10.902  68.378  1.00  0.00    -0.262 C  
BRANCH   4   5
HETATM    5  O   UNL     1     -10.190  10.914  67.215  1.00  0.00    -0.191 OA 
BRANCH   5   6
HETATM    6  C   UNL     1     -10.134  12.159  66.523  1.00  0.00    -0.209 C  
HETATM    7  C   UNL     1      -9.874  14.526  66.838  1.00  0.00    -0.262 C  
HETATM    8  O   UNL     1      -9.993  13.236  67.466  1.00  0.00    -0.218 OA 
HETATM    9  H   UNL     1     -12.379  11.416  64.194  1.00  0.00     0.000 HD 
HETATM   10  C   UNL     1     -11.097  14.845  65.965  1.00  0.00    -0.334 C  
HETATM   11  O   UNL     1     -11.596  11.295  64.719  1.00  0.00    -0.010 OA 
HETATM   12  O   UNL     1     -12.320  14.947  66.712  1.00  0.00    -0.271 OA 
HETATM   13  C   UNL     1     -11.286  13.716  64.943  1.00  0.00    -0.344 C  
HETATM   14  H   UNL     1     -13.077  15.144  66.172  1.00  0.00     0.000 HD 
HETATM   15  H   UNL     1     -12.531  13.304  63.477  1.00  0.00     0.000 HD 
HETATM   16  O   UNL     1     -12.415  14.002  64.110  1.00  0.00    -0.665 OA 
HETATM   17  C   UNL     1     -11.416  12.358  65.665  1.00  0.00    -0.367 C  
BRANCH   7  18
HETATM   18  C   UNL     1      -9.672  15.573  67.937  1.00  0.00    -0.211 C  
HETATM   19  O   UNL     1      -9.373  16.838  67.353  1.00  0.00    -0.230 OA 
HETATM   20  H   UNL     1      -9.248  17.487  68.035  1.00  0.00     0.000 HD 
ENDBRANCH   7  18
ENDBRANCH   5   6
ENDBRANCH   4   5
BRANCH   4  21
HETATM   21  C   UNL     1     -10.187  10.563  69.640  1.00  0.00    -0.168 C  
HETATM   22  H   UNL     1      -8.303  10.056  70.059  1.00  0.00     0.000 HD 
HETATM   23  O   UNL     1      -8.821  10.263  69.290  1.00  0.00    -0.164 OA 
BRANCH  21  24
HETATM   24  C   UNL     1     -10.730   9.363  70.424  1.00  0.00    -0.263 C  
HETATM   25  H   UNL     1     -10.040   8.114  71.780  1.00  0.00     0.000 HD 
HETATM   26  C   UNL     1     -11.923   9.705  71.302  1.00  0.00    -0.380 C  
HETATM   27  O   UNL     1      -9.704   8.857  71.294  1.00  0.00    -0.235 OA 
HETATM   28  O   UNL     1     -12.291  10.842  71.579  1.00  0.00    -0.324 OA 
ENDBRANCH  21  24
ENDBRANCH   4  21
ENDBRANCH   3   4
TORSDOF 6
ENDMDL
MODEL      254
REMARK 921   NORMALIZED FREE ENERGY PREDICTED BY IDOCK:   -2.98 KCAL/MOL
REMARK 922        TOTAL FREE ENERGY PREDICTED BY IDOCK:   -5.23 KCAL/MOL
REMARK 923 INTER-LIGAND FREE ENERGY PREDICTED BY IDOCK:   -4.21 KCAL/MOL
REMARK 924 INTRA-LIGAND FREE ENERGY PREDICTED BY IDOCK:   -1.03 KCAL/MOL
REMARK 927      BINDING AFFINITY PREDICTED BY RF-SCORE:    0.00 PKD
ROOT
HETATM    1  O   UNL     1     -10.436   7.089  66.357  1.00  0.00    -0.489 OA 
HETATM    2  H   UNL     1     -10.787   6.778  65.530  1.00  0.00     0.000 HD 
HETATM    3  C   UNL     1     -11.154   6.627  67.491  1.00  0.00    -0.292 C  
ENDROOT
BRANCH   3   4
HETATM    4  C   UNL     1     -10.583   7.131  68.837  1.00  0.00    -0.201 C  
BRANCH   4   5
HETATM    5  O   UNL     1     -11.130   8.376  69.309  1.00  0.00    -0.031 OA 
BRANCH   5   6
HETATM    6  C   UNL     1     -10.387   9.537  68.944  1.00  0.00    -0.208 C  
HETATM    7  C   UNL     1      -9.584  10.797  67.063  1.00  0.00    -0.169 C  
HETATM    8  O   UNL     1     -10.278   9.617  67.512  1.00  0.00    -0.191 OA 
HETATM    9  H   UNL     1      -8.179   9.383  71.418  1.00  0.00     0.000 HD 
HETATM   10  C   UNL     1      -8.159  10.866  67.631  1.00  0.00    -0.115 C  
HETATM   11  O   UNL     1      -9.043   9.406  71.022  1.00  0.00    -0.216 OA 
HETATM   12  O   UNL     1      -7.315   9.791  67.187  1.00  0.00    -0.087 OA 
HETATM   13  C   UNL     1      -8.230  10.780  69.161  1.00  0.00    -0.120 C  
HETATM   14  H   UNL     1      -6.433   9.834  67.539  1.00  0.00     0.000 HD 
HETATM   15  H   UNL     1      -6.954  10.805  70.659  1.00  0.00     0.000 HD 
HETATM   16  O   UNL     1      -6.910  10.857  69.711  1.00  0.00    -0.129 OA 
HETATM   17  C   UNL     1      -8.973   9.498  69.592  1.00  0.00    -0.188 C  
BRANCH   7  18
HETATM   18  C   UNL     1      -9.586  10.794  65.532  1.00  0.00    -0.222 C  
HETATM   19  O   UNL     1      -8.457  11.515  65.044  1.00  0.00    -0.302 OA 
HETATM   20  H   UNL     1      -8.458  11.513  64.095  1.00  0.00     0.000 HD 
ENDBRANCH   7  18
ENDBRANCH   5   6
ENDBRANCH   4   5
BRANCH   4  21
HETATM   21  C   UNL     1     -10.727   6.044  69.945  1.00  0.00    -0.325 C  
HETATM   22  H   UNL     1     -11.958   5.635  71.462  1.00  0.00     0.000 HD 
HETATM   23  O   UNL     1     -11.871   6.298  70.786  1.00  0.00    -0.307 OA 
BRANCH  21  24
HETATM   24  C   UNL     1      -9.501   5.953  70.859  1.00  0.00    -0.165 C  
HETATM   25  H   UNL     1      -9.086   6.369  72.738  1.00  0.00     0.000 HD 
HETATM   26  C   UNL     1      -8.976   4.535  71.025  1.00  0.00    -0.121 C  
HETATM   27  O   UNL     1      -9.846   6.425  72.172  1.00  0.00    -0.160 OA 
HETATM   28  O   UNL     1      -9.575   3.518  70.692  1.00  0.00    -0.169 OA 
ENDBRANCH  21  24
ENDBRANCH   4  21
ENDBRANCH   3   4
TORSDOF 6
ENDMDL
MODEL      255
REMARK 921   NORMALIZED FREE ENERGY PREDICTED BY IDOCK:   -2.95 KCAL/MOL
REMARK 922        TOTAL FREE ENERGY PREDICTED BY IDOCK:   -5.19 KCAL/MOL
REMARK 923 INTER-LIGAND FREE ENERGY PREDICTED BY IDOCK:   -5.97 KCAL/MOL
REMARK 924 INTRA-LIGAND FREE ENERGY PREDICTED BY IDOCK:    0.77 KCAL/MOL
REMARK 927      BINDING AFFINITY PREDICTED BY RF-SCORE:    0.00 PKD
ROOT
HETATM    1  O   UNL     1      -8.682  12.918  68.350  1.00  0.00    -0.240 OA 
HETATM    2  H   UNL     1      -7.791  12.684  68.583  1.00  0.00     0.000 HD 
HETATM    3  C   UNL     1      -8.906  12.991  66.951  1.00  0.00    -0.180 C  
ENDROOT
BRANCH   3   4
HETATM    4  C   UNL     1     -10.356  13.372  66.572  1.00  0.00    -0.284 C  
BRANCH   4   5
HETATM    5  O   UNL     1     -10.482  14.466  65.645  1.00  0.00    -0.300 OA 
BRANCH   5   6
HETATM    6  C   UNL     1     -10.272  15.759  66.207  1.00  0.00    -0.303 C  
HETATM    7  C   UNL     1      -8.631  17.490  66.494  1.00  0.00    -0.263 C  
HETATM    8  O   UNL     1      -8.908  16.166  65.999  1.00  0.00    -0.332 OA 
HETATM    9  H   UNL     1     -12.162  15.328  68.901  1.00  0.00     0.000 HD 
HETATM   10  C   UNL     1      -8.913  17.602  68.000  1.00  0.00    -0.264 C  
HETATM   11  O   UNL     1     -11.958  15.335  67.973  1.00  0.00    -0.247 OA 
HETATM   12  O   UNL     1      -8.070  16.761  68.802  1.00  0.00    -0.236 OA 
HETATM   13  C   UNL     1     -10.362  17.173  68.266  1.00  0.00    -0.354 C  
HETATM   14  H   UNL     1      -8.244  16.831  69.733  1.00  0.00     0.000 HD 
HETATM   15  H   UNL     1     -11.547  17.020  69.830  1.00  0.00     0.000 HD 
HETATM   16  O   UNL     1     -10.650  17.285  69.665  1.00  0.00    -0.208 OA 
HETATM   17  C   UNL     1     -10.606  15.748  67.726  1.00  0.00    -0.292 C  
BRANCH   7  18
HETATM   18  C   UNL     1      -7.174  17.826  66.163  1.00  0.00    -0.311 C  
HETATM   19  O   UNL     1      -6.341  16.707  66.452  1.00  0.00    -0.252 OA 
HETATM   20  H   UNL     1      -5.437  16.915  66.246  1.00  0.00     0.000 HD 
ENDBRANCH   7  18
ENDBRANCH   5   6
ENDBRANCH   4   5
BRANCH   4  21
HETATM   21  C   UNL     1     -11.132  12.135  66.029  1.00  0.00    -0.313 C  
HETATM   22  H   UNL     1     -12.946  11.732  65.300  1.00  0.00     0.000 HD 
HETATM   23  O   UNL     1     -12.473  12.487  65.631  1.00  0.00    -0.648 OA 
BRANCH  21  24
HETATM   24  C   UNL     1     -11.245  11.001  67.053  1.00  0.00    -0.181 C  
HETATM   25  H   UNL     1     -10.007   9.762  67.953  1.00  0.00     0.000 HD 
HETATM   26  C   UNL     1     -11.817  11.447  68.389  1.00  0.00    -0.274 C  
HETATM   27  O   UNL     1      -9.937  10.465  67.319  1.00  0.00    -0.175 OA 
HETATM   28  O   UNL     1     -11.955  12.614  68.742  1.00  0.00    -0.307 OA 
ENDBRANCH  21  24
ENDBRANCH   4  21
ENDBRANCH   3   4
TORSDOF 6
ENDMDL
MODEL      256
REMARK 921   NORMALIZED FREE ENERGY PREDICTED BY IDOCK:   -2.90 KCAL/MOL
REMARK 922        TOTAL FREE ENERGY PREDICTED BY IDOCK:   -5.12 KCAL/MOL
REMARK 923 INTER-LIGAND FREE ENERGY PREDICTED BY IDOCK:   -4.51 KCAL/MOL
REMARK 924 INTRA-LIGAND FREE ENERGY PREDICTED BY IDOCK:   -0.61 KCAL/MOL
REMARK 927      BINDING AFFINITY PREDICTED BY RF-SCORE:    0.00 PKD
ROOT
HETATM    1  O   UNL     1      -8.030  12.906  68.008  1.00  0.00    -0.134 OA 
HETATM    2  H   UNL     1      -7.756  13.788  68.234  1.00  0.00     0.000 HD 
HETATM    3  C   UNL     1      -8.699  12.818  66.760  1.00  0.00    -0.121 C  
ENDROOT
BRANCH   3   4
HETATM    4  C   UNL     1      -9.144  11.383  66.392  1.00  0.00    -0.193 C  
BRANCH   4   5
HETATM    5  O   UNL     1      -9.324  10.490  67.506  1.00  0.00    -0.148 OA 
BRANCH   5   6
HETATM    6  C   UNL     1      -8.672   9.229  67.378  1.00  0.00    -0.118 C  
HETATM    7  C   UNL     1      -7.796   7.668  65.776  1.00  0.00    -0.106 C  
HETATM    8  O   UNL     1      -8.498   8.908  65.987  1.00  0.00    -0.118 OA 
HETATM    9  H   UNL     1     -10.210   7.734  69.912  1.00  0.00     0.000 HD 
HETATM   10  C   UNL     1      -8.529   6.485  66.426  1.00  0.00    -0.124 C  
HETATM   11  O   UNL     1      -9.704   8.412  69.478  1.00  0.00    -0.173 OA 
HETATM   12  O   UNL     1      -9.825   6.237  65.859  1.00  0.00    -0.388 OA 
HETATM   13  C   UNL     1      -8.738   6.789  67.915  1.00  0.00    -0.120 C  
HETATM   14  H   UNL     1     -10.278   5.505  66.261  1.00  0.00     0.000 HD 
HETATM   15  H   UNL     1      -9.537   5.877  69.465  1.00  0.00     0.000 HD 
HETATM   16  O   UNL     1      -9.408   5.690  68.543  1.00  0.00    -0.119 OA 
HETATM   17  C   UNL     1      -9.500   8.120  68.088  1.00  0.00    -0.141 C  
BRANCH   7  18
HETATM   18  C   UNL     1      -7.624   7.471  64.268  1.00  0.00    -0.105 C  
HETATM   19  O   UNL     1      -8.733   8.036  63.575  1.00  0.00    -0.377 OA 
HETATM   20  H   UNL     1      -8.626   7.914  62.639  1.00  0.00     0.000 HD 
ENDBRANCH   7  18
ENDBRANCH   5   6
ENDBRANCH   4   5
BRANCH   4  21
HETATM   21  C   UNL     1     -10.441  11.408  65.528  1.00  0.00    -0.268 C  
HETATM   22  H   UNL     1     -10.987  10.927  63.669  1.00  0.00     0.000 HD 
HETATM   23  O   UNL     1     -10.196  10.911  64.196  1.00  0.00    -0.317 OA 
BRANCH  21  24
HETATM   24  C   UNL     1     -11.041  12.811  65.387  1.00  0.00    -0.284 C  
HETATM   25  H   UNL     1     -12.278  13.718  64.152  1.00  0.00     0.000 HD 
HETATM   26  C   UNL     1     -11.880  13.232  66.584  1.00  0.00    -0.395 C  
HETATM   27  O   UNL     1     -11.906  12.848  64.239  1.00  0.00    -0.348 OA 
HETATM   28  O   UNL     1     -12.268  12.480  67.471  1.00  0.00    -0.418 OA 
ENDBRANCH  21  24
ENDBRANCH   4  21
ENDBRANCH   3   4
TORSDOF 6
ENDMDL
MODEL      257
REMARK 921   NORMALIZED FREE ENERGY PREDICTED BY IDOCK:   -2.89 KCAL/MOL
REMARK 922        TOTAL FREE ENERGY PREDICTED BY IDOCK:   -5.11 KCAL/MOL
REMARK 923 INTER-LIGAND FREE ENERGY PREDICTED BY IDOCK:   -4.42 KCAL/MOL
REMARK 924 INTRA-LIGAND FREE ENERGY PREDICTED BY IDOCK:   -0.69 KCAL/MOL
REMARK 927      BINDING AFFINITY PREDICTED BY RF-SCORE:    0.00 PKD
ROOT
HETATM    1  O   UNL     1     -10.395   8.137  66.896  1.00  0.00    -0.303 OA 
HETATM    2  H   UNL     1     -10.901   8.739  66.362  1.00  0.00     0.000 HD 
HETATM    3  C   UNL     1     -10.878   6.803  66.867  1.00  0.00    -0.331 C  
ENDROOT
BRANCH   3   4
HETATM    4  C   UNL     1     -10.053   5.824  67.736  1.00  0.00    -0.162 C  
BRANCH   4   5
HETATM    5  O   UNL     1     -10.772   5.210  68.821  1.00  0.00    -0.064 OA 
BRANCH   5   6
HETATM    6  C   UNL     1     -10.287   5.530  70.123  1.00  0.00    -0.284 C  
HETATM    7  C   UNL     1      -9.705   4.577  72.249  1.00  0.00    -0.163 C  
HETATM    8  O   UNL     1     -10.237   4.343  70.932  1.00  0.00    -0.164 OA 
HETATM    9  H   UNL     1     -11.838   8.451  70.410  1.00  0.00     0.000 HD 
HETATM   10  C   UNL     1     -10.535   5.615  73.018  1.00  0.00    -0.216 C  
HETATM   11  O   UNL     1     -11.281   7.797  70.003  1.00  0.00    -0.224 OA 
HETATM   12  O   UNL     1     -11.883   5.192  73.272  1.00  0.00    -0.527 OA 
HETATM   13  C   UNL     1     -10.615   6.902  72.186  1.00  0.00    -0.213 C  
HETATM   14  H   UNL     1     -12.397   5.834  73.749  1.00  0.00     0.000 HD 
HETATM   15  H   UNL     1     -11.423   8.685  72.379  1.00  0.00     0.000 HD 
HETATM   16  O   UNL     1     -11.374   7.889  72.894  1.00  0.00    -0.406 OA 
HETATM   17  C   UNL     1     -11.198   6.600  70.789  1.00  0.00    -0.315 C  
BRANCH   7  18
HETATM   18  C   UNL     1      -9.650   3.236  72.985  1.00  0.00    -0.105 C  
HETATM   19  O   UNL     1     -10.289   3.351  74.253  1.00  0.00    -0.160 OA 
HETATM   20  H   UNL     1     -10.255   2.519  74.710  1.00  0.00     0.000 HD 
ENDBRANCH   7  18
ENDBRANCH   5   6
ENDBRANCH   4   5
BRANCH   4  21
HETATM   21  C   UNL     1      -9.393   4.721  66.855  1.00  0.00    -0.134 C  
HETATM   22  H   UNL     1      -9.827   3.698  65.198  1.00  0.00     0.000 HD 
HETATM   23  O   UNL     1     -10.230   4.371  65.734  1.00  0.00    -0.241 OA 
BRANCH  21  24
HETATM   24  C   UNL     1      -9.104   3.430  67.628  1.00  0.00    -0.169 C  
HETATM   25  H   UNL     1      -8.948   1.514  67.201  1.00  0.00     0.000 HD 
HETATM   26  C   UNL     1      -7.741   3.421  68.302  1.00  0.00    -0.059 C  
HETATM   27  O   UNL     1      -9.127   2.314  66.722  1.00  0.00    -0.130 OA 
HETATM   28  O   UNL     1      -6.839   4.222  68.078  1.00  0.00    -0.050 OA 
ENDBRANCH  21  24
ENDBRANCH   4  21
ENDBRANCH   3   4
TORSDOF 6
ENDMDL
MODEL      258
REMARK 921   NORMALIZED FREE ENERGY PREDICTED BY IDOCK:   -2.88 KCAL/MOL
REMARK 922        TOTAL FREE ENERGY PREDICTED BY IDOCK:   -5.09 KCAL/MOL
REMARK 923 INTER-LIGAND FREE ENERGY PREDICTED BY IDOCK:   -4.27 KCAL/MOL
REMARK 924 INTRA-LIGAND FREE ENERGY PREDICTED BY IDOCK:   -0.82 KCAL/MOL
REMARK 927      BINDING AFFINITY PREDICTED BY RF-SCORE:    0.00 PKD
ROOT
HETATM    1  O   UNL     1     -11.200   3.373  73.727  1.00  0.00    -0.222 OA 
HETATM    2  H   UNL     1     -11.812   3.052  74.380  1.00  0.00     0.000 HD 
HETATM    3  C   UNL     1     -11.505   4.673  73.249  1.00  0.00    -0.254 C  
ENDROOT
BRANCH   3   4
HETATM    4  C   UNL     1     -10.509   5.196  72.187  1.00  0.00    -0.220 C  
BRANCH   4   5
HETATM    5  O   UNL     1     -10.219   6.603  72.255  1.00  0.00    -0.186 OA 
BRANCH   5   6
HETATM    6  C   UNL     1     -10.852   7.398  71.255  1.00  0.00    -0.238 C  
HETATM    7  C   UNL     1     -10.517   8.411  69.102  1.00  0.00    -0.206 C  
HETATM    8  O   UNL     1      -9.932   7.656  70.180  1.00  0.00    -0.184 OA 
HETATM    9  H   UNL     1     -12.575   9.336  73.327  1.00  0.00     0.000 HD 
HETATM   10  C   UNL     1     -11.043   9.770  69.585  1.00  0.00    -0.217 C  
HETATM   11  O   UNL     1     -12.268   8.518  72.952  1.00  0.00    -0.270 OA 
HETATM   12  O   UNL     1     -10.012  10.638  70.080  1.00  0.00    -0.411 OA 
HETATM   13  C   UNL     1     -12.030   9.540  70.737  1.00  0.00    -0.252 C  
HETATM   14  H   UNL     1     -10.337  11.480  70.378  1.00  0.00     0.000 HD 
HETATM   15  H   UNL     1     -13.156  10.655  71.904  1.00  0.00     0.000 HD 
HETATM   16  O   UNL     1     -12.544  10.797  71.191  1.00  0.00    -0.359 OA 
HETATM   17  C   UNL     1     -11.354   8.736  71.868  1.00  0.00    -0.361 C  
BRANCH   7  18
HETATM   18  C   UNL     1      -9.462   8.567  68.004  1.00  0.00    -0.140 C  
HETATM   19  O   UNL     1      -8.398   7.644  68.219  1.00  0.00    -0.123 OA 
HETATM   20  H   UNL     1      -7.743   7.741  67.537  1.00  0.00     0.000 HD 
ENDBRANCH   7  18
ENDBRANCH   5   6
ENDBRANCH   4   5
BRANCH   4  21
HETATM   21  C   UNL     1      -9.178   4.385  72.226  1.00  0.00    -0.122 C  
HETATM   22  H   UNL     1      -7.654   4.109  73.485  1.00  0.00     0.000 HD 
HETATM   23  O   UNL     1      -8.465   4.603  73.461  1.00  0.00    -0.102 OA 
BRANCH  21  24
HETATM   24  C   UNL     1      -8.225   4.741  71.081  1.00  0.00    -0.104 C  
HETATM   25  H   UNL     1      -6.418   4.207  70.508  1.00  0.00     0.000 HD 
HETATM   26  C   UNL     1      -8.788   4.423  69.705  1.00  0.00    -0.084 C  
HETATM   27  O   UNL     1      -7.009   3.986  71.218  1.00  0.00    -0.031 OA 
HETATM   28  O   UNL     1      -9.779   3.732  69.492  1.00  0.00    -0.189 OA 
ENDBRANCH  21  24
ENDBRANCH   4  21
ENDBRANCH   3   4
TORSDOF 6
ENDMDL
MODEL      259
REMARK 921   NORMALIZED FREE ENERGY PREDICTED BY IDOCK:   -2.88 KCAL/MOL
REMARK 922        TOTAL FREE ENERGY PREDICTED BY IDOCK:   -5.09 KCAL/MOL
REMARK 923 INTER-LIGAND FREE ENERGY PREDICTED BY IDOCK:   -4.37 KCAL/MOL
REMARK 924 INTRA-LIGAND FREE ENERGY PREDICTED BY IDOCK:   -0.72 KCAL/MOL
REMARK 927      BINDING AFFINITY PREDICTED BY RF-SCORE:    0.00 PKD
ROOT
HETATM    1  O   UNL     1     -12.032   6.735  69.598  1.00  0.00    -0.650 OA 
HETATM    2  H   UNL     1     -12.262   7.206  70.390  1.00  0.00     0.000 HD 
HETATM    3  C   UNL     1     -10.764   7.091  69.070  1.00  0.00    -0.210 C  
ENDROOT
BRANCH   3   4
HETATM    4  C   UNL     1     -10.388   6.323  67.780  1.00  0.00    -0.195 C  
BRANCH   4   5
HETATM    5  O   UNL     1      -9.948   7.143  66.682  1.00  0.00    -0.202 OA 
BRANCH   5   6
HETATM    6  C   UNL     1      -9.540   8.461  67.040  1.00  0.00    -0.190 C  
HETATM    7  C   UNL     1     -10.051  10.787  66.726  1.00  0.00    -0.222 C  
HETATM    8  O   UNL     1     -10.369   9.428  66.372  1.00  0.00    -0.242 OA 
HETATM    9  H   UNL     1      -6.276   7.862  67.084  1.00  0.00     0.000 HD 
HETATM   10  C   UNL     1      -8.592  11.132  66.393  1.00  0.00    -0.172 C  
HETATM   11  O   UNL     1      -7.188   7.727  67.310  1.00  0.00    -0.086 OA 
HETATM   12  O   UNL     1      -8.299  11.075  64.988  1.00  0.00    -0.370 OA 
HETATM   13  C   UNL     1      -7.671  10.120  67.087  1.00  0.00    -0.092 C  
HETATM   14  H   UNL     1      -7.397  11.289  64.782  1.00  0.00     0.000 HD 
HETATM   15  H   UNL     1      -5.734   9.808  67.230  1.00  0.00     0.000 HD 
HETATM   16  O   UNL     1      -6.304  10.434  66.800  1.00  0.00    -0.067 OA 
HETATM   17  C   UNL     1      -8.046   8.682  66.669  1.00  0.00    -0.100 C  
BRANCH   7  18
HETATM   18  C   UNL     1     -11.033  11.709  65.999  1.00  0.00    -0.286 C  
HETATM   19  O   UNL     1     -12.003  12.206  66.918  1.00  0.00    -0.603 OA 
HETATM   20  H   UNL     1     -12.612  12.778  66.467  1.00  0.00     0.000 HD 
ENDBRANCH   7  18
ENDBRANCH   5   6
ENDBRANCH   4   5
BRANCH   4  21
HETATM   21  C   UNL     1      -9.319   5.229  68.077  1.00  0.00    -0.117 C  
HETATM   22  H   UNL     1      -8.004   4.132  67.051  1.00  0.00     0.000 HD 
HETATM   23  O   UNL     1      -8.656   4.800  66.870  1.00  0.00    -0.106 OA 
BRANCH  21  24
HETATM   24  C   UNL     1      -9.908   3.980  68.741  1.00  0.00     0.025 C  
HETATM   25  H   UNL     1      -9.824   2.034  68.451  1.00  0.00     0.000 HD 
HETATM   26  C   UNL     1      -9.486   3.812  70.192  1.00  0.00    -0.189 C  
HETATM   27  O   UNL     1      -9.459   2.808  68.039  1.00  0.00    -0.212 OA 
HETATM   28  O   UNL     1      -8.583   4.436  70.740  1.00  0.00    -0.087 OA 
ENDBRANCH  21  24
ENDBRANCH   4  21
ENDBRANCH   3   4
TORSDOF 6
ENDMDL
MODEL      260
REMARK 921   NORMALIZED FREE ENERGY PREDICTED BY IDOCK:   -2.87 KCAL/MOL
REMARK 922        TOTAL FREE ENERGY PREDICTED BY IDOCK:   -5.07 KCAL/MOL
REMARK 923 INTER-LIGAND FREE ENERGY PREDICTED BY IDOCK:   -4.21 KCAL/MOL
REMARK 924 INTRA-LIGAND FREE ENERGY PREDICTED BY IDOCK:   -0.86 KCAL/MOL
REMARK 927      BINDING AFFINITY PREDICTED BY RF-SCORE:    0.00 PKD
ROOT
HETATM    1  O   UNL     1     -10.627   5.278  65.921  1.00  0.00    -0.462 OA 
HETATM    2  H   UNL     1     -11.472   4.870  65.774  1.00  0.00     0.000 HD 
HETATM    3  C   UNL     1     -10.451   5.766  67.242  1.00  0.00    -0.266 C  
ENDROOT
BRANCH   3   4
HETATM    4  C   UNL     1      -9.075   6.431  67.482  1.00  0.00    -0.114 C  
BRANCH   4   5
HETATM    5  O   UNL     1      -8.621   6.429  68.848  1.00  0.00    -0.123 OA 
BRANCH   5   6
HETATM    6  C   UNL     1      -8.990   7.578  69.607  1.00  0.00    -0.141 C  
HETATM    7  C   UNL     1     -10.738   8.506  70.968  1.00  0.00    -0.228 C  
HETATM    8  O   UNL     1     -10.314   7.405  70.142  1.00  0.00    -0.206 OA 
HETATM    9  H   UNL     1      -7.586   9.831  67.614  1.00  0.00     0.000 HD 
HETATM   10  C   UNL     1     -10.731   9.831  70.193  1.00  0.00    -0.289 C  
HETATM   11  O   UNL     1      -7.624   9.052  68.157  1.00  0.00    -0.090 OA 
HETATM   12  O   UNL     1     -11.661   9.856  69.099  1.00  0.00    -0.471 OA 
HETATM   13  C   UNL     1      -9.333  10.054  69.601  1.00  0.00    -0.220 C  
HETATM   14  H   UNL     1     -11.658  10.676  68.619  1.00  0.00     0.000 HD 
HETATM   15  H   UNL     1      -8.437  11.431  68.519  1.00  0.00     0.000 HD 
HETATM   16  O   UNL     1      -9.303  11.293  68.884  1.00  0.00    -0.163 OA 
HETATM   17  C   UNL     1      -8.929   8.853  68.719  1.00  0.00    -0.134 C  
BRANCH   7  18
HETATM   18  C   UNL     1     -12.127   8.178  71.521  1.00  0.00    -0.298 C  
HETATM   19  O   UNL     1     -12.809   7.299  70.629  1.00  0.00    -0.604 OA 
HETATM   20  H   UNL     1     -13.671   7.095  70.972  1.00  0.00     0.000 HD 
ENDBRANCH   7  18
ENDBRANCH   5   6
ENDBRANCH   4   5
BRANCH   4  21
HETATM   21  C   UNL     1      -7.984   5.796  66.568  1.00  0.00    -0.102 C  
HETATM   22  H   UNL     1      -6.179   4.971  66.776  1.00  0.00     0.000 HD 
HETATM   23  O   UNL     1      -6.844   5.357  67.334  1.00  0.00    -0.057 OA 
BRANCH  21  24
HETATM   24  C   UNL     1      -7.467   6.760  65.494  1.00  0.00    -0.083 C  
HETATM   25  H   UNL     1      -5.719   7.230  64.720  1.00  0.00     0.000 HD 
HETATM   26  C   UNL     1      -8.039   6.487  64.112  1.00  0.00    -0.042 C  
HETATM   27  O   UNL     1      -6.039   6.633  65.386  1.00  0.00    -0.036 OA 
HETATM   28  O   UNL     1      -8.651   5.475  63.789  1.00  0.00    -0.080 OA 
ENDBRANCH  21  24
ENDBRANCH   4  21
ENDBRANCH   3   4
TORSDOF 6
ENDMDL
MODEL      261
REMARK 921   NORMALIZED FREE ENERGY PREDICTED BY IDOCK:   -2.86 KCAL/MOL
REMARK 922        TOTAL FREE ENERGY PREDICTED BY IDOCK:   -5.06 KCAL/MOL
REMARK 923 INTER-LIGAND FREE ENERGY PREDICTED BY IDOCK:   -6.05 KCAL/MOL
REMARK 924 INTRA-LIGAND FREE ENERGY PREDICTED BY IDOCK:    0.99 KCAL/MOL
REMARK 927      BINDING AFFINITY PREDICTED BY RF-SCORE:    0.00 PKD
ROOT
HETATM    1  O   UNL     1     -10.696  15.730  64.522  1.00  0.00    -0.755 OA 
HETATM    2  H   UNL     1     -10.207  15.532  63.731  1.00  0.00     0.000 HD 
HETATM    3  C   UNL     1     -10.005  15.403  65.717  1.00  0.00    -0.362 C  
ENDROOT
BRANCH   3   4
HETATM    4  C   UNL     1     -10.801  15.725  67.004  1.00  0.00    -0.273 C  
BRANCH   4   5
HETATM    5  O   UNL     1     -11.762  14.729  67.398  1.00  0.00    -0.373 OA 
BRANCH   5   6
HETATM    6  C   UNL     1     -11.340  13.379  67.217  1.00  0.00    -0.319 C  
HETATM    7  C   UNL     1      -9.489  11.882  67.534  1.00  0.00    -0.176 C  
HETATM    8  O   UNL     1      -9.972  13.235  67.637  1.00  0.00    -0.221 OA 
HETATM    9  H   UNL     1     -12.940  12.850  64.357  1.00  0.00     0.000 HD 
HETATM   10  C   UNL     1      -9.578  11.357  66.094  1.00  0.00    -0.218 C  
HETATM   11  O   UNL     1     -12.845  13.105  65.268  1.00  0.00    -0.617 OA 
HETATM   12  O   UNL     1      -8.749  12.081  65.171  1.00  0.00    -0.127 OA 
HETATM   13  C   UNL     1     -11.025  11.496  65.604  1.00  0.00    -0.236 C  
HETATM   14  H   UNL     1      -8.804  11.756  64.279  1.00  0.00     0.000 HD 
HETATM   15  H   UNL     1     -12.029  11.084  63.962  1.00  0.00     0.000 HD 
HETATM   16  O   UNL     1     -11.133  10.999  64.265  1.00  0.00    -0.242 OA 
HETATM   17  C   UNL     1     -11.493  12.962  65.727  1.00  0.00    -0.337 C  
BRANCH   7  18
HETATM   18  C   UNL     1      -8.052  11.850  68.062  1.00  0.00    -0.151 C  
HETATM   19  O   UNL     1      -7.797  10.600  68.698  1.00  0.00    -0.105 OA 
HETATM   20  H   UNL     1      -6.906  10.580  69.026  1.00  0.00     0.000 HD 
ENDBRANCH   7  18
ENDBRANCH   5   6
ENDBRANCH   4   5
BRANCH   4  21
HETATM   21  C   UNL     1      -9.839  16.022  68.193  1.00  0.00    -0.222 C  
HETATM   22  H   UNL     1      -9.929  16.086  70.186  1.00  0.00     0.000 HD 
HETATM   23  O   UNL     1     -10.516  15.904  69.461  1.00  0.00    -0.238 OA 
BRANCH  21  24
HETATM   24  C   UNL     1      -9.227  17.426  68.133  1.00  0.00    -0.270 C  
HETATM   25  H   UNL     1      -9.545  19.161  69.007  1.00  0.00     0.000 HD 
HETATM   26  C   UNL     1      -7.759  17.462  68.528  1.00  0.00    -0.267 C  
HETATM   27  O   UNL     1      -9.924  18.291  69.045  1.00  0.00    -0.357 OA 
HETATM   28  O   UNL     1      -7.154  16.548  69.078  1.00  0.00    -0.189 OA 
ENDBRANCH  21  24
ENDBRANCH   4  21
ENDBRANCH   3   4
TORSDOF 6
ENDMDL
MODEL      262
REMARK 921   NORMALIZED FREE ENERGY PREDICTED BY IDOCK:   -2.84 KCAL/MOL
REMARK 922        TOTAL FREE ENERGY PREDICTED BY IDOCK:   -5.04 KCAL/MOL
REMARK 923 INTER-LIGAND FREE ENERGY PREDICTED BY IDOCK:   -5.07 KCAL/MOL
REMARK 924 INTRA-LIGAND FREE ENERGY PREDICTED BY IDOCK:    0.03 KCAL/MOL
REMARK 927      BINDING AFFINITY PREDICTED BY RF-SCORE:    0.00 PKD
ROOT
HETATM    1  O   UNL     1      -9.799  16.742  65.035  1.00  0.00    -0.068 OA 
HETATM    2  H   UNL     1     -10.501  17.311  64.739  1.00  0.00     0.000 HD 
HETATM    3  C   UNL     1     -10.243  15.660  65.837  1.00  0.00    -0.351 C  
ENDROOT
BRANCH   3   4
HETATM    4  C   UNL     1      -9.101  14.734  66.319  1.00  0.00    -0.196 C  
BRANCH   4   5
HETATM    5  O   UNL     1      -7.968  15.405  66.900  1.00  0.00    -0.218 OA 
BRANCH   5   6
HETATM    6  C   UNL     1      -8.015  16.828  66.838  1.00  0.00    -0.213 C  
HETATM    7  C   UNL     1      -6.906  18.753  65.925  1.00  0.00    -0.271 C  
HETATM    8  O   UNL     1      -6.899  17.321  66.077  1.00  0.00    -0.225 OA 
HETATM    9  H   UNL     1      -9.084  17.319  69.942  1.00  0.00     0.000 HD 
HETATM   10  C   UNL     1      -6.879  19.467  67.284  1.00  0.00    -0.201 C  
HETATM   11  O   UNL     1      -9.093  16.952  69.066  1.00  0.00    -0.254 OA 
HETATM   12  O   UNL     1      -5.681  19.216  68.035  1.00  0.00    -0.190 OA 
HETATM   13  C   UNL     1      -8.056  18.967  68.131  1.00  0.00    -0.302 C  
HETATM   14  H   UNL     1      -5.664  19.658  68.877  1.00  0.00     0.000 HD 
HETATM   15  H   UNL     1      -8.785  19.323  69.924  1.00  0.00     0.000 HD 
HETATM   16  O   UNL     1      -8.056  19.632  69.399  1.00  0.00    -0.180 OA 
HETATM   17  C   UNL     1      -7.999  17.430  68.272  1.00  0.00    -0.253 C  
BRANCH   7  18
HETATM   18  C   UNL     1      -5.710  19.144  65.053  1.00  0.00    -0.238 C  
HETATM   19  O   UNL     1      -6.127  20.046  64.032  1.00  0.00    -0.267 OA 
HETATM   20  H   UNL     1      -5.385  20.289  63.491  1.00  0.00     0.000 HD 
ENDBRANCH   7  18
ENDBRANCH   5   6
ENDBRANCH   4   5
BRANCH   4  21
HETATM   21  C   UNL     1      -9.639  13.660  67.313  1.00  0.00    -0.238 C  
HETATM   22  H   UNL     1      -9.145  12.925  69.102  1.00  0.00     0.000 HD 
HETATM   23  O   UNL     1      -8.818  13.580  68.496  1.00  0.00    -0.166 OA 
BRANCH  21  24
HETATM   24  C   UNL     1      -9.699  12.255  66.705  1.00  0.00    -0.222 C  
HETATM   25  H   UNL     1      -8.889  10.500  67.080  1.00  0.00     0.000 HD 
HETATM   26  C   UNL     1     -11.093  11.649  66.721  1.00  0.00    -0.309 C  
HETATM   27  O   UNL     1      -8.852  11.371  67.458  1.00  0.00    -0.142 OA 
HETATM   28  O   UNL     1     -12.044  12.087  67.360  1.00  0.00    -0.566 OA 
ENDBRANCH  21  24
ENDBRANCH   4  21
ENDBRANCH   3   4
TORSDOF 6
ENDMDL
MODEL      263
REMARK 921   NORMALIZED FREE ENERGY PREDICTED BY IDOCK:   -2.84 KCAL/MOL
REMARK 922        TOTAL FREE ENERGY PREDICTED BY IDOCK:   -5.03 KCAL/MOL
REMARK 923 INTER-LIGAND FREE ENERGY PREDICTED BY IDOCK:   -6.41 KCAL/MOL
REMARK 924 INTRA-LIGAND FREE ENERGY PREDICTED BY IDOCK:    1.37 KCAL/MOL
REMARK 927      BINDING AFFINITY PREDICTED BY RF-SCORE:    0.00 PKD
ROOT
HETATM    1  O   UNL     1      -9.919  16.244  65.407  1.00  0.00    -0.514 OA 
HETATM    2  H   UNL     1      -9.872  16.533  64.502  1.00  0.00     0.000 HD 
HETATM    3  C   UNL     1     -10.222  14.865  65.550  1.00  0.00    -0.374 C  
ENDROOT
BRANCH   3   4
HETATM    4  C   UNL     1     -10.298  14.394  67.021  1.00  0.00    -0.263 C  
BRANCH   4   5
HETATM    5  O   UNL     1     -11.328  13.431  67.307  1.00  0.00    -0.294 OA 
BRANCH   5   6
HETATM    6  C   UNL     1     -11.666  12.571  66.221  1.00  0.00    -0.404 C  
HETATM    7  C   UNL     1     -10.776  10.904  64.738  1.00  0.00    -0.178 C  
HETATM    8  O   UNL     1     -10.503  11.838  65.800  1.00  0.00    -0.243 OA 
HETATM    9  H   UNL     1     -13.751  14.657  64.700  1.00  0.00     0.000 HD 
HETATM   10  C   UNL     1     -11.343  11.609  63.497  1.00  0.00    -0.354 C  
HETATM   11  O   UNL     1     -13.399  14.152  65.423  1.00  0.00    -0.705 OA 
HETATM   12  O   UNL     1     -10.424  12.536  62.898  1.00  0.00    -0.458 OA 
HETATM   13  C   UNL     1     -12.588  12.407  63.904  1.00  0.00    -0.427 C  
HETATM   14  H   UNL     1     -10.774  12.972  62.130  1.00  0.00     0.000 HD 
HETATM   15  H   UNL     1     -13.911  13.555  63.008  1.00  0.00     0.000 HD 
HETATM   16  O   UNL     1     -13.140  13.061  62.756  1.00  0.00     0.235 OA 
HETATM   17  C   UNL     1     -12.241  13.397  65.036  1.00  0.00    -0.424 C  
BRANCH   7  18
HETATM   18  C   UNL     1      -9.482  10.151  64.422  1.00  0.00    -0.308 C  
HETATM   19  O   UNL     1      -9.481   9.737  63.058  1.00  0.00    -0.487 OA 
HETATM   20  H   UNL     1      -8.678   9.270  62.862  1.00  0.00     0.000 HD 
ENDBRANCH   7  18
ENDBRANCH   5   6
ENDBRANCH   4   5
BRANCH   4  21
HETATM   21  C   UNL     1      -8.921  13.844  67.501  1.00  0.00    -0.197 C  
HETATM   22  H   UNL     1      -8.245  12.431  68.737  1.00  0.00     0.000 HD 
HETATM   23  O   UNL     1      -9.084  12.766  68.445  1.00  0.00    -0.192 OA 
BRANCH  21  24
HETATM   24  C   UNL     1      -8.050  14.910  68.174  1.00  0.00    -0.137 C  
HETATM   25  H   UNL     1      -7.063  16.516  67.605  1.00  0.00     0.000 HD 
HETATM   26  C   UNL     1      -8.786  15.704  69.242  1.00  0.00    -0.267 C  
HETATM   27  O   UNL     1      -7.602  15.855  67.188  1.00  0.00    -0.177 OA 
HETATM   28  O   UNL     1     -10.001  15.703  69.410  1.00  0.00    -0.241 OA 
ENDBRANCH  21  24
ENDBRANCH   4  21
ENDBRANCH   3   4
TORSDOF 6
ENDMDL
MODEL      264
REMARK 921   NORMALIZED FREE ENERGY PREDICTED BY IDOCK:   -2.84 KCAL/MOL
REMARK 922        TOTAL FREE ENERGY PREDICTED BY IDOCK:   -5.03 KCAL/MOL
REMARK 923 INTER-LIGAND FREE ENERGY PREDICTED BY IDOCK:   -4.14 KCAL/MOL
REMARK 924 INTRA-LIGAND FREE ENERGY PREDICTED BY IDOCK:   -0.90 KCAL/MOL
REMARK 927      BINDING AFFINITY PREDICTED BY RF-SCORE:    0.00 PKD
ROOT
HETATM    1  O   UNL     1      -8.078   7.089  68.502  1.00  0.00    -0.121 OA 
HETATM    2  H   UNL     1      -7.599   6.301  68.731  1.00  0.00     0.000 HD 
HETATM    3  C   UNL     1      -7.341   7.989  67.690  1.00  0.00    -0.093 C  
ENDROOT
BRANCH   3   4
HETATM    4  C   UNL     1      -8.120   9.272  67.317  1.00  0.00    -0.113 C  
BRANCH   4   5
HETATM    5  O   UNL     1      -7.833  10.425  68.129  1.00  0.00    -0.104 OA 
BRANCH   5   6
HETATM    6  C   UNL     1      -8.899  10.848  68.975  1.00  0.00    -0.096 C  
HETATM    7  C   UNL     1     -10.730  10.049  70.309  1.00  0.00    -0.309 C  
HETATM    8  O   UNL     1      -9.663   9.707  69.404  1.00  0.00    -0.173 OA 
HETATM    9  H   UNL     1      -9.641  13.624  67.314  1.00  0.00     0.000 HD 
HETATM   10  C   UNL     1     -11.715  11.041  69.673  1.00  0.00    -0.329 C  
HETATM   11  O   UNL     1      -9.082  13.006  67.771  1.00  0.00    -0.182 OA 
HETATM   12  O   UNL     1     -12.403  10.509  68.530  1.00  0.00    -0.765 OA 
HETATM   13  C   UNL     1     -10.938  12.276  69.197  1.00  0.00    -0.162 C  
HETATM   14  H   UNL     1     -13.012  11.123  68.137  1.00  0.00     0.000 HD 
HETATM   15  H   UNL     1     -11.362  13.985  68.319  1.00  0.00     0.000 HD 
HETATM   16  O   UNL     1     -11.842  13.220  68.613  1.00  0.00    -0.318 OA 
HETATM   17  C   UNL     1      -9.814  11.858  68.226  1.00  0.00    -0.199 C  
BRANCH   7  18
HETATM   18  C   UNL     1     -11.425   8.754  70.735  1.00  0.00    -0.270 C  
HETATM   19  O   UNL     1     -10.454   7.737  70.969  1.00  0.00    -0.203 OA 
HETATM   20  H   UNL     1     -10.885   6.933  71.234  1.00  0.00     0.000 HD 
ENDBRANCH   7  18
ENDBRANCH   5   6
ENDBRANCH   4   5
BRANCH   4  21
HETATM   21  C   UNL     1      -7.918   9.628  65.813  1.00  0.00    -0.109 C  
HETATM   22  H   UNL     1      -7.546  11.254  64.717  1.00  0.00     0.000 HD 
HETATM   23  O   UNL     1      -7.669  11.037  65.634  1.00  0.00    -0.056 OA 
BRANCH  21  24
HETATM   24  C   UNL     1      -9.126   9.265  64.943  1.00  0.00    -0.170 C  
HETATM   25  H   UNL     1     -10.729  10.189  64.268  1.00  0.00     0.000 HD 
HETATM   26  C   UNL     1      -8.748   8.829  63.536  1.00  0.00     0.049 C  
HETATM   27  O   UNL     1      -9.980  10.414  64.807  1.00  0.00    -0.314 OA 
HETATM   28  O   UNL     1      -7.641   8.972  63.027  1.00  0.00    -0.101 OA 
ENDBRANCH  21  24
ENDBRANCH   4  21
ENDBRANCH   3   4
TORSDOF 6
ENDMDL
MODEL      265
REMARK 921   NORMALIZED FREE ENERGY PREDICTED BY IDOCK:   -2.82 KCAL/MOL
REMARK 922        TOTAL FREE ENERGY PREDICTED BY IDOCK:   -5.01 KCAL/MOL
REMARK 923 INTER-LIGAND FREE ENERGY PREDICTED BY IDOCK:   -4.10 KCAL/MOL
REMARK 924 INTRA-LIGAND FREE ENERGY PREDICTED BY IDOCK:   -0.91 KCAL/MOL
REMARK 927      BINDING AFFINITY PREDICTED BY RF-SCORE:    0.00 PKD
ROOT
HETATM    1  O   UNL     1      -9.060   8.754  67.070  1.00  0.00    -0.128 OA 
HETATM    2  H   UNL     1      -9.093   9.621  66.683  1.00  0.00     0.000 HD 
HETATM    3  C   UNL     1      -9.893   8.606  68.209  1.00  0.00    -0.165 C  
ENDROOT
BRANCH   3   4
HETATM    4  C   UNL     1      -9.839   7.195  68.841  1.00  0.00    -0.156 C  
BRANCH   4   5
HETATM    5  O   UNL     1      -8.518   6.690  69.106  1.00  0.00    -0.122 OA 
BRANCH   5   6
HETATM    6  C   UNL     1      -8.187   5.481  68.426  1.00  0.00    -0.099 C  
HETATM    7  C   UNL     1      -7.803   4.539  66.250  1.00  0.00    -0.099 C  
HETATM    8  O   UNL     1      -8.182   5.705  67.005  1.00  0.00    -0.102 OA 
HETATM    9  H   UNL     1      -9.866   3.434  70.428  1.00  0.00     0.000 HD 
HETATM   10  C   UNL     1      -8.748   3.359  66.519  1.00  0.00    -0.126 C  
HETATM   11  O   UNL     1      -9.246   4.118  70.204  1.00  0.00    -0.111 OA 
HETATM   12  O   UNL     1     -10.100   3.604  66.100  1.00  0.00    -0.417 OA 
HETATM   13  C   UNL     1      -8.785   3.087  68.028  1.00  0.00    -0.109 C  
HETATM   14  H   UNL     1     -10.685   2.874  66.267  1.00  0.00     0.000 HD 
HETATM   15  H   UNL     1      -9.674   1.810  69.233  1.00  0.00     0.000 HD 
HETATM   16  O   UNL     1      -9.652   1.979  68.298  1.00  0.00    -0.207 OA 
HETATM   17  C   UNL     1      -9.204   4.362  68.791  1.00  0.00    -0.136 C  
BRANCH   7  18
HETATM   18  C   UNL     1      -7.778   4.921  64.767  1.00  0.00    -0.079 C  
HETATM   19  O   UNL     1      -8.971   5.623  64.427  1.00  0.00    -0.360 OA 
HETATM   20  H   UNL     1      -8.956   5.860  63.508  1.00  0.00     0.000 HD 
ENDBRANCH   7  18
ENDBRANCH   5   6
ENDBRANCH   4   5
BRANCH   4  21
HETATM   21  C   UNL     1     -10.692   7.136  70.144  1.00  0.00    -0.240 C  
HETATM   22  H   UNL     1     -12.392   6.290  70.759  1.00  0.00     0.000 HD 
HETATM   23  O   UNL     1     -11.872   6.326  69.965  1.00  0.00    -0.351 OA 
BRANCH  21  24
HETATM   24  C   UNL     1     -11.156   8.516  70.620  1.00  0.00    -0.252 C  
HETATM   25  H   UNL     1     -12.755   9.263  71.492  1.00  0.00     0.000 HD 
HETATM   26  C   UNL     1     -10.255   9.122  71.685  1.00  0.00    -0.301 C  
HETATM   27  O   UNL     1     -12.468   8.408  71.197  1.00  0.00    -0.274 OA 
HETATM   28  O   UNL     1      -9.390   8.513  72.306  1.00  0.00    -0.259 OA 
ENDBRANCH  21  24
ENDBRANCH   4  21
ENDBRANCH   3   4
TORSDOF 6
ENDMDL
MODEL      266
REMARK 921   NORMALIZED FREE ENERGY PREDICTED BY IDOCK:   -2.81 KCAL/MOL
REMARK 922        TOTAL FREE ENERGY PREDICTED BY IDOCK:   -5.00 KCAL/MOL
REMARK 923 INTER-LIGAND FREE ENERGY PREDICTED BY IDOCK:   -4.05 KCAL/MOL
REMARK 924 INTRA-LIGAND FREE ENERGY PREDICTED BY IDOCK:   -0.94 KCAL/MOL
REMARK 927      BINDING AFFINITY PREDICTED BY RF-SCORE:    0.00 PKD
ROOT
HETATM    1  O   UNL     1      -6.817  11.661  69.348  1.00  0.00    -0.142 OA 
HETATM    2  H   UNL     1      -6.164  12.351  69.337  1.00  0.00     0.000 HD 
HETATM    3  C   UNL     1      -7.922  11.908  68.492  1.00  0.00    -0.137 C  
ENDROOT
BRANCH   3   4
HETATM    4  C   UNL     1      -8.986  10.784  68.509  1.00  0.00    -0.160 C  
BRANCH   4   5
HETATM    5  O   UNL     1     -10.033  10.943  69.483  1.00  0.00    -0.128 OA 
BRANCH   5   6
HETATM    6  C   UNL     1      -9.999  10.011  70.562  1.00  0.00     0.029 C  
HETATM    7  C   UNL     1      -8.949   7.991  71.328  1.00  0.00    -0.139 C  
HETATM    8  O   UNL     1      -9.079   8.948  70.259  1.00  0.00    -0.156 OA 
HETATM    9  H   UNL     1     -13.238  10.122  71.278  1.00  0.00     0.000 HD 
HETATM   10  C   UNL     1     -10.297   7.341  71.673  1.00  0.00    -0.197 C  
HETATM   11  O   UNL     1     -12.369  10.472  71.118  1.00  0.00    -0.340 OA 
HETATM   12  O   UNL     1     -10.848   6.567  70.596  1.00  0.00    -0.236 OA 
HETATM   13  C   UNL     1     -11.311   8.444  72.000  1.00  0.00    -0.342 C  
HETATM   14  H   UNL     1     -11.682   6.164  70.809  1.00  0.00     0.000 HD 
HETATM   15  H   UNL     1     -13.200   8.540  72.542  1.00  0.00     0.000 HD 
HETATM   16  O   UNL     1     -12.572   7.857  72.339  1.00  0.00    -0.234 OA 
HETATM   17  C   UNL     1     -11.420   9.437  70.823  1.00  0.00    -0.300 C  
BRANCH   7  18
HETATM   18  C   UNL     1      -7.906   6.951  70.910  1.00  0.00    -0.097 C  
HETATM   19  O   UNL     1      -8.228   5.685  71.480  1.00  0.00    -0.116 OA 
HETATM   20  H   UNL     1      -7.582   5.040  71.221  1.00  0.00     0.000 HD 
ENDBRANCH   7  18
ENDBRANCH   5   6
ENDBRANCH   4   5
BRANCH   4  21
HETATM   21  C   UNL     1      -9.612  10.591  67.095  1.00  0.00    -0.168 C  
HETATM   22  H   UNL     1      -9.386   9.368  65.534  1.00  0.00     0.000 HD 
HETATM   23  O   UNL     1      -9.004   9.486  66.396  1.00  0.00    -0.145 OA 
BRANCH  21  24
HETATM   24  C   UNL     1      -9.470  11.828  66.202  1.00  0.00    -0.226 C  
HETATM   25  H   UNL     1      -9.271  12.183  64.276  1.00  0.00     0.000 HD 
HETATM   26  C   UNL     1     -10.660  12.772  66.283  1.00  0.00    -0.257 C  
HETATM   27  O   UNL     1      -9.359  11.417  64.829  1.00  0.00    -0.194 OA 
HETATM   28  O   UNL     1     -11.741  12.500  66.795  1.00  0.00    -0.368 OA 
ENDBRANCH  21  24
ENDBRANCH   4  21
ENDBRANCH   3   4
TORSDOF 6
ENDMDL
MODEL      267
REMARK 921   NORMALIZED FREE ENERGY PREDICTED BY IDOCK:   -2.79 KCAL/MOL
REMARK 922        TOTAL FREE ENERGY PREDICTED BY IDOCK:   -4.97 KCAL/MOL
REMARK 923 INTER-LIGAND FREE ENERGY PREDICTED BY IDOCK:   -3.64 KCAL/MOL
REMARK 924 INTRA-LIGAND FREE ENERGY PREDICTED BY IDOCK:   -1.33 KCAL/MOL
REMARK 927      BINDING AFFINITY PREDICTED BY RF-SCORE:    0.00 PKD
ROOT
HETATM    1  O   UNL     1      -6.846   6.692  73.910  1.00  0.00    -0.073 OA 
HETATM    2  H   UNL     1      -6.096   6.996  74.409  1.00  0.00     0.000 HD 
HETATM    3  C   UNL     1      -6.609   6.616  72.513  1.00  0.00    -0.063 C  
ENDROOT
BRANCH   3   4
HETATM    4  C   UNL     1      -7.829   6.121  71.701  1.00  0.00    -0.102 C  
BRANCH   4   5
HETATM    5  O   UNL     1      -7.531   5.633  70.380  1.00  0.00    -0.076 OA 
BRANCH   5   6
HETATM    6  C   UNL     1      -8.257   6.263  69.327  1.00  0.00    -0.114 C  
HETATM    7  C   UNL     1      -9.772   8.062  68.841  1.00  0.00    -0.159 C  
HETATM    8  O   UNL     1      -9.049   7.340  69.856  1.00  0.00    -0.142 OA 
HETATM    9  H   UNL     1      -8.965   3.498  67.631  1.00  0.00     0.000 HD 
HETATM   10  C   UNL     1     -10.721   7.142  68.060  1.00  0.00    -0.171 C  
HETATM   11  O   UNL     1      -8.410   4.131  68.073  1.00  0.00    -0.092 OA 
HETATM   12  O   UNL     1     -11.761   6.574  68.871  1.00  0.00    -0.561 OA 
HETATM   13  C   UNL     1      -9.914   5.974  67.479  1.00  0.00    -0.137 C  
HETATM   14  H   UNL     1     -12.349   6.005  68.388  1.00  0.00     0.000 HD 
HETATM   15  H   UNL     1     -10.281   4.387  66.374  1.00  0.00     0.000 HD 
HETATM   16  O   UNL     1     -10.781   5.110  66.734  1.00  0.00    -0.256 OA 
HETATM   17  C   UNL     1      -9.166   5.228  68.605  1.00  0.00    -0.116 C  
BRANCH   7  18
HETATM   18  C   UNL     1     -10.523   9.210  69.519  1.00  0.00    -0.219 C  
HETATM   19  O   UNL     1     -10.997   8.793  70.796  1.00  0.00    -0.230 OA 
HETATM   20  H   UNL     1     -11.463   9.505  71.217  1.00  0.00     0.000 HD 
ENDBRANCH   7  18
ENDBRANCH   5   6
ENDBRANCH   4   5
BRANCH   4  21
HETATM   21  C   UNL     1      -8.622   5.039  72.493  1.00  0.00    -0.120 C  
HETATM   22  H   UNL     1      -8.908   3.065  72.413  1.00  0.00     0.000 HD 
HETATM   23  O   UNL     1      -8.425   3.725  71.931  1.00  0.00    -0.087 OA 
BRANCH  21  24
HETATM   24  C   UNL     1     -10.131   5.300  72.519  1.00  0.00    -0.181 C  
HETATM   25  H   UNL     1     -11.752   4.269  72.950  1.00  0.00     0.000 HD 
HETATM   26  C   UNL     1     -10.537   6.400  73.487  1.00  0.00    -0.276 C  
HETATM   27  O   UNL     1     -10.817   4.106  72.934  1.00  0.00    -0.177 OA 
HETATM   28  O   UNL     1      -9.812   6.880  74.352  1.00  0.00    -0.290 OA 
ENDBRANCH  21  24
ENDBRANCH   4  21
ENDBRANCH   3   4
TORSDOF 6
ENDMDL
MODEL      268
REMARK 921   NORMALIZED FREE ENERGY PREDICTED BY IDOCK:   -2.77 KCAL/MOL
REMARK 922        TOTAL FREE ENERGY PREDICTED BY IDOCK:   -4.95 KCAL/MOL
REMARK 923 INTER-LIGAND FREE ENERGY PREDICTED BY IDOCK:   -4.51 KCAL/MOL
REMARK 924 INTRA-LIGAND FREE ENERGY PREDICTED BY IDOCK:   -0.44 KCAL/MOL
REMARK 927      BINDING AFFINITY PREDICTED BY RF-SCORE:    0.00 PKD
ROOT
HETATM    1  O   UNL     1      -8.637   8.244  69.015  1.00  0.00    -0.133 OA 
HETATM    2  H   UNL     1      -8.559   7.342  69.304  1.00  0.00     0.000 HD 
HETATM    3  C   UNL     1      -7.803   8.565  67.913  1.00  0.00    -0.103 C  
ENDROOT
BRANCH   3   4
HETATM    4  C   UNL     1      -7.930  10.033  67.443  1.00  0.00    -0.106 C  
BRANCH   4   5
HETATM    5  O   UNL     1      -9.277  10.515  67.288  1.00  0.00    -0.143 OA 
BRANCH   5   6
HETATM    6  C   UNL     1      -9.799  10.428  65.964  1.00  0.00    -0.232 C  
HETATM    7  C   UNL     1      -9.168  10.251  63.653  1.00  0.00    -0.280 C  
HETATM    8  O   UNL     1      -8.720  10.394  65.014  1.00  0.00    -0.169 OA 
HETATM    9  H   UNL     1     -12.394  12.444  66.432  1.00  0.00     0.000 HD 
HETATM   10  C   UNL     1     -10.099  11.400  63.241  1.00  0.00    -0.387 C  
HETATM   11  O   UNL     1     -11.821  11.707  66.609  1.00  0.00    -0.533 OA 
HETATM   12  O   UNL     1      -9.457  12.685  63.249  1.00  0.00    -0.452 OA 
HETATM   13  C   UNL     1     -11.267  11.473  64.233  1.00  0.00    -0.283 C  
HETATM   14  H   UNL     1     -10.034  13.396  62.994  1.00  0.00     0.000 HD 
HETATM   15  H   UNL     1     -12.880  12.576  64.470  1.00  0.00     0.000 HD 
HETATM   16  O   UNL     1     -12.156  12.531  63.856  1.00  0.00    -0.417 OA 
HETATM   17  C   UNL     1     -10.736  11.634  65.673  1.00  0.00    -0.278 C  
BRANCH   7  18
HETATM   18  C   UNL     1      -7.933  10.170  62.753  1.00  0.00    -0.145 C  
HETATM   19  O   UNL     1      -6.824  10.798  63.391  1.00  0.00    -0.354 OA 
HETATM   20  H   UNL     1      -6.058  10.747  62.832  1.00  0.00     0.000 HD 
ENDBRANCH   7  18
ENDBRANCH   5   6
ENDBRANCH   4   5
BRANCH   4  21
HETATM   21  C   UNL     1      -7.139  10.989  68.386  1.00  0.00    -0.074 C  
HETATM   22  H   UNL     1      -7.520  12.173  69.947  1.00  0.00     0.000 HD 
HETATM   23  O   UNL     1      -8.003  11.590  69.373  1.00  0.00     0.113 OA 
BRANCH  21  24
HETATM   24  C   UNL     1      -6.441  12.129  67.637  1.00  0.00    -0.110 C  
HETATM   25  H   UNL     1      -5.670  12.399  65.846  1.00  0.00     0.000 HD 
HETATM   26  C   UNL     1      -7.307  13.370  67.484  1.00  0.00    -0.156 C  
HETATM   27  O   UNL     1      -6.102  11.693  66.310  1.00  0.00    -0.102 OA 
HETATM   28  O   UNL     1      -8.514  13.418  67.696  1.00  0.00    -0.161 OA 
ENDBRANCH  21  24
ENDBRANCH   4  21
ENDBRANCH   3   4
TORSDOF 6
ENDMDL
MODEL      269
REMARK 921   NORMALIZED FREE ENERGY PREDICTED BY IDOCK:   -2.76 KCAL/MOL
REMARK 922        TOTAL FREE ENERGY PREDICTED BY IDOCK:   -4.93 KCAL/MOL
REMARK 923 INTER-LIGAND FREE ENERGY PREDICTED BY IDOCK:   -4.04 KCAL/MOL
REMARK 924 INTRA-LIGAND FREE ENERGY PREDICTED BY IDOCK:   -0.90 KCAL/MOL
REMARK 927      BINDING AFFINITY PREDICTED BY RF-SCORE:    0.00 PKD
ROOT
HETATM    1  O   UNL     1      -6.678   6.200  74.037  1.00  0.00    -0.077 OA 
HETATM    2  H   UNL     1      -6.193   5.866  74.782  1.00  0.00     0.000 HD 
HETATM    3  C   UNL     1      -7.891   5.506  73.789  1.00  0.00    -0.105 C  
ENDROOT
BRANCH   3   4
HETATM    4  C   UNL     1      -8.682   6.049  72.575  1.00  0.00    -0.122 C  
BRANCH   4   5
HETATM    5  O   UNL     1      -8.023   7.086  71.826  1.00  0.00    -0.098 OA 
BRANCH   5   6
HETATM    6  C   UNL     1      -8.801   8.263  71.614  1.00  0.00    -0.172 C  
HETATM    7  C   UNL     1     -11.036   9.137  71.711  1.00  0.00    -0.359 C  
HETATM    8  O   UNL     1     -10.190   7.980  71.853  1.00  0.00    -0.191 OA 
HETATM    9  H   UNL     1      -7.096   9.392  68.999  1.00  0.00     0.000 HD 
HETATM   10  C   UNL     1     -10.932   9.744  70.304  1.00  0.00    -0.298 C  
HETATM   11  O   UNL     1      -7.220   9.071  69.885  1.00  0.00    -0.052 OA 
HETATM   12  O   UNL     1     -11.393   8.863  69.268  1.00  0.00    -0.426 OA 
HETATM   13  C   UNL     1      -9.461  10.059  70.007  1.00  0.00    -0.136 C  
HETATM   14  H   UNL     1     -11.329   9.238  68.397  1.00  0.00     0.000 HD 
HETATM   15  H   UNL     1      -8.433  10.836  68.519  1.00  0.00     0.000 HD 
HETATM   16  O   UNL     1      -9.345  10.640  68.703  1.00  0.00    -0.161 OA 
HETATM   17  C   UNL     1      -8.599   8.788  70.164  1.00  0.00    -0.146 C  
BRANCH   7  18
HETATM   18  C   UNL     1     -12.470   8.721  72.046  1.00  0.00    -0.386 C  
HETATM   19  O   UNL     1     -13.362   9.202  71.044  1.00  0.00    -0.547 OA 
HETATM   20  H   UNL     1     -14.252   8.943  71.252  1.00  0.00     0.000 HD 
ENDBRANCH   7  18
ENDBRANCH   5   6
ENDBRANCH   4   5
BRANCH   4  21
HETATM   21  C   UNL     1      -9.093   4.891  71.616  1.00  0.00    -0.140 C  
HETATM   22  H   UNL     1      -8.951   2.901  71.558  1.00  0.00     0.000 HD 
HETATM   23  O   UNL     1      -8.701   3.607  72.143  1.00  0.00    -0.089 OA 
BRANCH  21  24
HETATM   24  C   UNL     1      -8.471   5.019  70.221  1.00  0.00    -0.099 C  
HETATM   25  H   UNL     1      -7.758   3.791  68.857  1.00  0.00     0.000 HD 
HETATM   26  C   UNL     1      -9.401   5.659  69.202  1.00  0.00    -0.124 C  
HETATM   27  O   UNL     1      -8.143   3.712  69.722  1.00  0.00    -0.053 OA 
HETATM   28  O   UNL     1     -10.604   5.840  69.362  1.00  0.00    -0.257 OA 
ENDBRANCH  21  24
ENDBRANCH   4  21
ENDBRANCH   3   4
TORSDOF 6
ENDMDL
MODEL      270
REMARK 921   NORMALIZED FREE ENERGY PREDICTED BY IDOCK:   -2.75 KCAL/MOL
REMARK 922        TOTAL FREE ENERGY PREDICTED BY IDOCK:   -4.91 KCAL/MOL
REMARK 923 INTER-LIGAND FREE ENERGY PREDICTED BY IDOCK:   -3.86 KCAL/MOL
REMARK 924 INTRA-LIGAND FREE ENERGY PREDICTED BY IDOCK:   -1.05 KCAL/MOL
REMARK 927      BINDING AFFINITY PREDICTED BY RF-SCORE:    0.00 PKD
ROOT
HETATM    1  O   UNL     1      -8.186   8.919  72.470  1.00  0.00    -0.384 OA 
HETATM    2  H   UNL     1      -7.708   9.473  73.077  1.00  0.00     0.000 HD 
HETATM    3  C   UNL     1      -7.797   7.555  72.516  1.00  0.00    -0.099 C  
ENDROOT
BRANCH   3   4
HETATM    4  C   UNL     1      -8.573   6.653  71.529  1.00  0.00    -0.124 C  
BRANCH   4   5
HETATM    5  O   UNL     1      -8.301   6.888  70.136  1.00  0.00    -0.131 OA 
BRANCH   5   6
HETATM    6  C   UNL     1      -9.440   7.224  69.347  1.00  0.00    -0.154 C  
HETATM    7  C   UNL     1     -10.725   6.548  67.434  1.00  0.00    -0.340 C  
HETATM    8  O   UNL     1      -9.563   6.304  68.249  1.00  0.00    -0.120 OA 
HETATM    9  H   UNL     1      -9.109  10.520  69.567  1.00  0.00     0.000 HD 
HETATM   10  C   UNL     1     -10.714   7.964  66.840  1.00  0.00    -0.149 C  
HETATM   11  O   UNL     1      -9.183   9.629  69.889  1.00  0.00    -0.198 OA 
HETATM   12  O   UNL     1      -9.620   8.196  65.940  1.00  0.00    -0.428 OA 
HETATM   13  C   UNL     1     -10.581   8.980  67.983  1.00  0.00    -0.186 C  
HETATM   14  H   UNL     1      -9.612   9.072  65.573  1.00  0.00     0.000 HD 
HETATM   15  H   UNL     1     -10.502  10.938  68.157  1.00  0.00     0.000 HD 
HETATM   16  O   UNL     1     -10.583  10.309  67.450  1.00  0.00    -0.233 OA 
HETATM   17  C   UNL     1      -9.319   8.682  68.819  1.00  0.00    -0.142 C  
BRANCH   7  18
HETATM   18  C   UNL     1     -10.774   5.475  66.343  1.00  0.00    -0.194 C  
HETATM   19  O   UNL     1      -9.563   5.492  65.591  1.00  0.00    -0.334 OA 
HETATM   20  H   UNL     1      -9.593   4.826  64.914  1.00  0.00     0.000 HD 
ENDBRANCH   7  18
ENDBRANCH   5   6
ENDBRANCH   4   5
BRANCH   4  21
HETATM   21  C   UNL     1      -8.348   5.146  71.858  1.00  0.00    -0.121 C  
HETATM   22  H   UNL     1      -7.975   3.456  70.864  1.00  0.00     0.000 HD 
HETATM   23  O   UNL     1      -8.111   4.375  70.663  1.00  0.00    -0.065 OA 
BRANCH  21  24
HETATM   24  C   UNL     1      -9.537   4.507  72.584  1.00  0.00    -0.137 C  
HETATM   25  H   UNL     1     -10.888   3.133  72.177  1.00  0.00     0.000 HD 
HETATM   26  C   UNL     1      -9.146   3.786  73.865  1.00  0.00    -0.090 C  
HETATM   27  O   UNL     1     -10.151   3.529  71.727  1.00  0.00    -0.163 OA 
HETATM   28  O   UNL     1      -7.998   3.505  74.193  1.00  0.00    -0.072 OA 
ENDBRANCH  21  24
ENDBRANCH   4  21
ENDBRANCH   3   4
TORSDOF 6
ENDMDL
MODEL      271
REMARK 921   NORMALIZED FREE ENERGY PREDICTED BY IDOCK:   -2.74 KCAL/MOL
REMARK 922        TOTAL FREE ENERGY PREDICTED BY IDOCK:   -4.90 KCAL/MOL
REMARK 923 INTER-LIGAND FREE ENERGY PREDICTED BY IDOCK:   -5.63 KCAL/MOL
REMARK 924 INTRA-LIGAND FREE ENERGY PREDICTED BY IDOCK:    0.72 KCAL/MOL
REMARK 927      BINDING AFFINITY PREDICTED BY RF-SCORE:    0.00 PKD
ROOT
HETATM    1  O   UNL     1      -9.534  18.619  67.250  1.00  0.00    -0.291 OA 
HETATM    2  H   UNL     1      -9.165  19.464  67.025  1.00  0.00     0.000 HD 
HETATM    3  C   UNL     1      -9.135  17.572  66.379  1.00  0.00    -0.240 C  
ENDROOT
BRANCH   3   4
HETATM    4  C   UNL     1      -9.737  16.194  66.746  1.00  0.00    -0.242 C  
BRANCH   4   5
HETATM    5  O   UNL     1      -9.519  15.151  65.779  1.00  0.00    -0.327 OA 
BRANCH   5   6
HETATM    6  C   UNL     1     -10.277  13.963  65.993  1.00  0.00    -0.310 C  
HETATM    7  C   UNL     1     -10.086  11.598  66.368  1.00  0.00    -0.214 C  
HETATM    8  O   UNL     1      -9.395  12.832  66.097  1.00  0.00    -0.210 OA 
HETATM    9  H   UNL     1     -12.799  14.739  63.980  1.00  0.00     0.000 HD 
HETATM   10  C   UNL     1     -11.113  11.272  65.274  1.00  0.00    -0.076 C  
HETATM   11  O   UNL     1     -12.181  14.867  64.689  1.00  0.00    -0.418 OA 
HETATM   12  O   UNL     1     -10.521  11.048  63.985  1.00  0.00    -0.353 OA 
HETATM   13  C   UNL     1     -12.076  12.458  65.129  1.00  0.00    -0.405 C  
HETATM   14  H   UNL     1     -11.157  10.847  63.308  1.00  0.00     0.000 HD 
HETATM   15  H   UNL     1     -13.648  12.901  64.032  1.00  0.00     0.000 HD 
HETATM   16  O   UNL     1     -13.052  12.167  64.122  1.00  0.00    -0.694 OA 
HETATM   17  C   UNL     1     -11.289  13.752  64.831  1.00  0.00    -0.347 C  
BRANCH   7  18
HETATM   18  C   UNL     1      -9.039  10.490  66.513  1.00  0.00    -0.157 C  
HETATM   19  O   UNL     1      -9.539   9.275  65.960  1.00  0.00    -0.230 OA 
HETATM   20  H   UNL     1      -8.890   8.588  66.050  1.00  0.00     0.000 HD 
ENDBRANCH   7  18
ENDBRANCH   5   6
ENDBRANCH   4   5
BRANCH   4  21
HETATM   21  C   UNL     1      -9.236  15.723  68.144  1.00  0.00    -0.189 C  
HETATM   22  H   UNL     1      -9.362  16.333  70.041  1.00  0.00     0.000 HD 
HETATM   23  O   UNL     1      -9.668  16.620  69.188  1.00  0.00    -0.262 OA 
BRANCH  21  24
HETATM   24  C   UNL     1      -7.710  15.623  68.233  1.00  0.00    -0.130 C  
HETATM   25  H   UNL     1      -6.207  15.559  66.963  1.00  0.00     0.000 HD 
HETATM   26  C   UNL     1      -7.070  16.784  68.978  1.00  0.00    -0.221 C  
HETATM   27  O   UNL     1      -7.153  15.622  66.908  1.00  0.00    -0.199 OA 
HETATM   28  O   UNL     1      -7.639  17.830  69.274  1.00  0.00    -0.114 OA 
ENDBRANCH  21  24
ENDBRANCH   4  21
ENDBRANCH   3   4
TORSDOF 6
ENDMDL
MODEL      272
REMARK 921   NORMALIZED FREE ENERGY PREDICTED BY IDOCK:   -2.70 KCAL/MOL
REMARK 922        TOTAL FREE ENERGY PREDICTED BY IDOCK:   -4.85 KCAL/MOL
REMARK 923 INTER-LIGAND FREE ENERGY PREDICTED BY IDOCK:   -3.93 KCAL/MOL
REMARK 924 INTRA-LIGAND FREE ENERGY PREDICTED BY IDOCK:   -0.92 KCAL/MOL
REMARK 927      BINDING AFFINITY PREDICTED BY RF-SCORE:    0.00 PKD
ROOT
HETATM    1  O   UNL     1      -9.341   2.889  70.761  1.00  0.00    -0.127 OA 
HETATM    2  H   UNL     1      -9.999   2.210  70.662  1.00  0.00     0.000 HD 
HETATM    3  C   UNL     1      -9.865   4.130  71.207  1.00  0.00    -0.179 C  
ENDROOT
BRANCH   3   4
HETATM    4  C   UNL     1      -8.794   5.235  71.369  1.00  0.00    -0.134 C  
BRANCH   4   5
HETATM    5  O   UNL     1      -8.368   5.863  70.146  1.00  0.00    -0.114 OA 
BRANCH   5   6
HETATM    6  C   UNL     1      -9.424   6.318  69.303  1.00  0.00    -0.134 C  
HETATM    7  C   UNL     1     -10.572   5.868  67.242  1.00  0.00    -0.291 C  
HETATM    8  O   UNL     1      -9.492   5.502  68.121  1.00  0.00    -0.109 OA 
HETATM    9  H   UNL     1      -8.983   9.564  69.841  1.00  0.00     0.000 HD 
HETATM   10  C   UNL     1     -10.456   7.327  66.779  1.00  0.00    -0.241 C  
HETATM   11  O   UNL     1      -9.118   8.653  70.075  1.00  0.00    -0.148 OA 
HETATM   12  O   UNL     1      -9.282   7.584  65.993  1.00  0.00    -0.314 OA 
HETATM   13  C   UNL     1     -10.378   8.235  68.014  1.00  0.00    -0.213 C  
HETATM   14  H   UNL     1      -9.210   8.488  65.706  1.00  0.00     0.000 HD 
HETATM   15  H   UNL     1     -10.236  10.165  68.368  1.00  0.00     0.000 HD 
HETATM   16  O   UNL     1     -10.284   9.603  67.603  1.00  0.00    -0.188 OA 
HETATM   17  C   UNL     1      -9.202   7.808  68.918  1.00  0.00    -0.140 C  
BRANCH   7  18
HETATM   18  C   UNL     1     -10.572   4.895  66.060  1.00  0.00    -0.261 C  
HETATM   19  O   UNL     1      -9.237   4.674  65.613  1.00  0.00    -0.137 OA 
HETATM   20  H   UNL     1      -9.237   4.070  64.880  1.00  0.00     0.000 HD 
ENDBRANCH   7  18
ENDBRANCH   5   6
ENDBRANCH   4   5
BRANCH   4  21
HETATM   21  C   UNL     1      -9.268   6.324  72.379  1.00  0.00    -0.138 C  
HETATM   22  H   UNL     1      -8.601   7.171  74.058  1.00  0.00     0.000 HD 
HETATM   23  O   UNL     1      -8.312   6.507  73.443  1.00  0.00    -0.119 OA 
BRANCH  21  24
HETATM   24  C   UNL     1     -10.615   5.993  73.029  1.00  0.00    -0.240 C  
HETATM   25  H   UNL     1     -11.344   5.942  74.858  1.00  0.00     0.000 HD 
HETATM   26  C   UNL     1     -11.746   6.901  72.572  1.00  0.00    -0.154 C  
HETATM   27  O   UNL     1     -10.509   6.147  74.455  1.00  0.00    -0.280 OA 
HETATM   28  O   UNL     1     -11.601   7.948  71.949  1.00  0.00    -0.266 OA 
ENDBRANCH  21  24
ENDBRANCH   4  21
ENDBRANCH   3   4
TORSDOF 6
ENDMDL
MODEL      273
REMARK 921   NORMALIZED FREE ENERGY PREDICTED BY IDOCK:   -2.66 KCAL/MOL
REMARK 922        TOTAL FREE ENERGY PREDICTED BY IDOCK:   -4.79 KCAL/MOL
REMARK 923 INTER-LIGAND FREE ENERGY PREDICTED BY IDOCK:   -3.77 KCAL/MOL
REMARK 924 INTRA-LIGAND FREE ENERGY PREDICTED BY IDOCK:   -1.02 KCAL/MOL
REMARK 927      BINDING AFFINITY PREDICTED BY RF-SCORE:    0.00 PKD
ROOT
HETATM    1  O   UNL     1      -8.720  11.694  67.745  1.00  0.00    -0.142 OA 
HETATM    2  H   UNL     1      -8.455  12.388  67.153  1.00  0.00     0.000 HD 
HETATM    3  C   UNL     1      -8.119  10.440  67.460  1.00  0.00    -0.107 C  
ENDROOT
BRANCH   3   4
HETATM    4  C   UNL     1      -8.551   9.310  68.424  1.00  0.00    -0.124 C  
BRANCH   4   5
HETATM    5  O   UNL     1      -7.577   8.269  68.627  1.00  0.00    -0.095 OA 
BRANCH   5   6
HETATM    6  C   UNL     1      -8.077   6.941  68.491  1.00  0.00    -0.120 C  
HETATM    7  C   UNL     1      -9.830   5.637  67.492  1.00  0.00    -0.139 C  
HETATM    8  O   UNL     1      -9.291   6.953  67.720  1.00  0.00    -0.123 OA 
HETATM    9  H   UNL     1      -7.301   5.914  71.550  1.00  0.00     0.000 HD 
HETATM   10  C   UNL     1     -10.139   4.916  68.813  1.00  0.00    -0.099 C  
HETATM   11  O   UNL     1      -7.145   6.296  70.694  1.00  0.00    -0.065 OA 
HETATM   12  O   UNL     1     -11.156   5.564  69.592  1.00  0.00    -0.249 OA 
HETATM   13  C   UNL     1      -8.866   4.883  69.669  1.00  0.00    -0.086 C  
HETATM   14  H   UNL     1     -11.347   5.118  70.409  1.00  0.00     0.000 HD 
HETATM   15  H   UNL     1      -8.342   4.180  71.430  1.00  0.00     0.000 HD 
HETATM   16  O   UNL     1      -9.130   4.201  70.900  1.00  0.00    -0.103 OA 
HETATM   17  C   UNL     1      -8.333   6.315  69.891  1.00  0.00    -0.129 C  
BRANCH   7  18
HETATM   18  C   UNL     1     -11.079   5.780  66.618  1.00  0.00     0.017 C  
HETATM   19  O   UNL     1     -10.892   5.085  65.388  1.00  0.00    -0.552 OA 
HETATM   20  H   UNL     1     -11.666   5.174  64.845  1.00  0.00     0.000 HD 
ENDBRANCH   7  18
ENDBRANCH   5   6
ENDBRANCH   4   5
BRANCH   4  21
HETATM   21  C   UNL     1      -8.990   9.891  69.802  1.00  0.00    -0.221 C  
HETATM   22  H   UNL     1      -8.338   9.872  71.688  1.00  0.00     0.000 HD 
HETATM   23  O   UNL     1      -8.071   9.517  70.848  1.00  0.00    -0.297 OA 
BRANCH  21  24
HETATM   24  C   UNL     1     -10.384   9.425  70.233  1.00  0.00    -0.245 C  
HETATM   25  H   UNL     1     -11.276   8.965  71.927  1.00  0.00     0.000 HD 
HETATM   26  C   UNL     1     -11.486  10.414  69.887  1.00  0.00    -0.297 C  
HETATM   27  O   UNL     1     -10.412   9.254  71.660  1.00  0.00    -0.344 OA 
HETATM   28  O   UNL     1     -11.305  11.574  69.531  1.00  0.00    -0.256 OA 
ENDBRANCH  21  24
ENDBRANCH   4  21
ENDBRANCH   3   4
TORSDOF 6
ENDMDL
MODEL      274
REMARK 921   NORMALIZED FREE ENERGY PREDICTED BY IDOCK:   -2.64 KCAL/MOL
REMARK 922        TOTAL FREE ENERGY PREDICTED BY IDOCK:   -4.77 KCAL/MOL
REMARK 923 INTER-LIGAND FREE ENERGY PREDICTED BY IDOCK:   -4.56 KCAL/MOL
REMARK 924 INTRA-LIGAND FREE ENERGY PREDICTED BY IDOCK:   -0.21 KCAL/MOL
REMARK 927      BINDING AFFINITY PREDICTED BY RF-SCORE:    0.00 PKD
ROOT
HETATM    1  O   UNL     1     -11.134  11.122  70.481  1.00  0.00    -0.401 OA 
HETATM    2  H   UNL     1     -11.671  11.835  70.806  1.00  0.00     0.000 HD 
HETATM    3  C   UNL     1     -11.734  10.393  69.422  1.00  0.00    -0.160 C  
ENDROOT
BRANCH   3   4
HETATM    4  C   UNL     1     -10.860   9.231  68.892  1.00  0.00    -0.099 C  
BRANCH   4   5
HETATM    5  O   UNL     1      -9.480   9.560  68.650  1.00  0.00    -0.140 OA 
BRANCH   5   6
HETATM    6  C   UNL     1      -9.268  10.630  67.732  1.00  0.00    -0.146 C  
HETATM    7  C   UNL     1      -9.157  13.024  67.557  1.00  0.00    -0.191 C  
HETATM    8  O   UNL     1      -9.410  11.891  68.410  1.00  0.00    -0.199 OA 
HETATM    9  H   UNL     1     -10.787   9.226  65.136  1.00  0.00     0.000 HD 
HETATM   10  C   UNL     1     -10.107  13.047  66.351  1.00  0.00    -0.279 C  
HETATM   11  O   UNL     1     -10.172   9.284  65.858  1.00  0.00    -0.245 OA 
HETATM   12  O   UNL     1     -11.487  13.205  66.715  1.00  0.00    -0.312 OA 
HETATM   13  C   UNL     1      -9.989  11.716  65.599  1.00  0.00    -0.240 C  
HETATM   14  H   UNL     1     -12.076  13.219  65.969  1.00  0.00     0.000 HD 
HETATM   15  H   UNL     1     -10.784  10.899  63.995  1.00  0.00     0.000 HD 
HETATM   16  O   UNL     1     -10.858  11.724  64.461  1.00  0.00    -0.292 OA 
HETATM   17  C   UNL     1     -10.277  10.536  66.552  1.00  0.00    -0.231 C  
BRANCH   7  18
HETATM   18  C   UNL     1      -9.282  14.293  68.404  1.00  0.00    -0.196 C  
HETATM   19  O   UNL     1      -8.190  14.377  69.316  1.00  0.00    -0.345 OA 
HETATM   20  H   UNL     1      -8.267  15.165  69.841  1.00  0.00     0.000 HD 
ENDBRANCH   7  18
ENDBRANCH   5   6
ENDBRANCH   4   5
BRANCH   4  21
HETATM   21  C   UNL     1     -10.944   7.996  69.839  1.00  0.00    -0.172 C  
HETATM   22  H   UNL     1     -11.349   7.631  71.759  1.00  0.00     0.000 HD 
HETATM   23  O   UNL     1     -11.298   8.385  71.182  1.00  0.00    -0.255 OA 
BRANCH  21  24
HETATM   24  C   UNL     1      -9.629   7.214  69.923  1.00  0.00    -0.163 C  
HETATM   25  H   UNL     1      -8.142   7.055  71.204  1.00  0.00     0.000 HD 
HETATM   26  C   UNL     1      -9.821   5.706  69.913  1.00  0.00    -0.189 C  
HETATM   27  O   UNL     1      -8.957   7.539  71.152  1.00  0.00    -0.141 OA 
HETATM   28  O   UNL     1     -10.893   5.131  70.072  1.00  0.00    -0.169 OA 
ENDBRANCH  21  24
ENDBRANCH   4  21
ENDBRANCH   3   4
TORSDOF 6
ENDMDL
MODEL      275
REMARK 921   NORMALIZED FREE ENERGY PREDICTED BY IDOCK:   -2.64 KCAL/MOL
REMARK 922        TOTAL FREE ENERGY PREDICTED BY IDOCK:   -4.77 KCAL/MOL
REMARK 923 INTER-LIGAND FREE ENERGY PREDICTED BY IDOCK:   -4.90 KCAL/MOL
REMARK 924 INTRA-LIGAND FREE ENERGY PREDICTED BY IDOCK:    0.13 KCAL/MOL
REMARK 927      BINDING AFFINITY PREDICTED BY RF-SCORE:    0.00 PKD
ROOT
HETATM    1  O   UNL     1      -9.718  16.799  64.991  1.00  0.00     0.098 OA 
HETATM    2  H   UNL     1     -10.384  17.230  64.468  1.00  0.00     0.000 HD 
HETATM    3  C   UNL     1     -10.245  15.980  66.023  1.00  0.00    -0.341 C  
ENDROOT
BRANCH   3   4
HETATM    4  C   UNL     1      -9.161  15.278  66.875  1.00  0.00    -0.234 C  
BRANCH   4   5
HETATM    5  O   UNL     1      -8.028  16.093  67.223  1.00  0.00    -0.148 OA 
BRANCH   5   6
HETATM    6  C   UNL     1      -8.010  17.387  66.624  1.00  0.00    -0.258 C  
HETATM    7  C   UNL     1      -6.744  18.818  65.168  1.00  0.00    -0.050 C  
HETATM    8  O   UNL     1      -6.809  17.551  65.850  1.00  0.00    -0.255 OA 
HETATM    9  H   UNL     1      -9.337  19.023  69.190  1.00  0.00     0.000 HD 
HETATM   10  C   UNL     1      -6.812  19.994  66.153  1.00  0.00    -0.239 C  
HETATM   11  O   UNL     1      -9.282  18.350  68.521  1.00  0.00    -0.317 OA 
HETATM   12  O   UNL     1      -5.699  20.043  67.060  1.00  0.00    -0.172 OA 
HETATM   13  C   UNL     1      -8.081  19.856  67.004  1.00  0.00    -0.309 C  
HETATM   14  H   UNL     1      -5.741  20.771  67.669  1.00  0.00     0.000 HD 
HETATM   15  H   UNL     1      -8.956  20.868  68.447  1.00  0.00     0.000 HD 
HETATM   16  O   UNL     1      -8.170  20.953  67.921  1.00  0.00     0.002 OA 
HETATM   17  C   UNL     1      -8.100  18.488  67.719  1.00  0.00    -0.251 C  
BRANCH   7  18
HETATM   18  C   UNL     1      -5.458  18.845  64.338  1.00  0.00    -0.242 C  
HETATM   19  O   UNL     1      -5.734  19.341  63.031  1.00  0.00    -0.381 OA 
HETATM   20  H   UNL     1      -4.936  19.358  62.516  1.00  0.00     0.000 HD 
ENDBRANCH   7  18
ENDBRANCH   5   6
ENDBRANCH   4   5
BRANCH   4  21
HETATM   21  C   UNL     1      -9.781  14.665  68.167  1.00  0.00    -0.220 C  
HETATM   22  H   UNL     1      -9.928  12.870  69.027  1.00  0.00     0.000 HD 
HETATM   23  O   UNL     1      -9.550  13.244  68.239  1.00  0.00    -0.221 OA 
BRANCH  21  24
HETATM   24  C   UNL     1     -11.293  14.887  68.271  1.00  0.00    -0.310 C  
HETATM   25  H   UNL     1     -12.896  13.753  68.413  1.00  0.00     0.000 HD 
HETATM   26  C   UNL     1     -11.705  15.676  69.503  1.00  0.00    -0.370 C  
HETATM   27  O   UNL     1     -11.959  13.615  68.350  1.00  0.00    -0.355 OA 
HETATM   28  O   UNL     1     -10.979  15.915  70.463  1.00  0.00    -0.328 OA 
ENDBRANCH  21  24
ENDBRANCH   4  21
ENDBRANCH   3   4
TORSDOF 6
ENDMDL
MODEL      276
REMARK 921   NORMALIZED FREE ENERGY PREDICTED BY IDOCK:   -2.63 KCAL/MOL
REMARK 922        TOTAL FREE ENERGY PREDICTED BY IDOCK:   -4.76 KCAL/MOL
REMARK 923 INTER-LIGAND FREE ENERGY PREDICTED BY IDOCK:   -4.45 KCAL/MOL
REMARK 924 INTRA-LIGAND FREE ENERGY PREDICTED BY IDOCK:   -0.30 KCAL/MOL
REMARK 927      BINDING AFFINITY PREDICTED BY RF-SCORE:    0.00 PKD
ROOT
HETATM    1  O   UNL     1      -6.739   9.299  68.499  1.00  0.00    -0.057 OA 
HETATM    2  H   UNL     1      -5.896   9.190  68.074  1.00  0.00     0.000 HD 
HETATM    3  C   UNL     1      -7.749   8.441  67.992  1.00  0.00    -0.103 C  
ENDROOT
BRANCH   3   4
HETATM    4  C   UNL     1      -9.121   8.617  68.683  1.00  0.00    -0.138 C  
BRANCH   4   5
HETATM    5  O   UNL     1     -10.267   8.422  67.835  1.00  0.00    -0.196 OA 
BRANCH   5   6
HETATM    6  C   UNL     1     -10.659   9.565  67.079  1.00  0.00    -0.201 C  
HETATM    7  C   UNL     1     -10.258  10.746  65.026  1.00  0.00    -0.306 C  
HETATM    8  O   UNL     1      -9.881   9.643  65.872  1.00  0.00    -0.258 OA 
HETATM    9  H   UNL     1     -11.118  11.602  69.659  1.00  0.00     0.000 HD 
HETATM   10  C   UNL     1     -10.106  12.092  65.750  1.00  0.00    -0.238 C  
HETATM   11  O   UNL     1     -11.230  10.812  69.143  1.00  0.00    -0.223 OA 
HETATM   12  O   UNL     1      -8.750  12.395  66.113  1.00  0.00    -0.414 OA 
HETATM   13  C   UNL     1     -10.921  12.051  67.049  1.00  0.00    -0.274 C  
HETATM   14  H   UNL     1      -8.656  13.227  66.561  1.00  0.00     0.000 HD 
HETATM   15  H   UNL     1     -11.310  13.278  68.537  1.00  0.00     0.000 HD 
HETATM   16  O   UNL     1     -10.804  13.303  67.733  1.00  0.00    -0.244 OA 
HETATM   17  C   UNL     1     -10.476  10.858  67.923  1.00  0.00    -0.195 C  
BRANCH   7  18
HETATM   18  C   UNL     1      -9.403  10.684  63.757  1.00  0.00    -0.271 C  
HETATM   19  O   UNL     1      -9.423   9.364  63.222  1.00  0.00    -0.484 OA 
HETATM   20  H   UNL     1      -8.893   9.326  62.435  1.00  0.00     0.000 HD 
ENDBRANCH   7  18
ENDBRANCH   5   6
ENDBRANCH   4   5
BRANCH   4  21
HETATM   21  C   UNL     1      -9.235   7.697  69.936  1.00  0.00    -0.147 C  
HETATM   22  H   UNL     1      -8.781   7.782  71.877  1.00  0.00     0.000 HD 
HETATM   23  O   UNL     1      -8.712   8.343  71.114  1.00  0.00    -0.133 OA 
BRANCH  21  24
HETATM   24  C   UNL     1      -8.487   6.369  69.775  1.00  0.00    -0.127 C  
HETATM   25  H   UNL     1      -6.817   5.580  70.456  1.00  0.00     0.000 HD 
HETATM   26  C   UNL     1      -9.285   5.165  70.248  1.00  0.00    -0.146 C  
HETATM   27  O   UNL     1      -7.280   6.402  70.556  1.00  0.00    -0.070 OA 
HETATM   28  O   UNL     1     -10.310   5.218  70.920  1.00  0.00    -0.227 OA 
ENDBRANCH  21  24
ENDBRANCH   4  21
ENDBRANCH   3   4
TORSDOF 6
ENDMDL
MODEL      277
REMARK 921   NORMALIZED FREE ENERGY PREDICTED BY IDOCK:   -2.61 KCAL/MOL
REMARK 922        TOTAL FREE ENERGY PREDICTED BY IDOCK:   -4.73 KCAL/MOL
REMARK 923 INTER-LIGAND FREE ENERGY PREDICTED BY IDOCK:   -3.90 KCAL/MOL
REMARK 924 INTRA-LIGAND FREE ENERGY PREDICTED BY IDOCK:   -0.82 KCAL/MOL
REMARK 927      BINDING AFFINITY PREDICTED BY RF-SCORE:    0.00 PKD
ROOT
HETATM    1  O   UNL     1      -5.984   7.066  68.563  1.00  0.00    -0.023 OA 
HETATM    2  H   UNL     1      -5.103   7.332  68.803  1.00  0.00     0.000 HD 
HETATM    3  C   UNL     1      -6.984   7.535  69.453  1.00  0.00    -0.057 C  
ENDROOT
BRANCH   3   4
HETATM    4  C   UNL     1      -8.417   7.103  69.063  1.00  0.00    -0.129 C  
BRANCH   4   5
HETATM    5  O   UNL     1      -9.126   8.020  68.210  1.00  0.00    -0.136 OA 
BRANCH   5   6
HETATM    6  C   UNL     1      -9.459   9.268  68.813  1.00  0.00    -0.150 C  
HETATM    7  C   UNL     1     -11.113  10.376  70.157  1.00  0.00    -0.314 C  
HETATM    8  O   UNL     1     -10.731   9.166  69.476  1.00  0.00    -0.228 OA 
HETATM    9  H   UNL     1      -8.273  11.203  66.390  1.00  0.00     0.000 HD 
HETATM   10  C   UNL     1     -11.200  11.566  69.190  1.00  0.00    -0.274 C  
HETATM   11  O   UNL     1      -8.249  10.516  67.046  1.00  0.00    -0.122 OA 
HETATM   12  O   UNL     1     -12.216  11.412  68.187  1.00  0.00    -0.602 OA 
HETATM   13  C   UNL     1      -9.860  11.710  68.457  1.00  0.00    -0.193 C  
HETATM   14  H   UNL     1     -12.270  12.148  67.588  1.00  0.00     0.000 HD 
HETATM   15  H   UNL     1      -9.086  12.914  67.107  1.00  0.00     0.000 HD 
HETATM   16  O   UNL     1      -9.916  12.824  67.560  1.00  0.00    -0.205 OA 
HETATM   17  C   UNL     1      -9.500  10.392  67.738  1.00  0.00    -0.145 C  
BRANCH   7  18
HETATM   18  C   UNL     1     -12.445  10.122  70.867  1.00  0.00    -0.360 C  
HETATM   19  O   UNL     1     -12.833  11.279  71.601  1.00  0.00    -0.424 OA 
HETATM   20  H   UNL     1     -13.660  11.122  72.041  1.00  0.00     0.000 HD 
ENDBRANCH   7  18
ENDBRANCH   5   6
ENDBRANCH   4   5
BRANCH   4  21
HETATM   21  C   UNL     1      -8.413   5.685  68.417  1.00  0.00    -0.105 C  
HETATM   22  H   UNL     1      -9.380   4.723  66.959  1.00  0.00     0.000 HD 
HETATM   23  O   UNL     1      -9.382   5.588  67.352  1.00  0.00    -0.113 OA 
BRANCH  21  24
HETATM   24  C   UNL     1      -8.726   4.568  69.419  1.00  0.00    -0.086 C  
HETATM   25  H   UNL     1      -9.665   2.838  69.382  1.00  0.00     0.000 HD 
HETATM   26  C   UNL     1      -7.483   3.915  70.003  1.00  0.00    -0.045 C  
HETATM   27  O   UNL     1      -9.471   3.529  68.761  1.00  0.00    -0.164 OA 
HETATM   28  O   UNL     1      -6.343   4.056  69.570  1.00  0.00    -0.027 OA 
ENDBRANCH  21  24
ENDBRANCH   4  21
ENDBRANCH   3   4
TORSDOF 6
ENDMDL
MODEL      278
REMARK 921   NORMALIZED FREE ENERGY PREDICTED BY IDOCK:   -2.58 KCAL/MOL
REMARK 922        TOTAL FREE ENERGY PREDICTED BY IDOCK:   -4.69 KCAL/MOL
REMARK 923 INTER-LIGAND FREE ENERGY PREDICTED BY IDOCK:   -3.83 KCAL/MOL
REMARK 924 INTRA-LIGAND FREE ENERGY PREDICTED BY IDOCK:   -0.86 KCAL/MOL
REMARK 927      BINDING AFFINITY PREDICTED BY RF-SCORE:    0.00 PKD
ROOT
HETATM    1  O   UNL     1      -5.708   7.601  69.029  1.00  0.00    -0.025 OA 
HETATM    2  H   UNL     1      -5.040   8.229  68.779  1.00  0.00     0.000 HD 
HETATM    3  C   UNL     1      -7.008   7.938  68.573  1.00  0.00    -0.071 C  
ENDROOT
BRANCH   3   4
HETATM    4  C   UNL     1      -8.095   6.915  68.979  1.00  0.00    -0.117 C  
BRANCH   4   5
HETATM    5  O   UNL     1      -9.442   7.422  68.997  1.00  0.00    -0.149 OA 
BRANCH   5   6
HETATM    6  C   UNL     1      -9.825   8.070  70.207  1.00  0.00    -0.184 C  
HETATM    7  C   UNL     1     -10.517   7.667  72.472  1.00  0.00    -0.268 C  
HETATM    8  O   UNL     1     -10.169   7.088  71.200  1.00  0.00    -0.196 OA 
HETATM    9  H   UNL     1     -11.460  10.593  68.800  1.00  0.00     0.000 HD 
HETATM   10  C   UNL     1     -11.710   8.625  72.350  1.00  0.00    -0.323 C  
HETATM   11  O   UNL     1     -10.726  10.011  68.957  1.00  0.00    -0.204 OA 
HETATM   12  O   UNL     1     -12.922   7.976  71.935  1.00  0.00    -0.317 OA 
HETATM   13  C   UNL     1     -11.385   9.691  71.296  1.00  0.00    -0.388 C  
HETATM   14  H   UNL     1     -13.661   8.569  71.860  1.00  0.00     0.000 HD 
HETATM   15  H   UNL     1     -12.281  11.265  70.526  1.00  0.00     0.000 HD 
HETATM   16  O   UNL     1     -12.482  10.604  71.178  1.00  0.00    -0.348 OA 
HETATM   17  C   UNL     1     -11.028   9.022  69.951  1.00  0.00    -0.193 C  
BRANCH   7  18
HETATM   18  C   UNL     1     -10.802   6.525  73.451  1.00  0.00    -0.222 C  
HETATM   19  O   UNL     1      -9.669   5.665  73.538  1.00  0.00    -0.148 OA 
HETATM   20  H   UNL     1      -9.846   4.957  74.146  1.00  0.00     0.000 HD 
ENDBRANCH   7  18
ENDBRANCH   5   6
ENDBRANCH   4   5
BRANCH   4  21
HETATM   21  C   UNL     1      -8.027   5.645  68.078  1.00  0.00    -0.097 C  
HETATM   22  H   UNL     1      -6.763   4.137  67.744  1.00  0.00     0.000 HD 
HETATM   23  O   UNL     1      -6.804   4.911  68.293  1.00  0.00    -0.053 OA 
BRANCH  21  24
HETATM   24  C   UNL     1      -8.108   5.965  66.582  1.00  0.00    -0.102 C  
HETATM   25  H   UNL     1      -7.157   5.412  64.949  1.00  0.00     0.000 HD 
HETATM   26  C   UNL     1      -9.448   5.607  65.959  1.00  0.00    -0.110 C  
HETATM   27  O   UNL     1      -7.107   5.213  65.876  1.00  0.00    -0.065 OA 
HETATM   28  O   UNL     1     -10.308   4.911  66.489  1.00  0.00    -0.252 OA 
ENDBRANCH  21  24
ENDBRANCH   4  21
ENDBRANCH   3   4
TORSDOF 6
ENDMDL
MODEL      279
REMARK 921   NORMALIZED FREE ENERGY PREDICTED BY IDOCK:   -2.58 KCAL/MOL
REMARK 922        TOTAL FREE ENERGY PREDICTED BY IDOCK:   -4.69 KCAL/MOL
REMARK 923 INTER-LIGAND FREE ENERGY PREDICTED BY IDOCK:   -3.89 KCAL/MOL
REMARK 924 INTRA-LIGAND FREE ENERGY PREDICTED BY IDOCK:   -0.80 KCAL/MOL
REMARK 927      BINDING AFFINITY PREDICTED BY RF-SCORE:    0.00 PKD
ROOT
HETATM    1  O   UNL     1     -12.311  15.876  63.762  1.00  0.00    -1.121 OA 
HETATM    2  H   UNL     1     -12.872  16.050  63.015  1.00  0.00     0.000 HD 
HETATM    3  C   UNL     1     -12.780  14.828  64.595  1.00  0.00     0.077 C  
ENDROOT
BRANCH   3   4
HETATM    4  C   UNL     1     -11.867  14.544  65.812  1.00  0.00    -0.327 C  
BRANCH   4   5
HETATM    5  O   UNL     1     -11.847  13.177  66.261  1.00  0.00    -0.363 OA 
BRANCH   5   6
HETATM    6  C   UNL     1     -12.332  12.970  67.585  1.00  0.00     0.169 C  
HETATM    7  C   UNL     1     -12.837  14.092  69.648  1.00  0.00     0.348 C  
HETATM    8  O   UNL     1     -12.309  14.210  68.313  1.00  0.00    -0.246 OA 
HETATM    9  H   UNL     1     -10.932   9.997  68.054  1.00  0.00     0.000 HD 
HETATM   10  C   UNL     1     -12.053  13.065  70.478  1.00  0.00    -0.292 C  
HETATM   11  O   UNL     1     -11.459  10.651  67.609  1.00  0.00    -0.474 OA 
HETATM   12  O   UNL     1     -10.681  13.432  70.691  1.00  0.00     0.980 OA 
HETATM   13  C   UNL     1     -12.050  11.723  69.733  1.00  0.00    -0.269 C  
HETATM   14  H   UNL     1     -10.196  12.796  71.205  1.00  0.00     0.000 HD 
HETATM   15  H   UNL     1     -11.334   9.916  70.038  1.00  0.00     0.000 HD 
HETATM   16  O   UNL     1     -11.335  10.747  70.499  1.00  0.00    -0.307 OA 
HETATM   17  C   UNL     1     -11.469  11.901  68.314  1.00  0.00    -0.311 C  
BRANCH   7  18
HETATM   18  C   UNL     1     -12.813  15.481  70.293  1.00  0.00    -0.195 C  
HETATM   19  O   UNL     1     -11.953  16.344  69.553  1.00  0.00    -0.199 OA 
HETATM   20  H   UNL     1     -11.938  17.205  69.953  1.00  0.00     0.000 HD 
ENDBRANCH   7  18
ENDBRANCH   5   6
ENDBRANCH   4   5
BRANCH   4  21
HETATM   21  C   UNL     1     -10.411  15.027  65.539  1.00  0.00    -0.365 C  
HETATM   22  H   UNL     1      -8.933  14.615  64.263  1.00  0.00     0.000 HD 
HETATM   23  O   UNL     1      -9.821  14.321  64.429  1.00  0.00     0.076 OA 
BRANCH  21  24
HETATM   24  C   UNL     1      -9.481  14.840  66.743  1.00  0.00    -0.254 C  
HETATM   25  H   UNL     1      -8.213  13.470  67.368  1.00  0.00     0.000 HD 
HETATM   26  C   UNL     1      -8.418  15.921  66.859  1.00  0.00    -0.240 C  
HETATM   27  O   UNL     1      -8.789  13.586  66.622  1.00  0.00    -0.179 OA 
HETATM   28  O   UNL     1      -8.136  16.729  65.980  1.00  0.00    -0.402 OA 
ENDBRANCH  21  24
ENDBRANCH   4  21
ENDBRANCH   3   4
TORSDOF 6
ENDMDL
MODEL      280
REMARK 921   NORMALIZED FREE ENERGY PREDICTED BY IDOCK:   -2.58 KCAL/MOL
REMARK 922        TOTAL FREE ENERGY PREDICTED BY IDOCK:   -4.69 KCAL/MOL
REMARK 923 INTER-LIGAND FREE ENERGY PREDICTED BY IDOCK:   -4.92 KCAL/MOL
REMARK 924 INTRA-LIGAND FREE ENERGY PREDICTED BY IDOCK:    0.23 KCAL/MOL
REMARK 927      BINDING AFFINITY PREDICTED BY RF-SCORE:    0.00 PKD
ROOT
HETATM    1  O   UNL     1     -10.570   5.443  69.029  1.00  0.00    -0.217 OA 
HETATM    2  H   UNL     1     -11.171   5.148  68.354  1.00  0.00     0.000 HD 
HETATM    3  C   UNL     1     -10.516   6.854  69.168  1.00  0.00    -0.207 C  
ENDROOT
BRANCH   3   4
HETATM    4  C   UNL     1      -9.539   7.334  70.267  1.00  0.00    -0.165 C  
BRANCH   4   5
HETATM    5  O   UNL     1      -8.244   7.754  69.798  1.00  0.00    -0.125 OA 
BRANCH   5   6
HETATM    6  C   UNL     1      -8.267   8.732  68.761  1.00  0.00    -0.116 C  
HETATM    7  C   UNL     1      -9.610  10.463  67.777  1.00  0.00    -0.152 C  
HETATM    8  O   UNL     1      -9.531   9.419  68.765  1.00  0.00    -0.147 OA 
HETATM    9  H   UNL     1      -6.625   6.943  66.498  1.00  0.00     0.000 HD 
HETATM   10  C   UNL     1      -9.396   9.917  66.358  1.00  0.00    -0.167 C  
HETATM   11  O   UNL     1      -6.775   7.354  67.342  1.00  0.00    -0.064 OA 
HETATM   12  O   UNL     1     -10.410   8.987  65.946  1.00  0.00    -0.299 OA 
HETATM   13  C   UNL     1      -8.056   9.172  66.310  1.00  0.00    -0.111 C  
HETATM   14  H   UNL     1     -10.278   8.649  65.067  1.00  0.00     0.000 HD 
HETATM   15  H   UNL     1      -7.000   8.205  64.959  1.00  0.00     0.000 HD 
HETATM   16  O   UNL     1      -7.831   8.666  64.989  1.00  0.00    -0.104 OA 
HETATM   17  C   UNL     1      -8.023   8.060  67.380  1.00  0.00    -0.122 C  
BRANCH   7  18
HETATM   18  C   UNL     1     -10.970  11.151  67.921  1.00  0.00    -0.253 C  
HETATM   19  O   UNL     1     -11.929  10.229  68.431  1.00  0.00    -0.730 OA 
HETATM   20  H   UNL     1     -12.773  10.655  68.521  1.00  0.00     0.000 HD 
ENDBRANCH   7  18
ENDBRANCH   5   6
ENDBRANCH   4   5
BRANCH   4  21
HETATM   21  C   UNL     1     -10.178   8.469  71.122  1.00  0.00    -0.214 C  
HETATM   22  H   UNL     1      -9.702   9.556  72.727  1.00  0.00     0.000 HD 
HETATM   23  O   UNL     1      -9.312   8.865  72.205  1.00  0.00    -0.348 OA 
BRANCH  21  24
HETATM   24  C   UNL     1     -11.523   8.071  71.738  1.00  0.00    -0.277 C  
HETATM   25  H   UNL     1     -12.166   7.475  73.501  1.00  0.00     0.000 HD 
HETATM   26  C   UNL     1     -12.557   9.185  71.705  1.00  0.00    -0.360 C  
HETATM   27  O   UNL     1     -11.332   7.722  73.120  1.00  0.00    -0.374 OA 
HETATM   28  O   UNL     1     -12.317  10.362  71.454  1.00  0.00    -0.368 OA 
ENDBRANCH  21  24
ENDBRANCH   4  21
ENDBRANCH   3   4
TORSDOF 6
ENDMDL
MODEL      281
REMARK 921   NORMALIZED FREE ENERGY PREDICTED BY IDOCK:   -2.58 KCAL/MOL
REMARK 922        TOTAL FREE ENERGY PREDICTED BY IDOCK:   -4.69 KCAL/MOL
REMARK 923 INTER-LIGAND FREE ENERGY PREDICTED BY IDOCK:   -4.56 KCAL/MOL
REMARK 924 INTRA-LIGAND FREE ENERGY PREDICTED BY IDOCK:   -0.13 KCAL/MOL
REMARK 927      BINDING AFFINITY PREDICTED BY RF-SCORE:    0.00 PKD
ROOT
HETATM    1  O   UNL     1     -10.713   7.632  68.044  1.00  0.00    -0.376 OA 
HETATM    2  H   UNL     1     -11.560   7.645  67.613  1.00  0.00     0.000 HD 
HETATM    3  C   UNL     1      -9.659   8.146  67.246  1.00  0.00    -0.163 C  
ENDROOT
BRANCH   3   4
HETATM    4  C   UNL     1      -8.280   8.125  67.948  1.00  0.00    -0.129 C  
BRANCH   4   5
HETATM    5  O   UNL     1      -7.783   9.410  68.366  1.00  0.00    -0.085 OA 
BRANCH   5   6
HETATM    6  C   UNL     1      -8.762  10.280  68.930  1.00  0.00    -0.152 C  
HETATM    7  C   UNL     1     -10.722  10.330  70.318  1.00  0.00    -0.250 C  
HETATM    8  O   UNL     1      -9.728   9.514  69.671  1.00  0.00    -0.176 OA 
HETATM    9  H   UNL     1      -8.960  12.367  66.357  1.00  0.00     0.000 HD 
HETATM   10  C   UNL     1     -11.500  11.183  69.305  1.00  0.00    -0.294 C  
HETATM   11  O   UNL     1      -8.531  11.867  67.041  1.00  0.00    -0.166 OA 
HETATM   12  O   UNL     1     -12.263  10.403  68.370  1.00  0.00    -0.686 OA 
HETATM   13  C   UNL     1     -10.504  12.017  68.489  1.00  0.00    -0.229 C  
HETATM   14  H   UNL     1     -12.744  10.931  67.743  1.00  0.00     0.000 HD 
HETATM   15  H   UNL     1     -10.595  13.347  67.042  1.00  0.00     0.000 HD 
HETATM   16  O   UNL     1     -11.212  12.830  67.547  1.00  0.00    -0.261 OA 
HETATM   17  C   UNL     1      -9.466  11.097  67.810  1.00  0.00    -0.168 C  
BRANCH   7  18
HETATM   18  C   UNL     1     -11.649   9.408  71.115  1.00  0.00    -0.345 C  
HETATM   19  O   UNL     1     -11.551   8.076  70.619  1.00  0.00    -0.352 OA 
HETATM   20  H   UNL     1     -12.126   7.504  71.114  1.00  0.00     0.000 HD 
ENDBRANCH   7  18
ENDBRANCH   5   6
ENDBRANCH   4   5
BRANCH   4  21
HETATM   21  C   UNL     1      -8.289   7.148  69.162  1.00  0.00    -0.129 C  
HETATM   22  H   UNL     1      -7.157   6.769  70.762  1.00  0.00     0.000 HD 
HETATM   23  O   UNL     1      -7.152   7.366  70.022  1.00  0.00    -0.062 OA 
BRANCH  21  24
HETATM   24  C   UNL     1      -8.268   5.674  68.745  1.00  0.00    -0.103 C  
HETATM   25  H   UNL     1      -7.079   4.129  69.018  1.00  0.00     0.000 HD 
HETATM   26  C   UNL     1      -9.461   4.884  69.259  1.00  0.00    -0.142 C  
HETATM   27  O   UNL     1      -7.091   5.042  69.277  1.00  0.00    -0.053 OA 
HETATM   28  O   UNL     1     -10.246   5.272  70.119  1.00  0.00    -0.237 OA 
ENDBRANCH  21  24
ENDBRANCH   4  21
ENDBRANCH   3   4
TORSDOF 6
ENDMDL
MODEL      282
REMARK 921   NORMALIZED FREE ENERGY PREDICTED BY IDOCK:   -2.56 KCAL/MOL
REMARK 922        TOTAL FREE ENERGY PREDICTED BY IDOCK:   -4.67 KCAL/MOL
REMARK 923 INTER-LIGAND FREE ENERGY PREDICTED BY IDOCK:   -4.12 KCAL/MOL
REMARK 924 INTRA-LIGAND FREE ENERGY PREDICTED BY IDOCK:   -0.55 KCAL/MOL
REMARK 927      BINDING AFFINITY PREDICTED BY RF-SCORE:    0.00 PKD
ROOT
HETATM    1  O   UNL     1      -9.948  11.298  69.515  1.00  0.00    -0.422 OA 
HETATM    2  H   UNL     1     -10.803  11.707  69.445  1.00  0.00     0.000 HD 
HETATM    3  C   UNL     1      -9.772  10.191  68.644  1.00  0.00    -0.163 C  
ENDROOT
BRANCH   3   4
HETATM    4  C   UNL     1      -8.381   9.525  68.758  1.00  0.00    -0.117 C  
BRANCH   4   5
HETATM    5  O   UNL     1      -8.281   8.470  69.732  1.00  0.00    -0.116 OA 
BRANCH   5   6
HETATM    6  C   UNL     1      -9.359   7.537  69.722  1.00  0.00    -0.150 C  
HETATM    7  C   UNL     1     -11.523   7.085  70.662  1.00  0.00    -0.324 C  
HETATM    8  O   UNL     1     -10.372   7.951  70.655  1.00  0.00    -0.200 OA 
HETATM    9  H   UNL     1      -7.508   4.802  69.394  1.00  0.00     0.000 HD 
HETATM   10  C   UNL     1     -11.141   5.641  71.019  1.00  0.00    -0.131 C  
HETATM   11  O   UNL     1      -7.823   5.671  69.176  1.00  0.00    -0.086 OA 
HETATM   12  O   UNL     1     -10.608   5.503  72.345  1.00  0.00    -0.205 OA 
HETATM   13  C   UNL     1     -10.057   5.159  70.046  1.00  0.00    -0.275 C  
HETATM   14  H   UNL     1     -10.372   4.609  72.566  1.00  0.00     0.000 HD 
HETATM   15  H   UNL     1      -9.026   3.509  69.750  1.00  0.00     0.000 HD 
HETATM   16  O   UNL     1      -9.697   3.808  70.353  1.00  0.00    -0.188 OA 
HETATM   17  C   UNL     1      -8.844   6.114  70.080  1.00  0.00    -0.144 C  
BRANCH   7  18
HETATM   18  C   UNL     1     -12.545   7.661  71.646  1.00  0.00    -0.339 C  
HETATM   19  O   UNL     1     -13.854   7.575  71.090  1.00  0.00    -0.605 OA 
HETATM   20  H   UNL     1     -14.489   7.932  71.700  1.00  0.00     0.000 HD 
ENDBRANCH   7  18
ENDBRANCH   5   6
ENDBRANCH   4   5
BRANCH   4  21
HETATM   21  C   UNL     1      -7.900   9.003  67.371  1.00  0.00    -0.100 C  
HETATM   22  H   UNL     1      -6.725   9.629  65.883  1.00  0.00     0.000 HD 
HETATM   23  O   UNL     1      -7.018   9.947  66.730  1.00  0.00    -0.086 OA 
BRANCH  21  24
HETATM   24  C   UNL     1      -9.053   8.727  66.401  1.00  0.00    -0.177 C  
HETATM   25  H   UNL     1      -9.602   9.358  64.618  1.00  0.00     0.000 HD 
HETATM   26  C   UNL     1      -9.124   7.279  65.943  1.00  0.00    -0.021 C  
HETATM   27  O   UNL     1      -8.887   9.529  65.219  1.00  0.00    -0.159 OA 
HETATM   28  O   UNL     1      -8.239   6.445  66.103  1.00  0.00    -0.112 OA 
ENDBRANCH  21  24
ENDBRANCH   4  21
ENDBRANCH   3   4
TORSDOF 6
ENDMDL
MODEL      283
REMARK 921   NORMALIZED FREE ENERGY PREDICTED BY IDOCK:   -2.56 KCAL/MOL
REMARK 922        TOTAL FREE ENERGY PREDICTED BY IDOCK:   -4.66 KCAL/MOL
REMARK 923 INTER-LIGAND FREE ENERGY PREDICTED BY IDOCK:   -4.81 KCAL/MOL
REMARK 924 INTRA-LIGAND FREE ENERGY PREDICTED BY IDOCK:    0.15 KCAL/MOL
REMARK 927      BINDING AFFINITY PREDICTED BY RF-SCORE:    0.00 PKD
ROOT
HETATM    1  O   UNL     1     -10.943   7.620  68.726  1.00  0.00    -0.418 OA 
HETATM    2  H   UNL     1     -11.433   7.403  67.941  1.00  0.00     0.000 HD 
HETATM    3  C   UNL     1      -9.539   7.476  68.581  1.00  0.00    -0.151 C  
ENDROOT
BRANCH   3   4
HETATM    4  C   UNL     1      -8.743   7.828  69.860  1.00  0.00    -0.142 C  
BRANCH   4   5
HETATM    5  O   UNL     1      -8.076   9.104  69.838  1.00  0.00    -0.099 OA 
BRANCH   5   6
HETATM    6  C   UNL     1      -8.914  10.216  69.531  1.00  0.00    -0.188 C  
HETATM    7  C   UNL     1     -11.167  11.033  69.699  1.00  0.00    -0.278 C  
HETATM    8  O   UNL     1     -10.267   9.932  69.928  1.00  0.00    -0.228 OA 
HETATM    9  H   UNL     1      -7.477  11.007  66.646  1.00  0.00     0.000 HD 
HETATM   10  C   UNL     1     -11.203  11.435  68.217  1.00  0.00    -0.263 C  
HETATM   11  O   UNL     1      -7.514  10.812  67.575  1.00  0.00    -0.090 OA 
HETATM   12  O   UNL     1     -11.712  10.403  67.358  1.00  0.00    -0.435 OA 
HETATM   13  C   UNL     1      -9.775  11.745  67.752  1.00  0.00    -0.183 C  
HETATM   14  H   UNL     1     -11.735  10.651  66.441  1.00  0.00     0.000 HD 
HETATM   15  H   UNL     1      -8.905  12.329  66.086  1.00  0.00     0.000 HD 
HETATM   16  O   UNL     1      -9.789  12.137  66.374  1.00  0.00    -0.216 OA 
HETATM   17  C   UNL     1      -8.853  10.534  68.010  1.00  0.00    -0.131 C  
BRANCH   7  18
HETATM   18  C   UNL     1     -12.552  10.629  70.212  1.00  0.00    -0.260 C  
HETATM   19  O   UNL     1     -12.520   9.287  70.690  1.00  0.00    -0.497 OA 
HETATM   20  H   UNL     1     -13.379   9.037  71.008  1.00  0.00     0.000 HD 
ENDBRANCH   7  18
ENDBRANCH   5   6
ENDBRANCH   4   5
BRANCH   4  21
HETATM   21  C   UNL     1      -9.650   7.734  71.124  1.00  0.00    -0.158 C  
HETATM   22  H   UNL     1      -9.622   8.378  73.013  1.00  0.00     0.000 HD 
HETATM   23  O   UNL     1      -9.069   8.436  72.242  1.00  0.00    -0.202 OA 
BRANCH  21  24
HETATM   24  C   UNL     1      -9.904   6.292  71.574  1.00  0.00    -0.173 C  
HETATM   25  H   UNL     1      -9.521   5.205  73.170  1.00  0.00     0.000 HD 
HETATM   26  C   UNL     1     -11.380   5.933  71.647  1.00  0.00    -0.207 C  
HETATM   27  O   UNL     1      -9.363   6.099  72.892  1.00  0.00    -0.144 OA 
HETATM   28  O   UNL     1     -12.304   6.739  71.604  1.00  0.00    -0.345 OA 
ENDBRANCH  21  24
ENDBRANCH   4  21
ENDBRANCH   3   4
TORSDOF 6
ENDMDL
MODEL      284
REMARK 921   NORMALIZED FREE ENERGY PREDICTED BY IDOCK:   -2.54 KCAL/MOL
REMARK 922        TOTAL FREE ENERGY PREDICTED BY IDOCK:   -4.64 KCAL/MOL
REMARK 923 INTER-LIGAND FREE ENERGY PREDICTED BY IDOCK:   -4.08 KCAL/MOL
REMARK 924 INTRA-LIGAND FREE ENERGY PREDICTED BY IDOCK:   -0.55 KCAL/MOL
REMARK 927      BINDING AFFINITY PREDICTED BY RF-SCORE:    0.00 PKD
ROOT
HETATM    1  O   UNL     1      -5.928  11.567  68.396  1.00  0.00    -0.046 OA 
HETATM    2  H   UNL     1      -5.043  11.228  68.468  1.00  0.00     0.000 HD 
HETATM    3  C   UNL     1      -6.911  10.724  68.978  1.00  0.00    -0.075 C  
ENDROOT
BRANCH   3   4
HETATM    4  C   UNL     1      -8.352  11.275  68.860  1.00  0.00    -0.071 C  
BRANCH   4   5
HETATM    5  O   UNL     1      -8.492  12.468  68.068  1.00  0.00    -0.156 OA 
BRANCH   5   6
HETATM    6  C   UNL     1      -8.706  13.664  68.814  1.00  0.00     0.070 C  
HETATM    7  C   UNL     1     -10.399  15.210  69.530  1.00  0.00    -0.243 C  
HETATM    8  O   UNL     1     -10.093  14.036  68.753  1.00  0.00    -0.229 OA 
HETATM    9  H   UNL     1      -5.876  15.172  67.954  1.00  0.00     0.000 HD 
HETATM   10  C   UNL     1      -9.583  16.425  69.064  1.00  0.00    -0.264 C  
HETATM   11  O   UNL     1      -6.421  14.471  68.293  1.00  0.00    -0.097 OA 
HETATM   12  O   UNL     1      -9.878  16.828  67.718  1.00  0.00    -0.248 OA 
HETATM   13  C   UNL     1      -8.091  16.068  69.111  1.00  0.00    -0.238 C  
HETATM   14  H   UNL     1      -9.373  17.580  67.430  1.00  0.00     0.000 HD 
HETATM   15  H   UNL     1      -6.388  16.974  68.724  1.00  0.00     0.000 HD 
HETATM   16  O   UNL     1      -7.312  17.195  68.694  1.00  0.00    -0.216 OA 
HETATM   17  C   UNL     1      -7.814  14.812  68.259  1.00  0.00    -0.125 C  
BRANCH   7  18
HETATM   18  C   UNL     1     -11.905  15.466  69.432  1.00  0.00    -0.351 C  
HETATM   19  O   UNL     1     -12.512  14.479  68.601  1.00  0.00    -0.584 OA 
HETATM   20  H   UNL     1     -13.446  14.638  68.540  1.00  0.00     0.000 HD 
ENDBRANCH   7  18
ENDBRANCH   5   6
ENDBRANCH   4   5
BRANCH   4  21
HETATM   21  C   UNL     1      -9.324  10.178  68.330  1.00  0.00    -0.133 C  
HETATM   22  H   UNL     1     -10.383   9.817  66.677  1.00  0.00     0.000 HD 
HETATM   23  O   UNL     1      -9.790  10.486  67.000  1.00  0.00    -0.173 OA 
BRANCH  21  24
HETATM   24  C   UNL     1     -10.561   9.994  69.214  1.00  0.00    -0.227 C  
HETATM   25  H   UNL     1     -11.038  10.340  71.093  1.00  0.00     0.000 HD 
HETATM   26  C   UNL     1     -11.771  10.779  68.732  1.00  0.00    -0.245 C  
HETATM   27  O   UNL     1     -10.271  10.454  70.545  1.00  0.00     0.027 OA 
HETATM   28  O   UNL     1     -11.743  11.666  67.885  1.00  0.00    -0.459 OA 
ENDBRANCH  21  24
ENDBRANCH   4  21
ENDBRANCH   3   4
TORSDOF 6
ENDMDL
MODEL      285
REMARK 921   NORMALIZED FREE ENERGY PREDICTED BY IDOCK:   -2.54 KCAL/MOL
REMARK 922        TOTAL FREE ENERGY PREDICTED BY IDOCK:   -4.63 KCAL/MOL
REMARK 923 INTER-LIGAND FREE ENERGY PREDICTED BY IDOCK:   -4.14 KCAL/MOL
REMARK 924 INTRA-LIGAND FREE ENERGY PREDICTED BY IDOCK:   -0.50 KCAL/MOL
REMARK 927      BINDING AFFINITY PREDICTED BY RF-SCORE:    0.00 PKD
ROOT
HETATM    1  O   UNL     1     -11.280   7.382  67.673  1.00  0.00    -0.514 OA 
HETATM    2  H   UNL     1     -11.412   8.191  67.193  1.00  0.00     0.000 HD 
HETATM    3  C   UNL     1     -10.752   7.570  68.977  1.00  0.00    -0.134 C  
ENDROOT
BRANCH   3   4
HETATM    4  C   UNL     1     -10.538   6.252  69.758  1.00  0.00    -0.264 C  
BRANCH   4   5
HETATM    5  O   UNL     1      -9.164   5.879  69.970  1.00  0.00    -0.144 OA 
BRANCH   5   6
HETATM    6  C   UNL     1      -8.491   5.380  68.817  1.00  0.00    -0.096 C  
HETATM    7  C   UNL     1      -7.562   6.027  66.699  1.00  0.00    -0.095 C  
HETATM    8  O   UNL     1      -8.287   6.444  67.871  1.00  0.00    -0.117 OA 
HETATM    9  H   UNL     1     -10.050   2.452  68.690  1.00  0.00     0.000 HD 
HETATM   10  C   UNL     1      -8.288   4.895  65.957  1.00  0.00    -0.113 C  
HETATM   11  O   UNL     1      -9.548   3.155  69.086  1.00  0.00    -0.149 OA 
HETATM   12  O   UNL     1      -9.569   5.283  65.439  1.00  0.00    -0.337 OA 
HETATM   13  C   UNL     1      -8.528   3.737  66.934  1.00  0.00    -0.105 C  
HETATM   14  H   UNL     1     -10.018   4.582  64.980  1.00  0.00     0.000 HD 
HETATM   15  H   UNL     1      -9.340   1.946  66.862  1.00  0.00     0.000 HD 
HETATM   16  O   UNL     1      -9.192   2.663  66.257  1.00  0.00    -0.131 OA 
HETATM   17  C   UNL     1      -9.314   4.231  68.167  1.00  0.00    -0.152 C  
BRANCH   7  18
HETATM   18  C   UNL     1      -7.360   7.254  65.805  1.00  0.00    -0.075 C  
HETATM   19  O   UNL     1      -6.047   7.777  65.988  1.00  0.00    -0.037 OA 
HETATM   20  H   UNL     1      -5.922   8.538  65.433  1.00  0.00     0.000 HD 
ENDBRANCH   7  18
ENDBRANCH   5   6
ENDBRANCH   4   5
BRANCH   4  21
HETATM   21  C   UNL     1     -11.287   6.289  71.124  1.00  0.00    -0.303 C  
HETATM   22  H   UNL     1     -13.083   6.822  71.811  1.00  0.00     0.000 HD 
HETATM   23  O   UNL     1     -12.627   6.800  70.977  1.00  0.00    -0.347 OA 
BRANCH  21  24
HETATM   24  C   UNL     1     -10.581   7.156  72.172  1.00  0.00    -0.210 C  
HETATM   25  H   UNL     1     -11.049   8.705  73.293  1.00  0.00     0.000 HD 
HETATM   26  C   UNL     1     -10.121   6.374  73.393  1.00  0.00    -0.210 C  
HETATM   27  O   UNL     1     -11.487   8.168  72.644  1.00  0.00    -0.392 OA 
HETATM   28  O   UNL     1     -10.469   5.231  73.670  1.00  0.00    -0.210 OA 
ENDBRANCH  21  24
ENDBRANCH   4  21
ENDBRANCH   3   4
TORSDOF 6
ENDMDL
MODEL      286
REMARK 921   NORMALIZED FREE ENERGY PREDICTED BY IDOCK:   -2.54 KCAL/MOL
REMARK 922        TOTAL FREE ENERGY PREDICTED BY IDOCK:   -4.63 KCAL/MOL
REMARK 923 INTER-LIGAND FREE ENERGY PREDICTED BY IDOCK:   -4.57 KCAL/MOL
REMARK 924 INTRA-LIGAND FREE ENERGY PREDICTED BY IDOCK:   -0.07 KCAL/MOL
REMARK 927      BINDING AFFINITY PREDICTED BY RF-SCORE:    0.00 PKD
ROOT
HETATM    1  O   UNL     1      -9.955   7.940  66.422  1.00  0.00    -0.410 OA 
HETATM    2  H   UNL     1     -10.232   7.276  65.802  1.00  0.00     0.000 HD 
HETATM    3  C   UNL     1      -9.193   8.985  65.837  1.00  0.00    -0.230 C  
ENDROOT
BRANCH   3   4
HETATM    4  C   UNL     1      -8.742  10.067  66.847  1.00  0.00    -0.128 C  
BRANCH   4   5
HETATM    5  O   UNL     1      -9.804  10.729  67.556  1.00  0.00    -0.168 OA 
BRANCH   5   6
HETATM    6  C   UNL     1      -9.996  12.099  67.212  1.00  0.00    -0.203 C  
HETATM    7  C   UNL     1     -10.514  14.259  68.126  1.00  0.00    -0.246 C  
HETATM    8  O   UNL     1     -10.356  12.851  68.384  1.00  0.00    -0.237 OA 
HETATM    9  H   UNL     1     -11.455  11.566  64.279  1.00  0.00     0.000 HD 
HETATM   10  C   UNL     1     -11.596  14.522  67.069  1.00  0.00    -0.386 C  
HETATM   11  O   UNL     1     -10.781  11.485  64.943  1.00  0.00    -0.287 OA 
HETATM   12  O   UNL     1     -12.908  14.107  67.480  1.00  0.00    -0.130 OA 
HETATM   13  C   UNL     1     -11.251  13.734  65.799  1.00  0.00    -0.297 C  
HETATM   14  H   UNL     1     -13.578  14.270  66.826  1.00  0.00     0.000 HD 
HETATM   15  H   UNL     1     -12.029  13.490  64.007  1.00  0.00     0.000 HD 
HETATM   16  O   UNL     1     -12.242  13.977  64.794  1.00  0.00    -0.404 OA 
HETATM   17  C   UNL     1     -11.100  12.232  66.125  1.00  0.00    -0.311 C  
BRANCH   7  18
HETATM   18  C   UNL     1     -10.836  14.951  69.453  1.00  0.00    -0.264 C  
HETATM   19  O   UNL     1     -12.209  15.333  69.481  1.00  0.00    -0.472 OA 
HETATM   20  H   UNL     1     -12.409  15.762  70.304  1.00  0.00     0.000 HD 
ENDBRANCH   7  18
ENDBRANCH   5   6
ENDBRANCH   4   5
BRANCH   4  21
HETATM   21  C   UNL     1      -7.718   9.482  67.866  1.00  0.00    -0.087 C  
HETATM   22  H   UNL     1      -7.670   9.005  69.804  1.00  0.00     0.000 HD 
HETATM   23  O   UNL     1      -8.295   9.361  69.182  1.00  0.00    -0.116 OA 
BRANCH  21  24
HETATM   24  C   UNL     1      -6.452  10.336  68.002  1.00  0.00    -0.060 C  
HETATM   25  H   UNL     1      -5.856  11.837  69.128  1.00  0.00     0.000 HD 
HETATM   26  C   UNL     1      -5.216   9.530  68.369  1.00  0.00    -0.033 C  
HETATM   27  O   UNL     1      -6.640  11.308  69.044  1.00  0.00    -0.064 OA 
HETATM   28  O   UNL     1      -5.224   8.370  68.767  1.00  0.00    -0.031 OA 
ENDBRANCH  21  24
ENDBRANCH   4  21
ENDBRANCH   3   4
TORSDOF 6
ENDMDL
MODEL      287
REMARK 921   NORMALIZED FREE ENERGY PREDICTED BY IDOCK:   -2.53 KCAL/MOL
REMARK 922        TOTAL FREE ENERGY PREDICTED BY IDOCK:   -4.62 KCAL/MOL
REMARK 923 INTER-LIGAND FREE ENERGY PREDICTED BY IDOCK:   -3.92 KCAL/MOL
REMARK 924 INTRA-LIGAND FREE ENERGY PREDICTED BY IDOCK:   -0.71 KCAL/MOL
REMARK 927      BINDING AFFINITY PREDICTED BY RF-SCORE:    0.00 PKD
ROOT
HETATM    1  O   UNL     1     -10.713   7.054  66.890  1.00  0.00    -0.381 OA 
HETATM    2  H   UNL     1     -11.458   7.045  66.300  1.00  0.00     0.000 HD 
HETATM    3  C   UNL     1     -10.241   5.761  67.234  1.00  0.00    -0.205 C  
ENDROOT
BRANCH   3   4
HETATM    4  C   UNL     1      -9.029   5.775  68.195  1.00  0.00    -0.114 C  
BRANCH   4   5
HETATM    5  O   UNL     1      -9.345   5.581  69.586  1.00  0.00    -0.128 OA 
BRANCH   5   6
HETATM    6  C   UNL     1      -9.654   6.773  70.305  1.00  0.00    -0.165 C  
HETATM    7  C   UNL     1      -9.029   8.085  72.218  1.00  0.00    -0.171 C  
HETATM    8  O   UNL     1      -8.812   6.876  71.466  1.00  0.00    -0.133 OA 
HETATM    9  H   UNL     1     -12.940   6.665  69.846  1.00  0.00     0.000 HD 
HETATM   10  C   UNL     1     -10.482   8.197  72.701  1.00  0.00    -0.330 C  
HETATM   11  O   UNL     1     -12.025   6.663  69.591  1.00  0.00    -0.189 OA 
HETATM   12  O   UNL     1     -10.859   7.159  73.619  1.00  0.00    -0.521 OA 
HETATM   13  C   UNL     1     -11.418   8.089  71.490  1.00  0.00    -0.264 C  
HETATM   14  H   UNL     1     -11.758   7.229  73.919  1.00  0.00     0.000 HD 
HETATM   15  H   UNL     1     -13.359   8.140  71.169  1.00  0.00     0.000 HD 
HETATM   16  O   UNL     1     -12.779   8.206  71.919  1.00  0.00    -0.313 OA 
HETATM   17  C   UNL     1     -11.152   6.776  70.724  1.00  0.00    -0.276 C  
BRANCH   7  18
HETATM   18  C   UNL     1      -8.039   8.102  73.385  1.00  0.00    -0.194 C  
HETATM   19  O   UNL     1      -8.524   8.953  74.420  1.00  0.00    -0.224 OA 
HETATM   20  H   UNL     1      -7.910   8.964  75.144  1.00  0.00     0.000 HD 
ENDBRANCH   7  18
ENDBRANCH   5   6
ENDBRANCH   4   5
BRANCH   4  21
HETATM   21  C   UNL     1      -7.956   4.735  67.753  1.00  0.00    -0.093 C  
HETATM   22  H   UNL     1      -7.875   2.788  67.325  1.00  0.00     0.000 HD 
HETATM   23  O   UNL     1      -8.530   3.422  67.594  1.00  0.00    -0.091 OA 
BRANCH  21  24
HETATM   24  C   UNL     1      -6.797   4.609  68.747  1.00  0.00    -0.051 C  
HETATM   25  H   UNL     1      -5.169   3.515  68.911  1.00  0.00     0.000 HD 
HETATM   26  C   UNL     1      -5.990   5.888  68.899  1.00  0.00    -0.020 C  
HETATM   27  O   UNL     1      -5.886   3.593  68.294  1.00  0.00    -0.024 OA 
HETATM   28  O   UNL     1      -6.059   6.859  68.152  1.00  0.00    -0.030 OA 
ENDBRANCH  21  24
ENDBRANCH   4  21
ENDBRANCH   3   4
TORSDOF 6
ENDMDL
MODEL      288
REMARK 921   NORMALIZED FREE ENERGY PREDICTED BY IDOCK:   -2.53 KCAL/MOL
REMARK 922        TOTAL FREE ENERGY PREDICTED BY IDOCK:   -4.62 KCAL/MOL
REMARK 923 INTER-LIGAND FREE ENERGY PREDICTED BY IDOCK:   -3.94 KCAL/MOL
REMARK 924 INTRA-LIGAND FREE ENERGY PREDICTED BY IDOCK:   -0.68 KCAL/MOL
REMARK 927      BINDING AFFINITY PREDICTED BY RF-SCORE:    0.00 PKD
ROOT
HETATM    1  O   UNL     1     -11.643   6.450  67.318  1.00  0.00    -0.695 OA 
HETATM    2  H   UNL     1     -12.552   6.693  67.183  1.00  0.00     0.000 HD 
HETATM    3  C   UNL     1     -11.152   6.772  68.609  1.00  0.00    -0.153 C  
ENDROOT
BRANCH   3   4
HETATM    4  C   UNL     1      -9.672   6.376  68.829  1.00  0.00    -0.128 C  
BRANCH   4   5
HETATM    5  O   UNL     1      -8.705   7.253  68.224  1.00  0.00    -0.126 OA 
BRANCH   5   6
HETATM    6  C   UNL     1      -9.102   8.619  68.137  1.00  0.00    -0.141 C  
HETATM    7  C   UNL     1      -9.988  10.274  66.638  1.00  0.00    -0.216 C  
HETATM    8  O   UNL     1      -9.519   8.921  66.794  1.00  0.00    -0.161 OA 
HETATM    9  H   UNL     1      -6.761   9.837  70.150  1.00  0.00     0.000 HD 
HETATM   10  C   UNL     1      -8.905  11.295  67.017  1.00  0.00    -0.153 C  
HETATM   11  O   UNL     1      -7.477   9.269  69.892  1.00  0.00    -0.068 OA 
HETATM   12  O   UNL     1      -7.748  11.241  66.167  1.00  0.00    -0.318 OA 
HETATM   13  C   UNL     1      -8.428  11.006  68.446  1.00  0.00    -0.144 C  
HETATM   14  H   UNL     1      -7.078  11.873  66.401  1.00  0.00     0.000 HD 
HETATM   15  H   UNL     1      -7.132  11.779  69.709  1.00  0.00     0.000 HD 
HETATM   16  O   UNL     1      -7.426  11.957  68.823  1.00  0.00    -0.117 OA 
HETATM   17  C   UNL     1      -7.929   9.549  68.559  1.00  0.00    -0.093 C  
BRANCH   7  18
HETATM   18  C   UNL     1     -10.455  10.451  65.191  1.00  0.00    -0.088 C  
HETATM   19  O   UNL     1     -11.428  11.490  65.119  1.00  0.00    -0.165 OA 
HETATM   20  H   UNL     1     -11.717  11.600  64.221  1.00  0.00     0.000 HD 
ENDBRANCH   7  18
ENDBRANCH   5   6
ENDBRANCH   4   5
BRANCH   4  21
HETATM   21  C   UNL     1      -9.358   6.218  70.347  1.00  0.00    -0.161 C  
HETATM   22  H   UNL     1      -7.867   5.536  71.484  1.00  0.00     0.000 HD 
HETATM   23  O   UNL     1      -8.058   5.632  70.558  1.00  0.00    -0.101 OA 
BRANCH  21  24
HETATM   24  C   UNL     1     -10.378   5.342  71.083  1.00  0.00    -0.235 C  
HETATM   25  H   UNL     1     -10.344   3.650  72.088  1.00  0.00     0.000 HD 
HETATM   26  C   UNL     1     -11.060   6.052  72.242  1.00  0.00    -0.278 C  
HETATM   27  O   UNL     1      -9.712   4.193  71.633  1.00  0.00    -0.157 OA 
HETATM   28  O   UNL     1     -10.694   7.116  72.730  1.00  0.00    -0.243 OA 
ENDBRANCH  21  24
ENDBRANCH   4  21
ENDBRANCH   3   4
TORSDOF 6
ENDMDL
MODEL      289
REMARK 921   NORMALIZED FREE ENERGY PREDICTED BY IDOCK:   -2.50 KCAL/MOL
REMARK 922        TOTAL FREE ENERGY PREDICTED BY IDOCK:   -4.58 KCAL/MOL
REMARK 923 INTER-LIGAND FREE ENERGY PREDICTED BY IDOCK:   -5.85 KCAL/MOL
REMARK 924 INTRA-LIGAND FREE ENERGY PREDICTED BY IDOCK:    1.26 KCAL/MOL
REMARK 927      BINDING AFFINITY PREDICTED BY RF-SCORE:    0.00 PKD
ROOT
HETATM    1  O   UNL     1     -11.451  16.334  63.954  1.00  0.00    -1.484 OA 
HETATM    2  H   UNL     1     -12.126  16.856  63.536  1.00  0.00     0.000 HD 
HETATM    3  C   UNL     1     -11.860  15.009  64.256  1.00  0.00    -0.275 C  
ENDROOT
BRANCH   3   4
HETATM    4  C   UNL     1     -10.761  14.159  64.938  1.00  0.00    -0.428 C  
BRANCH   4   5
HETATM    5  O   UNL     1     -10.890  14.016  66.364  1.00  0.00    -0.295 OA 
BRANCH   5   6
HETATM    6  C   UNL     1     -10.520  15.166  67.120  1.00  0.00    -0.280 C  
HETATM    7  C   UNL     1      -8.640  16.490  67.817  1.00  0.00    -0.177 C  
HETATM    8  O   UNL     1      -9.090  15.315  67.116  1.00  0.00    -0.192 OA 
HETATM    9  H   UNL     1     -12.792  14.809  69.514  1.00  0.00     0.000 HD 
HETATM   10  C   UNL     1      -9.091  16.479  69.286  1.00  0.00    -0.102 C  
HETATM   11  O   UNL     1     -12.470  14.883  68.623  1.00  0.00    -0.010 OA 
HETATM   12  O   UNL     1      -8.528  15.399  70.047  1.00  0.00    -0.223 OA 
HETATM   13  C   UNL     1     -10.616  16.319  69.336  1.00  0.00    -0.301 C  
HETATM   14  H   UNL     1      -8.807  15.392  70.955  1.00  0.00     0.000 HD 
HETATM   15  H   UNL     1     -12.002  16.223  70.729  1.00  0.00     0.000 HD 
HETATM   16  O   UNL     1     -11.058  16.321  70.698  1.00  0.00    -0.341 OA 
HETATM   17  C   UNL     1     -11.045  15.044  68.579  1.00  0.00    -0.272 C  
BRANCH   7  18
HETATM   18  C   UNL     1      -7.116  16.565  67.691  1.00  0.00    -0.133 C  
HETATM   19  O   UNL     1      -6.579  17.340  68.759  1.00  0.00    -0.177 OA 
HETATM   20  H   UNL     1      -5.633  17.387  68.681  1.00  0.00     0.000 HD 
ENDBRANCH   7  18
ENDBRANCH   5   6
ENDBRANCH   4   5
BRANCH   4  21
HETATM   21  C   UNL     1     -10.659  12.750  64.278  1.00  0.00    -0.400 C  
HETATM   22  H   UNL     1     -10.731  11.970  62.443  1.00  0.00     0.000 HD 
HETATM   23  O   UNL     1     -10.793  12.829  62.845  1.00  0.00     0.334 OA 
BRANCH  21  24
HETATM   24  C   UNL     1     -11.728  11.774  64.782  1.00  0.00    -0.139 C  
HETATM   25  H   UNL     1     -12.931  11.650  66.335  1.00  0.00     0.000 HD 
HETATM   26  C   UNL     1     -12.898  11.613  63.824  1.00  0.00    -0.024 C  
HETATM   27  O   UNL     1     -12.269  12.255  66.023  1.00  0.00    -0.646 OA 
HETATM   28  O   UNL     1     -13.131  12.344  62.867  1.00  0.00    -0.281 OA 
ENDBRANCH  21  24
ENDBRANCH   4  21
ENDBRANCH   3   4
TORSDOF 6
ENDMDL
MODEL      290
REMARK 921   NORMALIZED FREE ENERGY PREDICTED BY IDOCK:   -2.50 KCAL/MOL
REMARK 922        TOTAL FREE ENERGY PREDICTED BY IDOCK:   -4.58 KCAL/MOL
REMARK 923 INTER-LIGAND FREE ENERGY PREDICTED BY IDOCK:   -3.72 KCAL/MOL
REMARK 924 INTRA-LIGAND FREE ENERGY PREDICTED BY IDOCK:   -0.85 KCAL/MOL
REMARK 927      BINDING AFFINITY PREDICTED BY RF-SCORE:    0.00 PKD
ROOT
HETATM    1  O   UNL     1     -11.399   6.672  67.259  1.00  0.00    -0.716 OA 
HETATM    2  H   UNL     1     -12.344   6.774  67.280  1.00  0.00     0.000 HD 
HETATM    3  C   UNL     1     -10.815   6.505  68.541  1.00  0.00    -0.288 C  
ENDROOT
BRANCH   3   4
HETATM    4  C   UNL     1      -9.277   6.339  68.507  1.00  0.00    -0.123 C  
BRANCH   4   5
HETATM    5  O   UNL     1      -8.684   5.851  69.724  1.00  0.00    -0.126 OA 
BRANCH   5   6
HETATM    6  C   UNL     1      -9.098   6.527  70.909  1.00  0.00    -0.154 C  
HETATM    7  C   UNL     1      -8.341   8.001  72.649  1.00  0.00    -0.166 C  
HETATM    8  O   UNL     1      -7.988   7.246  71.474  1.00  0.00    -0.098 OA 
HETATM    9  H   UNL     1     -11.112   4.142  72.038  1.00  0.00     0.000 HD 
HETATM   10  C   UNL     1      -8.905   7.096  73.754  1.00  0.00    -0.180 C  
HETATM   11  O   UNL     1     -10.766   4.764  71.408  1.00  0.00    -0.050 OA 
HETATM   12  O   UNL     1      -7.956   6.137  74.245  1.00  0.00    -0.102 OA 
HETATM   13  C   UNL     1     -10.094   6.306  73.191  1.00  0.00    -0.190 C  
HETATM   14  H   UNL     1      -8.304   5.577  74.930  1.00  0.00     0.000 HD 
HETATM   15  H   UNL     1     -11.380   4.977  73.864  1.00  0.00     0.000 HD 
HETATM   16  O   UNL     1     -10.643   5.466  74.212  1.00  0.00    -0.278 OA 
HETATM   17  C   UNL     1      -9.663   5.509  71.941  1.00  0.00    -0.162 C  
BRANCH   7  18
HETATM   18  C   UNL     1      -7.098   8.762  73.116  1.00  0.00     0.187 C  
HETATM   19  O   UNL     1      -7.238   9.124  74.487  1.00  0.00    -0.414 OA 
HETATM   20  H   UNL     1      -6.466   9.596  74.777  1.00  0.00     0.000 HD 
ENDBRANCH   7  18
ENDBRANCH   5   6
ENDBRANCH   4   5
BRANCH   4  21
HETATM   21  C   UNL     1      -8.842   5.435  67.314  1.00  0.00    -0.105 C  
HETATM   22  H   UNL     1      -8.617   5.604  65.338  1.00  0.00     0.000 HD 
HETATM   23  O   UNL     1      -8.882   6.155  66.066  1.00  0.00    -0.150 OA 
BRANCH  21  24
HETATM   24  C   UNL     1      -9.722   4.192  67.152  1.00  0.00    -0.186 C  
HETATM   25  H   UNL     1     -10.777   3.368  65.708  1.00  0.00     0.000 HD 
HETATM   26  C   UNL     1      -8.976   2.888  67.391  1.00  0.00    -0.162 C  
HETATM   27  O   UNL     1     -10.231   4.139  65.808  1.00  0.00    -0.199 OA 
HETATM   28  O   UNL     1      -7.757   2.777  67.462  1.00  0.00    -0.064 OA 
ENDBRANCH  21  24
ENDBRANCH   4  21
ENDBRANCH   3   4
TORSDOF 6
ENDMDL
MODEL      291
REMARK 921   NORMALIZED FREE ENERGY PREDICTED BY IDOCK:   -2.47 KCAL/MOL
REMARK 922        TOTAL FREE ENERGY PREDICTED BY IDOCK:   -4.54 KCAL/MOL
REMARK 923 INTER-LIGAND FREE ENERGY PREDICTED BY IDOCK:   -3.76 KCAL/MOL
REMARK 924 INTRA-LIGAND FREE ENERGY PREDICTED BY IDOCK:   -0.78 KCAL/MOL
REMARK 927      BINDING AFFINITY PREDICTED BY RF-SCORE:    0.00 PKD
ROOT
HETATM    1  O   UNL     1     -10.725   7.569  66.704  1.00  0.00    -0.485 OA 
HETATM    2  H   UNL     1     -11.396   7.731  66.052  1.00  0.00     0.000 HD 
HETATM    3  C   UNL     1     -11.026   6.492  67.578  1.00  0.00    -0.359 C  
ENDROOT
BRANCH   3   4
HETATM    4  C   UNL     1      -9.933   6.228  68.640  1.00  0.00    -0.145 C  
BRANCH   4   5
HETATM    5  O   UNL     1     -10.075   6.966  69.867  1.00  0.00    -0.184 OA 
BRANCH   5   6
HETATM    6  C   UNL     1      -9.610   8.312  69.818  1.00  0.00    -0.171 C  
HETATM    7  C   UNL     1     -10.272  10.560  69.289  1.00  0.00    -0.225 C  
HETATM    8  O   UNL     1     -10.650   9.171  69.318  1.00  0.00    -0.223 OA 
HETATM    9  H   UNL     1      -6.518   7.622  68.828  1.00  0.00     0.000 HD 
HETATM   10  C   UNL     1      -9.033  10.791  68.412  1.00  0.00    -0.153 C  
HETATM   11  O   UNL     1      -7.290   7.561  69.378  1.00  0.00    -0.080 OA 
HETATM   12  O   UNL     1      -9.246  10.474  67.028  1.00  0.00    -0.149 OA 
HETATM   13  C   UNL     1      -7.896   9.890  68.912  1.00  0.00    -0.091 C  
HETATM   14  H   UNL     1      -8.479  10.617  66.485  1.00  0.00     0.000 HD 
HETATM   15  H   UNL     1      -6.021   9.544  68.424  1.00  0.00     0.000 HD 
HETATM   16  O   UNL     1      -6.725  10.102  68.115  1.00  0.00    -0.061 OA 
HETATM   17  C   UNL     1      -8.347   8.414  68.916  1.00  0.00    -0.119 C  
BRANCH   7  18
HETATM   18  C   UNL     1     -11.475  11.369  68.797  1.00  0.00    -0.290 C  
HETATM   19  O   UNL     1     -11.047  12.653  68.351  1.00  0.00    -0.235 OA 
HETATM   20  H   UNL     1     -11.793  13.155  68.046  1.00  0.00     0.000 HD 
ENDBRANCH   7  18
ENDBRANCH   5   6
ENDBRANCH   4   5
BRANCH   4  21
HETATM   21  C   UNL     1      -9.821   4.705  68.955  1.00  0.00    -0.154 C  
HETATM   22  H   UNL     1      -9.839   3.525  70.565  1.00  0.00     0.000 HD 
HETATM   23  O   UNL     1      -9.907   4.454  70.373  1.00  0.00    -0.202 OA 
BRANCH  21  24
HETATM   24  C   UNL     1      -8.510   4.085  68.462  1.00  0.00    -0.091 C  
HETATM   25  H   UNL     1      -7.400   2.528  68.933  1.00  0.00     0.000 HD 
HETATM   26  C   UNL     1      -8.558   3.649  67.006  1.00  0.00    -0.109 C  
HETATM   27  O   UNL     1      -8.213   2.912  69.238  1.00  0.00    -0.054 OA 
HETATM   28  O   UNL     1      -9.579   3.552  66.333  1.00  0.00    -0.175 OA 
ENDBRANCH  21  24
ENDBRANCH   4  21
ENDBRANCH   3   4
TORSDOF 6
ENDMDL
MODEL      292
REMARK 921   NORMALIZED FREE ENERGY PREDICTED BY IDOCK:   -2.47 KCAL/MOL
REMARK 922        TOTAL FREE ENERGY PREDICTED BY IDOCK:   -4.53 KCAL/MOL
REMARK 923 INTER-LIGAND FREE ENERGY PREDICTED BY IDOCK:   -4.20 KCAL/MOL
REMARK 924 INTRA-LIGAND FREE ENERGY PREDICTED BY IDOCK:   -0.34 KCAL/MOL
REMARK 927      BINDING AFFINITY PREDICTED BY RF-SCORE:    0.00 PKD
ROOT
HETATM    1  O   UNL     1     -11.650   6.597  67.297  1.00  0.00    -0.747 OA 
HETATM    2  H   UNL     1     -12.387   6.912  66.786  1.00  0.00     0.000 HD 
HETATM    3  C   UNL     1     -10.996   7.613  68.040  1.00  0.00     0.107 C  
ENDROOT
BRANCH   3   4
HETATM    4  C   UNL     1      -9.796   7.100  68.872  1.00  0.00    -0.156 C  
BRANCH   4   5
HETATM    5  O   UNL     1      -8.648   7.968  68.897  1.00  0.00    -0.130 OA 
BRANCH   5   6
HETATM    6  C   UNL     1      -7.828   7.914  67.732  1.00  0.00    -0.123 C  
HETATM    7  C   UNL     1      -7.636   8.710  65.474  1.00  0.00    -0.087 C  
HETATM    8  O   UNL     1      -8.435   8.673  66.672  1.00  0.00    -0.109 OA 
HETATM    9  H   UNL     1      -6.895   4.745  68.056  1.00  0.00     0.000 HD 
HETATM   10  C   UNL     1      -7.368   7.300  64.927  1.00  0.00    -0.080 C  
HETATM   11  O   UNL     1      -7.024   5.647  68.326  1.00  0.00    -0.064 OA 
HETATM   12  O   UNL     1      -8.560   6.614  64.513  1.00  0.00    -0.347 OA 
HETATM   13  C   UNL     1      -6.721   6.455  66.031  1.00  0.00    -0.049 C  
HETATM   14  H   UNL     1      -8.395   5.742  64.175  1.00  0.00     0.000 HD 
HETATM   15  H   UNL     1      -6.049   4.615  66.220  1.00  0.00     0.000 HD 
HETATM   16  O   UNL     1      -6.451   5.138  65.536  1.00  0.00    -0.034 OA 
HETATM   17  C   UNL     1      -7.618   6.438  67.288  1.00  0.00    -0.096 C  
BRANCH   7  18
HETATM   18  C   UNL     1      -8.357   9.590  64.449  1.00  0.00    -0.171 C  
HETATM   19  O   UNL     1      -7.833  10.914  64.491  1.00  0.00    -0.354 OA 
HETATM   20  H   UNL     1      -8.280  11.460  63.856  1.00  0.00     0.000 HD 
ENDBRANCH   7  18
ENDBRANCH   5   6
ENDBRANCH   4   5
BRANCH   4  21
HETATM   21  C   UNL     1     -10.233   6.770  70.332  1.00  0.00    -0.192 C  
HETATM   22  H   UNL     1     -10.986   5.215  71.332  1.00  0.00     0.000 HD 
HETATM   23  O   UNL     1     -10.719   5.417  70.442  1.00  0.00    -0.274 OA 
BRANCH  21  24
HETATM   24  C   UNL     1     -11.338   7.695  70.851  1.00  0.00    -0.276 C  
HETATM   25  H   UNL     1     -13.178   7.486  71.520  1.00  0.00     0.000 HD 
HETATM   26  C   UNL     1     -10.941   8.470  72.098  1.00  0.00    -0.357 C  
HETATM   27  O   UNL     1     -12.493   6.912  71.198  1.00  0.00    -0.378 OA 
HETATM   28  O   UNL     1      -9.957   8.233  72.791  1.00  0.00    -0.283 OA 
ENDBRANCH  21  24
ENDBRANCH   4  21
ENDBRANCH   3   4
TORSDOF 6
ENDMDL
MODEL      293
REMARK 921   NORMALIZED FREE ENERGY PREDICTED BY IDOCK:   -2.39 KCAL/MOL
REMARK 922        TOTAL FREE ENERGY PREDICTED BY IDOCK:   -4.43 KCAL/MOL
REMARK 923 INTER-LIGAND FREE ENERGY PREDICTED BY IDOCK:   -4.54 KCAL/MOL
REMARK 924 INTRA-LIGAND FREE ENERGY PREDICTED BY IDOCK:    0.11 KCAL/MOL
REMARK 927      BINDING AFFINITY PREDICTED BY RF-SCORE:    0.00 PKD
ROOT
HETATM    1  O   UNL     1      -7.477  15.622  66.913  1.00  0.00    -0.209 OA 
HETATM    2  H   UNL     1      -6.690  16.152  66.967  1.00  0.00     0.000 HD 
HETATM    3  C   UNL     1      -7.307  14.298  67.395  1.00  0.00    -0.128 C  
ENDROOT
BRANCH   3   4
HETATM    4  C   UNL     1      -8.588  13.435  67.307  1.00  0.00    -0.213 C  
BRANCH   4   5
HETATM    5  O   UNL     1      -8.825  12.570  68.433  1.00  0.00    -0.181 OA 
BRANCH   5   6
HETATM    6  C   UNL     1      -9.044  11.200  68.104  1.00  0.00    -0.159 C  
HETATM    7  C   UNL     1      -9.840   9.112  68.986  1.00  0.00    -0.174 C  
HETATM    8  O   UNL     1      -9.542  10.495  69.254  1.00  0.00    -0.208 OA 
HETATM    9  H   UNL     1      -6.383  10.835  66.153  1.00  0.00     0.000 HD 
HETATM   10  C   UNL     1      -8.600   8.352  68.491  1.00  0.00    -0.136 C  
HETATM   11  O   UNL     1      -7.190  11.233  66.460  1.00  0.00    -0.139 OA 
HETATM   12  O   UNL     1      -7.546   8.286  69.464  1.00  0.00    -0.090 OA 
HETATM   13  C   UNL     1      -8.033   9.075  67.261  1.00  0.00    -0.099 C  
HETATM   14  H   UNL     1      -6.779   7.816  69.158  1.00  0.00     0.000 HD 
HETATM   15  H   UNL     1      -6.533   8.820  66.014  1.00  0.00     0.000 HD 
HETATM   16  O   UNL     1      -6.884   8.373  66.776  1.00  0.00    -0.067 OA 
HETATM   17  C   UNL     1      -7.724  10.548  67.602  1.00  0.00    -0.097 C  
BRANCH   7  18
HETATM   18  C   UNL     1     -10.413   8.492  70.263  1.00  0.00    -0.220 C  
HETATM   19  O   UNL     1     -11.688   7.917  69.993  1.00  0.00    -0.471 OA 
HETATM   20  H   UNL     1     -12.044   7.532  70.785  1.00  0.00     0.000 HD 
ENDBRANCH   7  18
ENDBRANCH   5   6
ENDBRANCH   4   5
BRANCH   4  21
HETATM   21  C   UNL     1      -9.843  14.325  67.058  1.00  0.00    -0.254 C  
HETATM   22  H   UNL     1     -11.193  15.312  68.147  1.00  0.00     0.000 HD 
HETATM   23  O   UNL     1     -10.428  14.769  68.299  1.00  0.00    -0.233 OA 
BRANCH  21  24
HETATM   24  C   UNL     1     -10.941  13.605  66.269  1.00  0.00    -0.299 C  
HETATM   25  H   UNL     1     -12.778  12.987  66.617  1.00  0.00     0.000 HD 
HETATM   26  C   UNL     1     -11.400  14.370  65.037  1.00  0.00    -0.373 C  
HETATM   27  O   UNL     1     -12.098  13.433  67.106  1.00  0.00    -0.368 OA 
HETATM   28  O   UNL     1     -11.133  15.543  64.797  1.00  0.00    -0.426 OA 
ENDBRANCH  21  24
ENDBRANCH   4  21
ENDBRANCH   3   4
TORSDOF 6
ENDMDL
MODEL      294
REMARK 921   NORMALIZED FREE ENERGY PREDICTED BY IDOCK:   -2.38 KCAL/MOL
REMARK 922        TOTAL FREE ENERGY PREDICTED BY IDOCK:   -4.42 KCAL/MOL
REMARK 923 INTER-LIGAND FREE ENERGY PREDICTED BY IDOCK:   -3.63 KCAL/MOL
REMARK 924 INTRA-LIGAND FREE ENERGY PREDICTED BY IDOCK:   -0.79 KCAL/MOL
REMARK 927      BINDING AFFINITY PREDICTED BY RF-SCORE:    0.00 PKD
ROOT
HETATM    1  O   UNL     1     -10.827   7.117  72.690  1.00  0.00    -0.242 OA 
HETATM    2  H   UNL     1     -11.159   7.957  72.983  1.00  0.00     0.000 HD 
HETATM    3  C   UNL     1     -10.136   7.177  71.452  1.00  0.00    -0.188 C  
ENDROOT
BRANCH   3   4
HETATM    4  C   UNL     1      -9.594   5.809  70.975  1.00  0.00    -0.167 C  
BRANCH   4   5
HETATM    5  O   UNL     1      -8.633   5.867  69.905  1.00  0.00    -0.126 OA 
BRANCH   5   6
HETATM    6  C   UNL     1      -9.138   6.365  68.668  1.00  0.00    -0.127 C  
HETATM    7  C   UNL     1      -9.939   5.695  66.505  1.00  0.00    -0.176 C  
HETATM    8  O   UNL     1      -9.376   5.274  67.762  1.00  0.00    -0.113 OA 
HETATM    9  H   UNL     1      -7.251   9.093  68.545  1.00  0.00     0.000 HD 
HETATM   10  C   UNL     1      -9.025   6.694  65.782  1.00  0.00    -0.026 C  
HETATM   11  O   UNL     1      -7.864   8.475  68.926  1.00  0.00    -0.105 OA 
HETATM   12  O   UNL     1      -7.754   6.139  65.410  1.00  0.00    -0.083 OA 
HETATM   13  C   UNL     1      -8.744   7.877  66.717  1.00  0.00    -0.134 C  
HETATM   14  H   UNL     1      -7.188   6.757  64.962  1.00  0.00     0.000 HD 
HETATM   15  H   UNL     1      -7.730   9.561  66.634  1.00  0.00     0.000 HD 
HETATM   16  O   UNL     1      -7.903   8.829  66.055  1.00  0.00    -0.101 OA 
HETATM   17  C   UNL     1      -8.134   7.376  68.044  1.00  0.00    -0.124 C  
BRANCH   7  18
HETATM   18  C   UNL     1     -10.197   4.445  65.659  1.00  0.00    -0.238 C  
HETATM   19  O   UNL     1     -11.507   4.500  65.100  1.00  0.00    -1.105 OA 
HETATM   20  H   UNL     1     -11.667   3.725  64.575  1.00  0.00     0.000 HD 
ENDBRANCH   7  18
ENDBRANCH   5   6
ENDBRANCH   4   5
BRANCH   4  21
HETATM   21  C   UNL     1      -9.001   4.999  72.167  1.00  0.00    -0.132 C  
HETATM   22  H   UNL     1      -9.675   4.037  73.780  1.00  0.00     0.000 HD 
HETATM   23  O   UNL     1     -10.037   4.530  73.053  1.00  0.00    -0.142 OA 
BRANCH  21  24
HETATM   24  C   UNL     1      -8.013   5.811  73.011  1.00  0.00    -0.107 C  
HETATM   25  H   UNL     1      -7.871   6.379  74.891  1.00  0.00     0.000 HD 
HETATM   26  C   UNL     1      -6.618   5.208  73.056  1.00  0.00    -0.066 C  
HETATM   27  O   UNL     1      -8.483   5.875  74.368  1.00  0.00    -0.114 OA 
HETATM   28  O   UNL     1      -6.328   4.075  72.686  1.00  0.00    -0.015 OA 
ENDBRANCH  21  24
ENDBRANCH   4  21
ENDBRANCH   3   4
TORSDOF 6
ENDMDL
MODEL      295
REMARK 921   NORMALIZED FREE ENERGY PREDICTED BY IDOCK:   -2.37 KCAL/MOL
REMARK 922        TOTAL FREE ENERGY PREDICTED BY IDOCK:   -4.41 KCAL/MOL
REMARK 923 INTER-LIGAND FREE ENERGY PREDICTED BY IDOCK:   -3.67 KCAL/MOL
REMARK 924 INTRA-LIGAND FREE ENERGY PREDICTED BY IDOCK:   -0.74 KCAL/MOL
REMARK 927      BINDING AFFINITY PREDICTED BY RF-SCORE:    0.00 PKD
ROOT
HETATM    1  O   UNL     1      -7.176   5.749  72.064  1.00  0.00    -0.084 OA 
HETATM    2  H   UNL     1      -6.584   5.073  72.373  1.00  0.00     0.000 HD 
HETATM    3  C   UNL     1      -8.048   5.315  71.032  1.00  0.00    -0.112 C  
ENDROOT
BRANCH   3   4
HETATM    4  C   UNL     1      -9.013   6.415  70.529  1.00  0.00    -0.151 C  
BRANCH   4   5
HETATM    5  O   UNL     1      -9.296   6.387  69.118  1.00  0.00    -0.133 OA 
BRANCH   5   6
HETATM    6  C   UNL     1      -8.446   7.204  68.317  1.00  0.00    -0.124 C  
HETATM    7  C   UNL     1      -7.273   9.300  68.274  1.00  0.00    -0.077 C  
HETATM    8  O   UNL     1      -8.172   8.440  68.999  1.00  0.00    -0.115 OA 
HETATM    9  H   UNL     1      -9.816   6.443  65.391  1.00  0.00     0.000 HD 
HETATM   10  C   UNL     1      -7.829   9.660  66.889  1.00  0.00    -0.102 C  
HETATM   11  O   UNL     1      -9.410   6.272  66.233  1.00  0.00    -0.161 OA 
HETATM   12  O   UNL     1      -9.047  10.419  66.944  1.00  0.00    -0.142 OA 
HETATM   13  C   UNL     1      -8.139   8.366  66.125  1.00  0.00    -0.106 C  
HETATM   14  H   UNL     1      -9.392  10.643  66.087  1.00  0.00     0.000 HD 
HETATM   15  H   UNL     1      -8.837   7.880  64.351  1.00  0.00     0.000 HD 
HETATM   16  O   UNL     1      -8.646   8.682  64.824  1.00  0.00    -0.172 OA 
HETATM   17  C   UNL     1      -9.111   7.485  66.939  1.00  0.00    -0.141 C  
BRANCH   7  18
HETATM   18  C   UNL     1      -7.016  10.546  69.125  1.00  0.00    -0.080 C  
HETATM   19  O   UNL     1      -7.620  10.390  70.407  1.00  0.00    -0.451 OA 
HETATM   20  H   UNL     1      -7.460  11.163  70.935  1.00  0.00     0.000 HD 
ENDBRANCH   7  18
ENDBRANCH   5   6
ENDBRANCH   4   5
BRANCH   4  21
HETATM   21  C   UNL     1     -10.349   6.391  71.331  1.00  0.00    -0.206 C  
HETATM   22  H   UNL     1     -12.041   5.331  71.351  1.00  0.00     0.000 HD 
HETATM   23  O   UNL     1     -11.226   5.345  70.863  1.00  0.00    -0.055 OA 
BRANCH  21  24
HETATM   24  C   UNL     1     -11.126   7.709  71.242  1.00  0.00    -0.246 C  
HETATM   25  H   UNL     1     -12.780   8.447  72.013  1.00  0.00     0.000 HD 
HETATM   26  C   UNL     1     -10.329   8.912  71.722  1.00  0.00    -0.356 C  
HETATM   27  O   UNL     1     -12.299   7.630  72.069  1.00  0.00    -0.295 OA 
HETATM   28  O   UNL     1      -9.277   8.856  72.350  1.00  0.00    -0.362 OA 
ENDBRANCH  21  24
ENDBRANCH   4  21
ENDBRANCH   3   4
TORSDOF 6
ENDMDL
MODEL      296
REMARK 921   NORMALIZED FREE ENERGY PREDICTED BY IDOCK:   -2.30 KCAL/MOL
REMARK 922        TOTAL FREE ENERGY PREDICTED BY IDOCK:   -4.31 KCAL/MOL
REMARK 923 INTER-LIGAND FREE ENERGY PREDICTED BY IDOCK:   -3.38 KCAL/MOL
REMARK 924 INTRA-LIGAND FREE ENERGY PREDICTED BY IDOCK:   -0.93 KCAL/MOL
REMARK 927      BINDING AFFINITY PREDICTED BY RF-SCORE:    0.00 PKD
ROOT
HETATM    1  O   UNL     1      -7.253   8.775  73.759  1.00  0.00    -0.366 OA 
HETATM    2  H   UNL     1      -6.493   9.222  74.113  1.00  0.00     0.000 HD 
HETATM    3  C   UNL     1      -7.097   8.367  72.409  1.00  0.00    -0.087 C  
ENDROOT
BRANCH   3   4
HETATM    4  C   UNL     1      -8.335   7.639  71.831  1.00  0.00    -0.109 C  
BRANCH   4   5
HETATM    5  O   UNL     1      -9.045   6.801  72.761  1.00  0.00    -0.135 OA 
BRANCH   5   6
HETATM    6  C   UNL     1      -8.768   5.407  72.648  1.00  0.00    -0.123 C  
HETATM    7  C   UNL     1      -7.735   3.757  71.240  1.00  0.00    -0.059 C  
HETATM    8  O   UNL     1      -8.097   5.142  71.404  1.00  0.00    -0.108 OA 
HETATM    9  H   UNL     1     -11.597   4.334  74.014  1.00  0.00     0.000 HD 
HETATM   10  C   UNL     1      -8.966   2.840  71.296  1.00  0.00    -0.097 C  
HETATM   11  O   UNL     1     -10.791   4.835  73.960  1.00  0.00    -0.290 OA 
HETATM   12  O   UNL     1      -9.897   3.071  70.228  1.00  0.00    -0.069 OA 
HETATM   13  C   UNL     1      -9.714   3.094  72.611  1.00  0.00    -0.135 C  
HETATM   14  H   UNL     1     -10.659   2.504  70.263  1.00  0.00     0.000 HD 
HETATM   15  H   UNL     1     -11.322   2.394  73.503  1.00  0.00     0.000 HD 
HETATM   16  O   UNL     1     -10.859   2.237  72.689  1.00  0.00    -0.105 OA 
HETATM   17  C   UNL     1     -10.087   4.587  72.735  1.00  0.00    -0.166 C  
BRANCH   7  18
HETATM   18  C   UNL     1      -6.981   3.617  69.915  1.00  0.00    -0.041 C  
HETATM   19  O   UNL     1      -7.592   4.434  68.920  1.00  0.00    -0.059 OA 
HETATM   20  H   UNL     1      -7.125   4.347  68.098  1.00  0.00     0.000 HD 
ENDBRANCH   7  18
ENDBRANCH   5   6
ENDBRANCH   4   5
BRANCH   4  21
HETATM   21  C   UNL     1      -9.323   8.654  71.182  1.00  0.00    -0.216 C  
HETATM   22  H   UNL     1     -11.006   9.604  71.682  1.00  0.00     0.000 HD 
HETATM   23  O   UNL     1     -10.403   8.986  72.079  1.00  0.00    -0.339 OA 
BRANCH  21  24
HETATM   24  C   UNL     1      -9.952   8.132  69.886  1.00  0.00    -0.190 C  
HETATM   25  H   UNL     1     -11.494   7.009  69.398  1.00  0.00     0.000 HD 
HETATM   26  C   UNL     1     -10.426   9.239  68.956  1.00  0.00    -0.216 C  
HETATM   27  O   UNL     1     -11.105   7.333  70.201  1.00  0.00    -0.263 OA 
HETATM   28  O   UNL     1     -10.543  10.419  69.268  1.00  0.00    -0.202 OA 
ENDBRANCH  21  24
ENDBRANCH   4  21
ENDBRANCH   3   4
TORSDOF 6
ENDMDL
MODEL      297
REMARK 921   NORMALIZED FREE ENERGY PREDICTED BY IDOCK:   -2.29 KCAL/MOL
REMARK 922        TOTAL FREE ENERGY PREDICTED BY IDOCK:   -4.30 KCAL/MOL
REMARK 923 INTER-LIGAND FREE ENERGY PREDICTED BY IDOCK:   -5.30 KCAL/MOL
REMARK 924 INTRA-LIGAND FREE ENERGY PREDICTED BY IDOCK:    1.00 KCAL/MOL
REMARK 927      BINDING AFFINITY PREDICTED BY RF-SCORE:    0.00 PKD
ROOT
HETATM    1  O   UNL     1      -7.316  15.404  67.479  1.00  0.00    -0.158 OA 
HETATM    2  H   UNL     1      -7.037  15.906  66.722  1.00  0.00     0.000 HD 
HETATM    3  C   UNL     1      -8.067  14.245  67.150  1.00  0.00    -0.129 C  
ENDROOT
BRANCH   3   4
HETATM    4  C   UNL     1      -8.521  13.427  68.381  1.00  0.00    -0.135 C  
BRANCH   4   5
HETATM    5  O   UNL     1      -9.945  13.343  68.574  1.00  0.00    -0.233 OA 
BRANCH   5   6
HETATM    6  C   UNL     1     -10.719  13.408  67.378  1.00  0.00    -0.262 C  
HETATM    7  C   UNL     1     -11.093  12.328  65.266  1.00  0.00    -0.316 C  
HETATM    8  O   UNL     1     -10.317  12.361  66.478  1.00  0.00    -0.224 OA 
HETATM    9  H   UNL     1     -10.827  16.719  67.160  1.00  0.00     0.000 HD 
HETATM   10  C   UNL     1     -10.994  13.652  64.494  1.00  0.00    -0.396 C  
HETATM   11  O   UNL     1     -10.931  15.870  67.574  1.00  0.00    -0.323 OA 
HETATM   12  O   UNL     1      -9.666  13.946  64.034  1.00  0.00    -0.274 OA 
HETATM   13  C   UNL     1     -11.414  14.799  65.422  1.00  0.00    -0.341 C  
HETATM   14  H   UNL     1      -9.605  14.765  63.556  1.00  0.00     0.000 HD 
HETATM   15  H   UNL     1     -11.603  16.754  65.290  1.00  0.00     0.000 HD 
HETATM   16  O   UNL     1     -11.342  16.043  64.715  1.00  0.00    -0.376 OA 
HETATM   17  C   UNL     1     -10.549  14.797  66.700  1.00  0.00    -0.299 C  
BRANCH   7  18
HETATM   18  C   UNL     1     -10.610  11.143  64.425  1.00  0.00    -0.343 C  
HETATM   19  O   UNL     1     -11.266  11.146  63.160  1.00  0.00    -0.807 OA 
HETATM   20  H   UNL     1     -10.967  10.411  62.639  1.00  0.00     0.000 HD 
ENDBRANCH   7  18
ENDBRANCH   5   6
ENDBRANCH   4   5
BRANCH   4  21
HETATM   21  C   UNL     1      -7.913  11.992  68.350  1.00  0.00    -0.152 C  
HETATM   22  H   UNL     1      -8.453  10.147  68.887  1.00  0.00     0.000 HD 
HETATM   23  O   UNL     1      -8.824  11.022  68.906  1.00  0.00    -0.164 OA 
BRANCH  21  24
HETATM   24  C   UNL     1      -6.598  11.881  69.130  1.00  0.00    -0.103 C  
HETATM   25  H   UNL     1      -5.698  10.515  70.225  1.00  0.00     0.000 HD 
HETATM   26  C   UNL     1      -5.363  12.038  68.257  1.00  0.00    -0.051 C  
HETATM   27  O   UNL     1      -6.513  10.583  69.742  1.00  0.00    -0.071 OA 
HETATM   28  O   UNL     1      -5.359  12.008  67.030  1.00  0.00    -0.140 OA 
ENDBRANCH  21  24
ENDBRANCH   4  21
ENDBRANCH   3   4
TORSDOF 6
ENDMDL
MODEL      298
REMARK 921   NORMALIZED FREE ENERGY PREDICTED BY IDOCK:   -2.26 KCAL/MOL
REMARK 922        TOTAL FREE ENERGY PREDICTED BY IDOCK:   -4.26 KCAL/MOL
REMARK 923 INTER-LIGAND FREE ENERGY PREDICTED BY IDOCK:   -4.22 KCAL/MOL
REMARK 924 INTRA-LIGAND FREE ENERGY PREDICTED BY IDOCK:   -0.04 KCAL/MOL
REMARK 927      BINDING AFFINITY PREDICTED BY RF-SCORE:    0.00 PKD
ROOT
HETATM    1  O   UNL     1     -11.382   6.499  66.886  1.00  0.00    -0.716 OA 
HETATM    2  H   UNL     1     -12.318   6.659  66.831  1.00  0.00     0.000 HD 
HETATM    3  C   UNL     1     -10.975   5.915  68.113  1.00  0.00    -0.162 C  
ENDROOT
BRANCH   3   4
HETATM    4  C   UNL     1      -9.452   5.654  68.203  1.00  0.00    -0.110 C  
BRANCH   4   5
HETATM    5  O   UNL     1      -9.034   4.824  69.302  1.00  0.00    -0.090 OA 
BRANCH   5   6
HETATM    6  C   UNL     1      -9.269   5.375  70.596  1.00  0.00    -0.148 C  
HETATM    7  C   UNL     1     -10.917   6.486  71.945  1.00  0.00    -0.250 C  
HETATM    8  O   UNL     1     -10.584   5.955  70.648  1.00  0.00    -0.234 OA 
HETATM    9  H   UNL     1      -6.207   6.559  71.080  1.00  0.00     0.000 HD 
HETATM   10  C   UNL     1      -9.924   7.573  72.383  1.00  0.00    -0.184 C  
HETATM   11  O   UNL     1      -6.865   5.905  70.876  1.00  0.00    -0.057 OA 
HETATM   12  O   UNL     1      -9.934   8.731  71.534  1.00  0.00    -0.242 OA 
HETATM   13  C   UNL     1      -8.504   6.994  72.339  1.00  0.00    -0.113 C  
HETATM   14  H   UNL     1      -9.320   9.403  71.805  1.00  0.00     0.000 HD 
HETATM   15  H   UNL     1      -6.684   7.630  72.732  1.00  0.00     0.000 HD 
HETATM   16  O   UNL     1      -7.563   7.988  72.759  1.00  0.00    -0.108 OA 
HETATM   17  C   UNL     1      -8.193   6.446  70.930  1.00  0.00    -0.125 C  
BRANCH   7  18
HETATM   18  C   UNL     1     -12.351   7.018  71.886  1.00  0.00    -0.323 C  
HETATM   19  O   UNL     1     -12.470   8.185  72.696  1.00  0.00    -0.577 OA 
HETATM   20  H   UNL     1     -13.360   8.515  72.659  1.00  0.00     0.000 HD 
ENDBRANCH   7  18
ENDBRANCH   5   6
ENDBRANCH   4   5
BRANCH   4  21
HETATM   21  C   UNL     1      -8.910   5.064  66.866  1.00  0.00    -0.106 C  
HETATM   22  H   UNL     1      -8.783   5.614  64.952  1.00  0.00     0.000 HD 
HETATM   23  O   UNL     1      -9.113   5.975  65.767  1.00  0.00    -0.148 OA 
BRANCH  21  24
HETATM   24  C   UNL     1      -9.571   3.735  66.485  1.00  0.00    -0.169 C  
HETATM   25  H   UNL     1     -10.608   3.042  64.962  1.00  0.00     0.000 HD 
HETATM   26  C   UNL     1      -8.589   2.579  66.381  1.00  0.00    -0.113 C  
HETATM   27  O   UNL     1     -10.199   3.865  65.198  1.00  0.00    -0.177 OA 
HETATM   28  O   UNL     1      -7.368   2.693  66.350  1.00  0.00    -0.064 OA 
ENDBRANCH  21  24
ENDBRANCH   4  21
ENDBRANCH   3   4
TORSDOF 6
ENDMDL
MODEL      299
REMARK 921   NORMALIZED FREE ENERGY PREDICTED BY IDOCK:   -2.25 KCAL/MOL
REMARK 922        TOTAL FREE ENERGY PREDICTED BY IDOCK:   -4.24 KCAL/MOL
REMARK 923 INTER-LIGAND FREE ENERGY PREDICTED BY IDOCK:   -5.45 KCAL/MOL
REMARK 924 INTRA-LIGAND FREE ENERGY PREDICTED BY IDOCK:    1.21 KCAL/MOL
REMARK 927      BINDING AFFINITY PREDICTED BY RF-SCORE:    0.00 PKD
ROOT
HETATM    1  O   UNL     1     -11.383  16.963  68.285  1.00  0.00    -0.223 OA 
HETATM    2  H   UNL     1     -12.071  17.254  68.873  1.00  0.00     0.000 HD 
HETATM    3  C   UNL     1     -10.159  16.672  68.941  1.00  0.00    -0.274 C  
ENDROOT
BRANCH   3   4
HETATM    4  C   UNL     1      -9.038  16.199  67.986  1.00  0.00    -0.190 C  
BRANCH   4   5
HETATM    5  O   UNL     1      -9.487  15.678  66.722  1.00  0.00    -0.221 OA 
BRANCH   5   6
HETATM    6  C   UNL     1      -9.850  14.299  66.733  1.00  0.00    -0.270 C  
HETATM    7  C   UNL     1      -9.139  12.127  67.472  1.00  0.00    -0.180 C  
HETATM    8  O   UNL     1      -8.819  13.528  67.373  1.00  0.00    -0.199 OA 
HETATM    9  H   UNL     1     -11.241  14.235  63.720  1.00  0.00     0.000 HD 
HETATM   10  C   UNL     1      -9.380  11.503  66.090  1.00  0.00    -0.215 C  
HETATM   11  O   UNL     1     -11.098  14.545  64.607  1.00  0.00    -0.382 OA 
HETATM   12  O   UNL     1      -8.219  11.523  65.245  1.00  0.00    -0.265 OA 
HETATM   13  C   UNL     1     -10.475  12.300  65.370  1.00  0.00    -0.269 C  
HETATM   14  H   UNL     1      -8.368  11.136  64.389  1.00  0.00     0.000 HD 
HETATM   15  H   UNL     1     -11.403  12.218  63.636  1.00  0.00     0.000 HD 
HETATM   16  O   UNL     1     -10.725  11.724  64.082  1.00  0.00    -0.299 OA 
HETATM   17  C   UNL     1     -10.082  13.790  65.282  1.00  0.00    -0.288 C  
BRANCH   7  18
HETATM   18  C   UNL     1      -7.998  11.431  68.219  1.00  0.00    -0.136 C  
HETATM   19  O   UNL     1      -8.516  10.711  69.334  1.00  0.00    -0.301 OA 
HETATM   20  H   UNL     1      -7.808  10.279  69.797  1.00  0.00     0.000 HD 
ENDBRANCH   7  18
ENDBRANCH   5   6
ENDBRANCH   4   5
BRANCH   4  21
HETATM   21  C   UNL     1      -7.998  17.334  67.743  1.00  0.00    -0.190 C  
HETATM   22  H   UNL     1      -6.828  18.524  68.838  1.00  0.00     0.000 HD 
HETATM   23  O   UNL     1      -7.462  17.832  68.986  1.00  0.00    -0.251 OA 
BRANCH  21  24
HETATM   24  C   UNL     1      -8.583  18.532  66.988  1.00  0.00    -0.272 C  
HETATM   25  H   UNL     1     -10.099  18.853  65.773  1.00  0.00     0.000 HD 
HETATM   26  C   UNL     1      -9.037  19.660  67.901  1.00  0.00    -0.327 C  
HETATM   27  O   UNL     1      -9.737  18.111  66.242  1.00  0.00    -0.370 OA 
HETATM   28  O   UNL     1      -9.173  19.570  69.117  1.00  0.00    -0.328 OA 
ENDBRANCH  21  24
ENDBRANCH   4  21
ENDBRANCH   3   4
TORSDOF 6
ENDMDL
MODEL      300
REMARK 921   NORMALIZED FREE ENERGY PREDICTED BY IDOCK:   -2.23 KCAL/MOL
REMARK 922        TOTAL FREE ENERGY PREDICTED BY IDOCK:   -4.22 KCAL/MOL
REMARK 923 INTER-LIGAND FREE ENERGY PREDICTED BY IDOCK:   -3.22 KCAL/MOL
REMARK 924 INTRA-LIGAND FREE ENERGY PREDICTED BY IDOCK:   -1.00 KCAL/MOL
REMARK 927      BINDING AFFINITY PREDICTED BY RF-SCORE:    0.00 PKD
ROOT
HETATM    1  O   UNL     1     -10.111   8.166  73.218  1.00  0.00    -0.257 OA 
HETATM    2  H   UNL     1     -10.937   8.306  73.666  1.00  0.00     0.000 HD 
HETATM    3  C   UNL     1     -10.132   8.542  71.850  1.00  0.00    -0.297 C  
ENDROOT
BRANCH   3   4
HETATM    4  C   UNL     1      -8.786   8.313  71.121  1.00  0.00    -0.151 C  
BRANCH   4   5
HETATM    5  O   UNL     1      -8.188   7.021  71.325  1.00  0.00    -0.111 OA 
BRANCH   5   6
HETATM    6  C   UNL     1      -9.069   5.914  71.150  1.00  0.00    -0.143 C  
HETATM    7  C   UNL     1     -10.389   4.297  72.338  1.00  0.00    -0.160 C  
HETATM    8  O   UNL     1      -9.453   5.388  72.432  1.00  0.00    -0.143 OA 
HETATM    9  H   UNL     1      -7.556   4.627  68.491  1.00  0.00     0.000 HD 
HETATM   10  C   UNL     1      -9.816   3.129  71.521  1.00  0.00    -0.130 C  
HETATM   11  O   UNL     1      -7.974   5.302  69.012  1.00  0.00    -0.084 OA 
HETATM   12  O   UNL     1      -8.659   2.527  72.122  1.00  0.00    -0.064 OA 
HETATM   13  C   UNL     1      -9.390   3.649  70.143  1.00  0.00    -0.173 C  
HETATM   14  H   UNL     1      -8.305   1.804  71.617  1.00  0.00     0.000 HD 
HETATM   15  H   UNL     1      -8.602   2.893  68.506  1.00  0.00     0.000 HD 
HETATM   16  O   UNL     1      -8.866   2.571  69.360  1.00  0.00    -0.074 OA 
HETATM   17  C   UNL     1      -8.383   4.809  70.297  1.00  0.00    -0.079 C  
BRANCH   7  18
HETATM   18  C   UNL     1     -10.762   3.867  73.759  1.00  0.00    -0.231 C  
HETATM   19  O   UNL     1     -11.178   2.504  73.761  1.00  0.00    -0.205 OA 
HETATM   20  H   UNL     1     -11.410   2.238  74.643  1.00  0.00     0.000 HD 
ENDBRANCH   7  18
ENDBRANCH   5   6
ENDBRANCH   4   5
BRANCH   4  21
HETATM   21  C   UNL     1      -8.929   8.588  69.593  1.00  0.00    -0.145 C  
HETATM   22  H   UNL     1      -8.255   9.913  68.262  1.00  0.00     0.000 HD 
HETATM   23  O   UNL     1      -8.168   9.745  69.193  1.00  0.00    -0.113 OA 
BRANCH  21  24
HETATM   24  C   UNL     1     -10.379   8.823  69.159  1.00  0.00    -0.217 C  
HETATM   25  H   UNL     1     -11.461  10.358  68.566  1.00  0.00     0.000 HD 
HETATM   26  C   UNL     1     -10.777   8.028  67.926  1.00  0.00    -0.071 C  
HETATM   27  O   UNL     1     -10.562  10.212  68.835  1.00  0.00    -0.194 OA 
HETATM   28  O   UNL     1      -9.996   7.445  67.181  1.00  0.00    -0.175 OA 
ENDBRANCH  21  24
ENDBRANCH   4  21
ENDBRANCH   3   4
TORSDOF 6
ENDMDL
MODEL      301
REMARK 921   NORMALIZED FREE ENERGY PREDICTED BY IDOCK:   -2.23 KCAL/MOL
REMARK 922        TOTAL FREE ENERGY PREDICTED BY IDOCK:   -4.21 KCAL/MOL
REMARK 923 INTER-LIGAND FREE ENERGY PREDICTED BY IDOCK:   -4.23 KCAL/MOL
REMARK 924 INTRA-LIGAND FREE ENERGY PREDICTED BY IDOCK:    0.01 KCAL/MOL
REMARK 927      BINDING AFFINITY PREDICTED BY RF-SCORE:    0.00 PKD
ROOT
HETATM    1  O   UNL     1      -7.977   7.440  65.573  1.00  0.00    -0.107 OA 
HETATM    2  H   UNL     1      -8.364   6.987  64.833  1.00  0.00     0.000 HD 
HETATM    3  C   UNL     1      -8.644   7.199  66.802  1.00  0.00    -0.124 C  
ENDROOT
BRANCH   3   4
HETATM    4  C   UNL     1      -8.013   7.937  68.007  1.00  0.00    -0.128 C  
BRANCH   4   5
HETATM    5  O   UNL     1      -8.274   9.351  68.068  1.00  0.00    -0.113 OA 
BRANCH   5   6
HETATM    6  C   UNL     1      -9.431   9.781  67.355  1.00  0.00    -0.152 C  
HETATM    7  C   UNL     1     -10.182  10.637  65.240  1.00  0.00    -0.282 C  
HETATM    8  O   UNL     1      -9.056  10.234  66.043  1.00  0.00    -0.153 OA 
HETATM    9  H   UNL     1     -10.972  11.201  69.930  1.00  0.00     0.000 HD 
HETATM   10  C   UNL     1     -10.972  11.774  65.903  1.00  0.00    -0.304 C  
HETATM   11  O   UNL     1     -10.531  10.506  69.454  1.00  0.00    -0.218 OA 
HETATM   12  O   UNL     1     -10.215  12.985  66.049  1.00  0.00    -0.276 OA 
HETATM   13  C   UNL     1     -11.391  11.331  67.311  1.00  0.00    -0.255 C  
HETATM   14  H   UNL     1     -10.704  13.689  66.460  1.00  0.00     0.000 HD 
HETATM   15  H   UNL     1     -12.403  12.100  68.814  1.00  0.00     0.000 HD 
HETATM   16  O   UNL     1     -12.143  12.374  67.942  1.00  0.00    -0.428 OA 
HETATM   17  C   UNL     1     -10.151  10.919  68.133  1.00  0.00    -0.173 C  
BRANCH   7  18
HETATM   18  C   UNL     1      -9.660  11.039  63.858  1.00  0.00    -0.272 C  
HETATM   19  O   UNL     1     -10.737  11.083  62.926  1.00  0.00    -0.794 OA 
HETATM   20  H   UNL     1     -10.414  11.332  62.069  1.00  0.00     0.000 HD 
ENDBRANCH   7  18
ENDBRANCH   5   6
ENDBRANCH   4   5
BRANCH   4  21
HETATM   21  C   UNL     1      -8.436   7.269  69.350  1.00  0.00    -0.133 C  
HETATM   22  H   UNL     1      -8.868   7.841  71.213  1.00  0.00     0.000 HD 
HETATM   23  O   UNL     1      -8.611   8.248  70.394  1.00  0.00    -0.128 OA 
BRANCH  21  24
HETATM   24  C   UNL     1      -7.418   6.242  69.856  1.00  0.00    -0.084 C  
HETATM   25  H   UNL     1      -6.642   4.556  69.197  1.00  0.00     0.000 HD 
HETATM   26  C   UNL     1      -6.032   6.826  70.082  1.00  0.00    -0.023 C  
HETATM   27  O   UNL     1      -7.273   5.193  68.884  1.00  0.00    -0.059 OA 
HETATM   28  O   UNL     1      -5.657   7.924  69.685  1.00  0.00    -0.023 OA 
ENDBRANCH  21  24
ENDBRANCH   4  21
ENDBRANCH   3   4
TORSDOF 6
ENDMDL
MODEL      302
REMARK 921   NORMALIZED FREE ENERGY PREDICTED BY IDOCK:   -2.22 KCAL/MOL
REMARK 922        TOTAL FREE ENERGY PREDICTED BY IDOCK:   -4.21 KCAL/MOL
REMARK 923 INTER-LIGAND FREE ENERGY PREDICTED BY IDOCK:   -4.06 KCAL/MOL
REMARK 924 INTRA-LIGAND FREE ENERGY PREDICTED BY IDOCK:   -0.15 KCAL/MOL
REMARK 927      BINDING AFFINITY PREDICTED BY RF-SCORE:    0.00 PKD
ROOT
HETATM    1  O   UNL     1      -8.880  14.636  66.087  1.00  0.00    -0.476 OA 
HETATM    2  H   UNL     1      -8.774  15.571  66.219  1.00  0.00     0.000 HD 
HETATM    3  C   UNL     1      -9.756  14.023  67.020  1.00  0.00    -0.256 C  
ENDROOT
BRANCH   3   4
HETATM    4  C   UNL     1      -9.929  12.501  66.805  1.00  0.00    -0.228 C  
BRANCH   4   5
HETATM    5  O   UNL     1      -9.878  11.700  67.999  1.00  0.00    -0.179 OA 
BRANCH   5   6
HETATM    6  C   UNL     1      -9.395  10.372  67.815  1.00  0.00    -0.145 C  
HETATM    7  C   UNL     1      -9.767   8.083  68.441  1.00  0.00    -0.158 C  
HETATM    8  O   UNL     1     -10.162   9.457  68.616  1.00  0.00    -0.187 OA 
HETATM    9  H   UNL     1      -6.171  11.146  67.651  1.00  0.00     0.000 HD 
HETATM   10  C   UNL     1      -8.289   7.869  68.799  1.00  0.00    -0.128 C  
HETATM   11  O   UNL     1      -7.092  11.197  67.421  1.00  0.00    -0.091 OA 
HETATM   12  O   UNL     1      -7.994   8.130  70.180  1.00  0.00    -0.102 OA 
HETATM   13  C   UNL     1      -7.433   8.831  67.965  1.00  0.00    -0.093 C  
HETATM   14  H   UNL     1      -7.079   7.998  70.402  1.00  0.00     0.000 HD 
HETATM   15  H   UNL     1      -5.517   9.232  67.758  1.00  0.00     0.000 HD 
HETATM   16  O   UNL     1      -6.048   8.637  68.275  1.00  0.00    -0.048 OA 
HETATM   17  C   UNL     1      -7.889  10.288  68.193  1.00  0.00    -0.104 C  
BRANCH   7  18
HETATM   18  C   UNL     1     -10.691   7.211  69.296  1.00  0.00    -0.215 C  
HETATM   19  O   UNL     1      -9.967   6.095  69.807  1.00  0.00    -0.161 OA 
HETATM   20  H   UNL     1     -10.540   5.554  70.338  1.00  0.00     0.000 HD 
ENDBRANCH   7  18
ENDBRANCH   5   6
ENDBRANCH   4   5
BRANCH   4  21
HETATM   21  C   UNL     1     -11.245  12.195  66.027  1.00  0.00    -0.336 C  
HETATM   22  H   UNL     1     -12.272  10.590  65.435  1.00  0.00     0.000 HD 
HETATM   23  O   UNL     1     -11.470  10.776  65.910  1.00  0.00     0.200 OA 
BRANCH  21  24
HETATM   24  C   UNL     1     -11.252  12.776  64.609  1.00  0.00    -0.319 C  
HETATM   25  H   UNL     1     -11.239  12.063  62.774  1.00  0.00     0.000 HD 
HETATM   26  C   UNL     1     -12.482  13.616  64.306  1.00  0.00    -0.248 C  
HETATM   27  O   UNL     1     -11.235  11.703  63.652  1.00  0.00    -0.402 OA 
HETATM   28  O   UNL     1     -13.498  13.651  64.993  1.00  0.00    -0.385 OA 
ENDBRANCH  21  24
ENDBRANCH   4  21
ENDBRANCH   3   4
TORSDOF 6
ENDMDL
MODEL      303
REMARK 921   NORMALIZED FREE ENERGY PREDICTED BY IDOCK:   -2.22 KCAL/MOL
REMARK 922        TOTAL FREE ENERGY PREDICTED BY IDOCK:   -4.20 KCAL/MOL
REMARK 923 INTER-LIGAND FREE ENERGY PREDICTED BY IDOCK:   -3.34 KCAL/MOL
REMARK 924 INTRA-LIGAND FREE ENERGY PREDICTED BY IDOCK:   -0.87 KCAL/MOL
REMARK 927      BINDING AFFINITY PREDICTED BY RF-SCORE:    0.00 PKD
ROOT
HETATM    1  O   UNL     1      -5.594   7.330  69.024  1.00  0.00    -0.018 OA 
HETATM    2  H   UNL     1      -4.886   7.552  69.617  1.00  0.00     0.000 HD 
HETATM    3  C   UNL     1      -6.858   7.223  69.659  1.00  0.00    -0.049 C  
ENDROOT
BRANCH   3   4
HETATM    4  C   UNL     1      -8.012   6.862  68.694  1.00  0.00    -0.120 C  
BRANCH   4   5
HETATM    5  O   UNL     1      -8.301   5.458  68.579  1.00  0.00    -0.097 OA 
BRANCH   5   6
HETATM    6  C   UNL     1      -8.021   4.887  67.302  1.00  0.00    -0.095 C  
HETATM    7  C   UNL     1      -8.978   4.426  65.148  1.00  0.00    -0.143 C  
HETATM    8  O   UNL     1      -9.197   4.937  66.476  1.00  0.00    -0.126 OA 
HETATM    9  H   UNL     1      -6.072   2.431  68.390  1.00  0.00     0.000 HD 
HETATM   10  C   UNL     1      -8.504   2.966  65.174  1.00  0.00    -0.099 C  
HETATM   11  O   UNL     1      -6.369   3.328  68.292  1.00  0.00    -0.031 OA 
HETATM   12  O   UNL     1      -9.474   2.061  65.725  1.00  0.00    -0.339 OA 
HETATM   13  C   UNL     1      -7.248   2.867  66.050  1.00  0.00    -0.066 C  
HETATM   14  H   UNL     1      -9.181   1.157  65.742  1.00  0.00     0.000 HD 
HETATM   15  H   UNL     1      -6.003   1.453  66.618  1.00  0.00     0.000 HD 
HETATM   16  O   UNL     1      -6.781   1.514  66.076  1.00  0.00    -0.026 OA 
HETATM   17  C   UNL     1      -7.536   3.419  67.463  1.00  0.00    -0.069 C  
BRANCH   7  18
HETATM   18  C   UNL     1     -10.278   4.587  64.356  1.00  0.00     0.158 C  
HETATM   19  O   UNL     1     -11.397   4.388  65.216  1.00  0.00    -0.965 OA 
HETATM   20  H   UNL     1     -12.204   4.487  64.724  1.00  0.00     0.000 HD 
ENDBRANCH   7  18
ENDBRANCH   5   6
ENDBRANCH   4   5
BRANCH   4  21
HETATM   21  C   UNL     1      -9.312   7.635  69.069  1.00  0.00    -0.146 C  
HETATM   22  H   UNL     1     -11.199   7.203  69.555  1.00  0.00     0.000 HD 
HETATM   23  O   UNL     1     -10.406   6.732  69.327  1.00  0.00    -0.183 OA 
BRANCH  21  24
HETATM   24  C   UNL     1      -9.772   8.603  67.973  1.00  0.00    -0.158 C  
HETATM   25  H   UNL     1     -10.813   8.484  66.306  1.00  0.00     0.000 HD 
HETATM   26  C   UNL     1     -10.669   9.718  68.489  1.00  0.00    -0.215 C  
HETATM   27  O   UNL     1     -10.528   7.884  66.985  1.00  0.00    -0.315 OA 
HETATM   28  O   UNL     1     -11.197   9.742  69.596  1.00  0.00    -0.234 OA 
ENDBRANCH  21  24
ENDBRANCH   4  21
ENDBRANCH   3   4
TORSDOF 6
ENDMDL
MODEL      304
REMARK 921   NORMALIZED FREE ENERGY PREDICTED BY IDOCK:   -2.19 KCAL/MOL
REMARK 922        TOTAL FREE ENERGY PREDICTED BY IDOCK:   -4.16 KCAL/MOL
REMARK 923 INTER-LIGAND FREE ENERGY PREDICTED BY IDOCK:   -3.74 KCAL/MOL
REMARK 924 INTRA-LIGAND FREE ENERGY PREDICTED BY IDOCK:   -0.42 KCAL/MOL
REMARK 927      BINDING AFFINITY PREDICTED BY RF-SCORE:    0.00 PKD
ROOT
HETATM    1  O   UNL     1      -6.273   6.185  70.585  1.00  0.00    -0.035 OA 
HETATM    2  H   UNL     1      -5.715   6.954  70.591  1.00  0.00     0.000 HD 
HETATM    3  C   UNL     1      -7.510   6.384  69.919  1.00  0.00    -0.088 C  
ENDROOT
BRANCH   3   4
HETATM    4  C   UNL     1      -8.420   5.133  69.908  1.00  0.00    -0.096 C  
BRANCH   4   5
HETATM    5  O   UNL     1      -9.796   5.376  69.568  1.00  0.00    -0.162 OA 
BRANCH   5   6
HETATM    6  C   UNL     1     -10.636   5.723  70.666  1.00  0.00    -0.277 C  
HETATM    7  C   UNL     1     -11.632   7.583  71.816  1.00  0.00    -0.270 C  
HETATM    8  O   UNL     1     -10.753   7.154  70.759  1.00  0.00    -0.224 OA 
HETATM    9  H   UNL     1      -9.570   3.360  72.738  1.00  0.00     0.000 HD 
HETATM   10  C   UNL     1     -11.158   7.077  73.186  1.00  0.00    -0.224 C  
HETATM   11  O   UNL     1      -9.921   3.715  71.930  1.00  0.00    -0.171 OA 
HETATM   12  O   UNL     1      -9.881   7.604  73.578  1.00  0.00    -0.298 OA 
HETATM   13  C   UNL     1     -11.018   5.550  73.130  1.00  0.00    -0.293 C  
HETATM   14  H   UNL     1      -9.588   7.290  74.426  1.00  0.00     0.000 HD 
HETATM   15  H   UNL     1     -10.504   4.111  74.370  1.00  0.00     0.000 HD 
HETATM   16  O   UNL     1     -10.591   5.057  74.404  1.00  0.00    -0.285 OA 
HETATM   17  C   UNL     1     -10.062   5.142  71.989  1.00  0.00    -0.197 C  
BRANCH   7  18
HETATM   18  C   UNL     1     -11.716   9.111  71.772  1.00  0.00    -0.386 C  
HETATM   19  O   UNL     1     -11.299   9.584  70.494  1.00  0.00    -0.255 OA 
HETATM   20  H   UNL     1     -11.352  10.532  70.467  1.00  0.00     0.000 HD 
ENDBRANCH   7  18
ENDBRANCH   5   6
ENDBRANCH   4   5
BRANCH   4  21
HETATM   21  C   UNL     1      -7.837   4.030  68.973  1.00  0.00    -0.056 C  
HETATM   22  H   UNL     1      -6.163   2.954  68.824  1.00  0.00     0.000 HD 
HETATM   23  O   UNL     1      -6.518   3.626  69.394  1.00  0.00    -0.032 OA 
BRANCH  21  24
HETATM   24  C   UNL     1      -7.731   4.478  67.511  1.00  0.00    -0.085 C  
HETATM   25  H   UNL     1      -6.337   4.499  66.122  1.00  0.00     0.000 HD 
HETATM   26  C   UNL     1      -8.686   3.743  66.584  1.00  0.00    -0.118 C  
HETATM   27  O   UNL     1      -6.402   4.221  67.027  1.00  0.00    -0.038 OA 
HETATM   28  O   UNL     1      -9.311   2.729  66.876  1.00  0.00    -0.144 OA 
ENDBRANCH  21  24
ENDBRANCH   4  21
ENDBRANCH   3   4
TORSDOF 6
ENDMDL
MODEL      305
REMARK 921   NORMALIZED FREE ENERGY PREDICTED BY IDOCK:   -2.02 KCAL/MOL
REMARK 922        TOTAL FREE ENERGY PREDICTED BY IDOCK:   -3.93 KCAL/MOL
REMARK 923 INTER-LIGAND FREE ENERGY PREDICTED BY IDOCK:   -5.49 KCAL/MOL
REMARK 924 INTRA-LIGAND FREE ENERGY PREDICTED BY IDOCK:    1.55 KCAL/MOL
REMARK 927      BINDING AFFINITY PREDICTED BY RF-SCORE:    0.00 PKD
ROOT
HETATM    1  O   UNL     1      -9.433  16.735  66.052  1.00  0.00    -0.400 OA 
HETATM    2  H   UNL     1      -9.554  16.640  65.114  1.00  0.00     0.000 HD 
HETATM    3  C   UNL     1      -8.818  15.612  66.665  1.00  0.00    -0.292 C  
ENDROOT
BRANCH   3   4
HETATM    4  C   UNL     1      -8.622  15.766  68.191  1.00  0.00    -0.164 C  
BRANCH   4   5
HETATM    5  O   UNL     1      -9.582  15.072  69.008  1.00  0.00    -0.215 OA 
BRANCH   5   6
HETATM    6  C   UNL     1      -9.931  13.767  68.551  1.00  0.00    -0.217 C  
HETATM    7  C   UNL     1      -9.020  11.733  67.656  1.00  0.00    -0.169 C  
HETATM    8  O   UNL     1      -8.756  13.081  68.087  1.00  0.00    -0.180 OA 
HETATM    9  H   UNL     1     -12.817  14.607  67.141  1.00  0.00     0.000 HD 
HETATM   10  C   UNL     1     -10.048  11.694  66.516  1.00  0.00    -0.207 C  
HETATM   11  O   UNL     1     -12.171  14.550  67.836  1.00  0.00    -0.272 OA 
HETATM   12  O   UNL     1      -9.596  12.344  65.319  1.00  0.00    -0.434 OA 
HETATM   13  C   UNL     1     -11.321  12.419  66.971  1.00  0.00    -0.327 C  
HETATM   14  H   UNL     1     -10.232  12.320  64.613  1.00  0.00     0.000 HD 
HETATM   15  H   UNL     1     -13.087  12.830  66.206  1.00  0.00     0.000 HD 
HETATM   16  O   UNL     1     -12.299  12.382  65.925  1.00  0.00    -0.638 OA 
HETATM   17  C   UNL     1     -10.987  13.860  67.413  1.00  0.00    -0.288 C  
BRANCH   7  18
HETATM   18  C   UNL     1      -7.690  11.096  67.245  1.00  0.00    -0.130 C  
HETATM   19  O   UNL     1      -6.828  12.087  66.692  1.00  0.00    -0.369 OA 
HETATM   20  H   UNL     1      -6.003  11.692  66.437  1.00  0.00     0.000 HD 
ENDBRANCH   7  18
ENDBRANCH   5   6
ENDBRANCH   4   5
BRANCH   4  21
HETATM   21  C   UNL     1      -7.180  15.349  68.611  1.00  0.00    -0.121 C  
HETATM   22  H   UNL     1      -6.190  14.946  70.297  1.00  0.00     0.000 HD 
HETATM   23  O   UNL     1      -7.070  15.200  70.041  1.00  0.00    -0.166 OA 
BRANCH  21  24
HETATM   24  C   UNL     1      -6.113  16.359  68.175  1.00  0.00    -0.119 C  
HETATM   25  H   UNL     1      -5.091  16.740  66.536  1.00  0.00     0.000 HD 
HETATM   26  C   UNL     1      -6.580  17.804  68.256  1.00  0.00    -0.196 C  
HETATM   27  O   UNL     1      -5.752  16.114  66.805  1.00  0.00    -0.306 OA 
HETATM   28  O   UNL     1      -7.744  18.161  68.405  1.00  0.00    -0.275 OA 
ENDBRANCH  21  24
ENDBRANCH   4  21
ENDBRANCH   3   4
TORSDOF 6
ENDMDL
MODEL      306
REMARK 921   NORMALIZED FREE ENERGY PREDICTED BY IDOCK:   -2.01 KCAL/MOL
REMARK 922        TOTAL FREE ENERGY PREDICTED BY IDOCK:   -3.91 KCAL/MOL
REMARK 923 INTER-LIGAND FREE ENERGY PREDICTED BY IDOCK:   -4.50 KCAL/MOL
REMARK 924 INTRA-LIGAND FREE ENERGY PREDICTED BY IDOCK:    0.58 KCAL/MOL
REMARK 927      BINDING AFFINITY PREDICTED BY RF-SCORE:    0.00 PKD
ROOT
HETATM    1  O   UNL     1      -9.743  18.207  67.880  1.00  0.00    -0.280 OA 
HETATM    2  H   UNL     1     -10.062  18.976  68.339  1.00  0.00     0.000 HD 
HETATM    3  C   UNL     1      -8.789  17.459  68.617  1.00  0.00    -0.258 C  
ENDROOT
BRANCH   3   4
HETATM    4  C   UNL     1      -8.269  16.207  67.871  1.00  0.00    -0.153 C  
BRANCH   4   5
HETATM    5  O   UNL     1      -8.926  15.918  66.624  1.00  0.00    -0.219 OA 
BRANCH   5   6
HETATM    6  C   UNL     1      -9.565  14.645  66.560  1.00  0.00    -0.289 C  
HETATM    7  C   UNL     1     -10.395  12.981  65.039  1.00  0.00    -0.318 C  
HETATM    8  O   UNL     1      -9.799  14.284  65.188  1.00  0.00    -0.286 OA 
HETATM    9  H   UNL     1     -11.534  15.063  69.199  1.00  0.00     0.000 HD 
HETATM   10  C   UNL     1     -11.744  12.890  65.768  1.00  0.00    -0.390 C  
HETATM   11  O   UNL     1     -10.714  15.044  68.719  1.00  0.00    -0.227 OA 
HETATM   12  O   UNL     1     -12.740  13.778  65.236  1.00  0.00    -0.590 OA 
HETATM   13  C   UNL     1     -11.539  13.272  67.240  1.00  0.00    -0.359 C  
HETATM   14  H   UNL     1     -13.575  13.721  65.687  1.00  0.00     0.000 HD 
HETATM   15  H   UNL     1     -12.658  13.415  68.852  1.00  0.00     0.000 HD 
HETATM   16  O   UNL     1     -12.785  13.179  67.941  1.00  0.00     0.405 OA 
HETATM   17  C   UNL     1     -10.907  14.676  67.346  1.00  0.00    -0.298 C  
BRANCH   7  18
HETATM   18  C   UNL     1     -10.537  12.692  63.543  1.00  0.00    -0.260 C  
HETATM   19  O   UNL     1     -11.613  11.783  63.324  1.00  0.00    -0.671 OA 
HETATM   20  H   UNL     1     -11.701  11.603  62.396  1.00  0.00     0.000 HD 
ENDBRANCH   7  18
ENDBRANCH   5   6
ENDBRANCH   4   5
BRANCH   4  21
HETATM   21  C   UNL     1      -6.730  16.293  67.644  1.00  0.00    -0.145 C  
HETATM   22  H   UNL     1      -5.389  15.606  66.336  1.00  0.00     0.000 HD 
HETATM   23  O   UNL     1      -6.328  15.553  66.474  1.00  0.00     0.376 OA 
BRANCH  21  24
HETATM   24  C   UNL     1      -5.918  15.753  68.826  1.00  0.00    -0.100 C  
HETATM   25  H   UNL     1      -5.648  16.239  70.715  1.00  0.00     0.000 HD 
HETATM   26  C   UNL     1      -6.291  14.331  69.215  1.00  0.00    -0.110 C  
HETATM   27  O   UNL     1      -6.151  16.575  69.983  1.00  0.00    -0.215 OA 
HETATM   28  O   UNL     1      -7.288  13.732  68.825  1.00  0.00    -0.107 OA 
ENDBRANCH  21  24
ENDBRANCH   4  21
ENDBRANCH   3   4
TORSDOF 6
ENDMDL
MODEL      307
REMARK 921   NORMALIZED FREE ENERGY PREDICTED BY IDOCK:   -2.00 KCAL/MOL
REMARK 922        TOTAL FREE ENERGY PREDICTED BY IDOCK:   -3.91 KCAL/MOL
REMARK 923 INTER-LIGAND FREE ENERGY PREDICTED BY IDOCK:   -3.03 KCAL/MOL
REMARK 924 INTRA-LIGAND FREE ENERGY PREDICTED BY IDOCK:   -0.88 KCAL/MOL
REMARK 927      BINDING AFFINITY PREDICTED BY RF-SCORE:    0.00 PKD
ROOT
HETATM    1  O   UNL     1      -6.765   6.348  72.296  1.00  0.00    -0.065 OA 
HETATM    2  H   UNL     1      -6.006   6.199  72.847  1.00  0.00     0.000 HD 
HETATM    3  C   UNL     1      -6.962   5.345  71.312  1.00  0.00    -0.058 C  
ENDROOT
BRANCH   3   4
HETATM    4  C   UNL     1      -8.198   5.587  70.414  1.00  0.00    -0.104 C  
BRANCH   4   5
HETATM    5  O   UNL     1      -8.352   4.667  69.318  1.00  0.00    -0.078 OA 
BRANCH   5   6
HETATM    6  C   UNL     1      -7.935   5.166  68.050  1.00  0.00    -0.091 C  
HETATM    7  C   UNL     1      -7.420   7.181  66.848  1.00  0.00    -0.100 C  
HETATM    8  O   UNL     1      -7.887   6.603  68.082  1.00  0.00    -0.106 OA 
HETATM    9  H   UNL     1      -9.581   2.956  66.199  1.00  0.00     0.000 HD 
HETATM   10  C   UNL     1      -8.313   6.783  65.664  1.00  0.00    -0.147 C  
HETATM   11  O   UNL     1      -8.988   3.251  66.880  1.00  0.00    -0.135 OA 
HETATM   12  O   UNL     1      -9.659   7.272  65.775  1.00  0.00    -0.383 OA 
HETATM   13  C   UNL     1      -8.393   5.253  65.595  1.00  0.00    -0.126 C  
HETATM   14  H   UNL     1     -10.211   7.026  65.042  1.00  0.00     0.000 HD 
HETATM   15  H   UNL     1      -9.261   3.913  64.443  1.00  0.00     0.000 HD 
HETATM   16  O   UNL     1      -9.211   4.861  64.486  1.00  0.00    -0.116 OA 
HETATM   17  C   UNL     1      -8.906   4.683  66.935  1.00  0.00    -0.111 C  
BRANCH   7  18
HETATM   18  C   UNL     1      -7.359   8.700  67.029  1.00  0.00    -0.080 C  
HETATM   19  O   UNL     1      -7.656   9.040  68.380  1.00  0.00    -0.088 OA 
HETATM   20  H   UNL     1      -7.618   9.983  68.492  1.00  0.00     0.000 HD 
ENDBRANCH   7  18
ENDBRANCH   5   6
ENDBRANCH   4   5
BRANCH   4  21
HETATM   21  C   UNL     1      -9.505   5.612  71.264  1.00  0.00    -0.148 C  
HETATM   22  H   UNL     1     -10.783   4.294  72.047  1.00  0.00     0.000 HD 
HETATM   23  O   UNL     1      -9.986   4.279  71.529  1.00  0.00    -0.183 OA 
BRANCH  21  24
HETATM   24  C   UNL     1     -10.645   6.381  70.587  1.00  0.00    -0.237 C  
HETATM   25  H   UNL     1     -12.530   6.785  70.988  1.00  0.00     0.000 HD 
HETATM   26  C   UNL     1     -10.341   7.857  70.384  1.00  0.00    -0.212 C  
HETATM   27  O   UNL     1     -11.824   6.308  71.407  1.00  0.00    -0.304 OA 
HETATM   28  O   UNL     1      -9.411   8.463  70.907  1.00  0.00    -0.156 OA 
ENDBRANCH  21  24
ENDBRANCH   4  21
ENDBRANCH   3   4
TORSDOF 6
ENDMDL
MODEL      308
REMARK 921   NORMALIZED FREE ENERGY PREDICTED BY IDOCK:   -1.98 KCAL/MOL
REMARK 922        TOTAL FREE ENERGY PREDICTED BY IDOCK:   -3.87 KCAL/MOL
REMARK 923 INTER-LIGAND FREE ENERGY PREDICTED BY IDOCK:   -3.78 KCAL/MOL
REMARK 924 INTRA-LIGAND FREE ENERGY PREDICTED BY IDOCK:   -0.10 KCAL/MOL
REMARK 927      BINDING AFFINITY PREDICTED BY RF-SCORE:    0.00 PKD
ROOT
HETATM    1  O   UNL     1     -11.104   8.155  72.906  1.00  0.00    -0.373 OA 
HETATM    2  H   UNL     1     -11.989   8.490  72.994  1.00  0.00     0.000 HD 
HETATM    3  C   UNL     1     -10.522   8.408  71.637  1.00  0.00    -0.252 C  
ENDROOT
BRANCH   3   4
HETATM    4  C   UNL     1      -9.081   7.863  71.494  1.00  0.00    -0.137 C  
BRANCH   4   5
HETATM    5  O   UNL     1      -8.567   7.826  70.150  1.00  0.00    -0.135 OA 
BRANCH   5   6
HETATM    6  C   UNL     1      -9.557   7.879  69.126  1.00  0.00    -0.153 C  
HETATM    7  C   UNL     1     -10.565   6.608  67.354  1.00  0.00    -0.301 C  
HETATM    8  O   UNL     1      -9.552   6.651  68.377  1.00  0.00    -0.125 OA 
HETATM    9  H   UNL     1      -9.119  11.070  68.322  1.00  0.00     0.000 HD 
HETATM   10  C   UNL     1     -10.401   7.754  66.346  1.00  0.00     0.137 C  
HETATM   11  O   UNL     1      -9.280  10.331  68.898  1.00  0.00    -0.156 OA 
HETATM   12  O   UNL     1      -9.173   7.690  65.604  1.00  0.00    -0.388 OA 
HETATM   13  C   UNL     1     -10.400   9.087  67.106  1.00  0.00    -0.272 C  
HETATM   14  H   UNL     1      -9.072   8.400  64.980  1.00  0.00     0.000 HD 
HETATM   15  H   UNL     1     -10.262  10.997  66.651  1.00  0.00     0.000 HD 
HETATM   16  O   UNL     1     -10.262  10.171  66.181  1.00  0.00    -0.242 OA 
HETATM   17  C   UNL     1      -9.293   9.087  68.183  1.00  0.00    -0.142 C  
BRANCH   7  18
HETATM   18  C   UNL     1     -10.494   5.238  66.674  1.00  0.00    -0.290 C  
HETATM   19  O   UNL     1     -11.518   5.132  65.689  1.00  0.00    -0.787 OA 
HETATM   20  H   UNL     1     -11.474   4.282  65.267  1.00  0.00     0.000 HD 
ENDBRANCH   7  18
ENDBRANCH   5   6
ENDBRANCH   4   5
BRANCH   4  21
HETATM   21  C   UNL     1      -8.095   8.652  72.408  1.00  0.00     0.005 C  
HETATM   22  H   UNL     1      -6.918  10.258  72.272  1.00  0.00     0.000 HD 
HETATM   23  O   UNL     1      -7.519   9.777  71.714  1.00  0.00     0.231 OA 
BRANCH  21  24
HETATM   24  C   UNL     1      -6.936   7.793  72.923  1.00  0.00    -0.077 C  
HETATM   25  H   UNL     1      -5.739   7.797  74.487  1.00  0.00     0.000 HD 
HETATM   26  C   UNL     1      -7.327   6.347  73.189  1.00  0.00    -0.087 C  
HETATM   27  O   UNL     1      -6.458   8.330  74.168  1.00  0.00    -0.113 OA 
HETATM   28  O   UNL     1      -8.479   5.927  73.242  1.00  0.00    -0.119 OA 
ENDBRANCH  21  24
ENDBRANCH   4  21
ENDBRANCH   3   4
TORSDOF 6
ENDMDL
MODEL      309
REMARK 921   NORMALIZED FREE ENERGY PREDICTED BY IDOCK:   -1.88 KCAL/MOL
REMARK 922        TOTAL FREE ENERGY PREDICTED BY IDOCK:   -3.74 KCAL/MOL
REMARK 923 INTER-LIGAND FREE ENERGY PREDICTED BY IDOCK:   -3.29 KCAL/MOL
REMARK 924 INTRA-LIGAND FREE ENERGY PREDICTED BY IDOCK:   -0.45 KCAL/MOL
REMARK 927      BINDING AFFINITY PREDICTED BY RF-SCORE:    0.00 PKD
ROOT
HETATM    1  O   UNL     1      -8.053   6.552  67.544  1.00  0.00    -0.118 OA 
HETATM    2  H   UNL     1      -7.278   6.087  67.251  1.00  0.00     0.000 HD 
HETATM    3  C   UNL     1      -7.771   7.803  68.152  1.00  0.00    -0.119 C  
ENDROOT
BRANCH   3   4
HETATM    4  C   UNL     1      -9.032   8.561  68.630  1.00  0.00    -0.139 C  
BRANCH   4   5
HETATM    5  O   UNL     1      -9.140   8.740  70.054  1.00  0.00    -0.149 OA 
BRANCH   5   6
HETATM    6  C   UNL     1      -8.781   7.602  70.833  1.00  0.00    -0.138 C  
HETATM    7  C   UNL     1      -9.685   5.748  72.064  1.00  0.00    -0.154 C  
HETATM    8  O   UNL     1      -9.966   6.942  71.310  1.00  0.00    -0.180 OA 
HETATM    9  H   UNL     1      -6.143   8.961  72.319  1.00  0.00     0.000 HD 
HETATM   10  C   UNL     1      -8.806   6.045  73.288  1.00  0.00    -0.130 C  
HETATM   11  O   UNL     1      -6.692   8.701  71.589  1.00  0.00    -0.072 OA 
HETATM   12  O   UNL     1      -9.439   6.905  74.248  1.00  0.00    -0.223 OA 
HETATM   13  C   UNL     1      -7.528   6.753  72.822  1.00  0.00    -0.090 C  
HETATM   14  H   UNL     1      -8.895   7.089  75.006  1.00  0.00     0.000 HD 
HETATM   15  H   UNL     1      -5.895   7.463  73.660  1.00  0.00     0.000 HD 
HETATM   16  O   UNL     1      -6.687   7.026  73.949  1.00  0.00    -0.073 OA 
HETATM   17  C   UNL     1      -7.882   8.028  72.028  1.00  0.00    -0.105 C  
BRANCH   7  18
HETATM   18  C   UNL     1     -11.019   5.112  72.463  1.00  0.00    -0.215 C  
HETATM   19  O   UNL     1     -11.260   5.321  73.852  1.00  0.00    -0.421 OA 
HETATM   20  H   UNL     1     -12.088   4.927  74.099  1.00  0.00     0.000 HD 
ENDBRANCH   7  18
ENDBRANCH   5   6
ENDBRANCH   4   5
BRANCH   4  21
HETATM   21  C   UNL     1      -9.153   9.943  67.919  1.00  0.00    -0.131 C  
HETATM   22  H   UNL     1     -10.177  11.640  68.152  1.00  0.00     0.000 HD 
HETATM   23  O   UNL     1     -10.104  10.797  68.586  1.00  0.00    -0.168 OA 
BRANCH  21  24
HETATM   24  C   UNL     1      -9.592   9.828  66.455  1.00  0.00    -0.194 C  
HETATM   25  H   UNL     1     -11.031  10.568  65.334  1.00  0.00     0.000 HD 
HETATM   26  C   UNL     1      -8.538  10.304  65.469  1.00  0.00    -0.164 C  
HETATM   27  O   UNL     1     -10.759  10.640  66.241  1.00  0.00    -0.197 OA 
HETATM   28  O   UNL     1      -7.535  10.947  65.764  1.00  0.00    -0.111 OA 
ENDBRANCH  21  24
ENDBRANCH   4  21
ENDBRANCH   3   4
TORSDOF 6
ENDMDL
MODEL      310
REMARK 921   NORMALIZED FREE ENERGY PREDICTED BY IDOCK:   -1.87 KCAL/MOL
REMARK 922        TOTAL FREE ENERGY PREDICTED BY IDOCK:   -3.72 KCAL/MOL
REMARK 923 INTER-LIGAND FREE ENERGY PREDICTED BY IDOCK:   -4.39 KCAL/MOL
REMARK 924 INTRA-LIGAND FREE ENERGY PREDICTED BY IDOCK:    0.67 KCAL/MOL
REMARK 927      BINDING AFFINITY PREDICTED BY RF-SCORE:    0.00 PKD
ROOT
HETATM    1  O   UNL     1     -11.722   6.963  67.308  1.00  0.00    -0.523 OA 
HETATM    2  H   UNL     1     -12.230   6.190  67.523  1.00  0.00     0.000 HD 
HETATM    3  C   UNL     1     -10.634   7.194  68.190  1.00  0.00    -0.192 C  
ENDROOT
BRANCH   3   4
HETATM    4  C   UNL     1      -9.806   8.453  67.840  1.00  0.00    -0.170 C  
BRANCH   4   5
HETATM    5  O   UNL     1      -8.679   8.227  66.974  1.00  0.00    -0.123 OA 
BRANCH   5   6
HETATM    6  C   UNL     1      -8.291   6.863  66.833  1.00  0.00    -0.114 C  
HETATM    7  C   UNL     1      -8.967   4.757  65.896  1.00  0.00    -0.130 C  
HETATM    8  O   UNL     1      -9.311   6.136  66.126  1.00  0.00    -0.158 OA 
HETATM    9  H   UNL     1      -6.887   6.543  69.824  1.00  0.00     0.000 HD 
HETATM   10  C   UNL     1      -8.709   4.011  67.214  1.00  0.00    -0.112 C  
HETATM   11  O   UNL     1      -7.039   6.932  68.970  1.00  0.00    -0.082 OA 
HETATM   12  O   UNL     1      -9.867   3.931  68.059  1.00  0.00    -0.110 OA 
HETATM   13  C   UNL     1      -7.625   4.757  68.003  1.00  0.00    -0.082 C  
HETATM   14  H   UNL     1      -9.707   3.469  68.875  1.00  0.00     0.000 HD 
HETATM   15  H   UNL     1      -6.688   4.530  69.718  1.00  0.00     0.000 HD 
HETATM   16  O   UNL     1      -7.360   4.068  69.230  1.00  0.00    -0.053 OA 
HETATM   17  C   UNL     1      -8.044   6.225  68.230  1.00  0.00    -0.112 C  
BRANCH   7  18
HETATM   18  C   UNL     1     -10.098   4.112  65.091  1.00  0.00    -0.209 C  
HETATM   19  O   UNL     1     -11.325   4.789  65.350  1.00  0.00    -0.950 OA 
HETATM   20  H   UNL     1     -12.027   4.390  64.850  1.00  0.00     0.000 HD 
ENDBRANCH   7  18
ENDBRANCH   5   6
ENDBRANCH   4   5
BRANCH   4  21
HETATM   21  C   UNL     1     -10.714   9.566  67.236  1.00  0.00    -0.199 C  
HETATM   22  H   UNL     1     -10.689  10.807  65.673  1.00  0.00     0.000 HD 
HETATM   23  O   UNL     1     -10.135  10.128  66.041  1.00  0.00    -0.246 OA 
BRANCH  21  24
HETATM   24  C   UNL     1     -10.969  10.724  68.207  1.00  0.00    -0.255 C  
HETATM   25  H   UNL     1     -11.525  10.917  70.086  1.00  0.00     0.000 HD 
HETATM   26  C   UNL     1      -9.744  11.591  68.449  1.00  0.00    -0.202 C  
HETATM   27  O   UNL     1     -11.367  10.199  69.485  1.00  0.00    -0.237 OA 
HETATM   28  O   UNL     1      -8.597  11.295  68.127  1.00  0.00    -0.137 OA 
ENDBRANCH  21  24
ENDBRANCH   4  21
ENDBRANCH   3   4
TORSDOF 6
ENDMDL
MODEL      311
REMARK 921   NORMALIZED FREE ENERGY PREDICTED BY IDOCK:   -1.61 KCAL/MOL
REMARK 922        TOTAL FREE ENERGY PREDICTED BY IDOCK:   -3.38 KCAL/MOL
REMARK 923 INTER-LIGAND FREE ENERGY PREDICTED BY IDOCK:   -4.12 KCAL/MOL
REMARK 924 INTRA-LIGAND FREE ENERGY PREDICTED BY IDOCK:    0.74 KCAL/MOL
REMARK 927      BINDING AFFINITY PREDICTED BY RF-SCORE:    0.00 PKD
ROOT
HETATM    1  O   UNL     1      -8.181   9.130  71.699  1.00  0.00    -0.343 OA 
HETATM    2  H   UNL     1      -7.233   9.175  71.660  1.00  0.00     0.000 HD 
HETATM    3  C   UNL     1      -8.769   8.495  70.575  1.00  0.00    -0.152 C  
ENDROOT
BRANCH   3   4
HETATM    4  C   UNL     1     -10.313   8.421  70.638  1.00  0.00    -0.197 C  
BRANCH   4   5
HETATM    5  O   UNL     1     -11.002   8.975  69.503  1.00  0.00    -0.207 OA 
BRANCH   5   6
HETATM    6  C   UNL     1     -10.182   9.227  68.364  1.00  0.00    -0.202 C  
HETATM    7  C   UNL     1      -8.475   8.271  66.970  1.00  0.00    -0.122 C  
HETATM    8  O   UNL     1      -9.301   8.113  68.140  1.00  0.00    -0.134 OA 
HETATM    9  H   UNL     1      -9.706  12.462  68.936  1.00  0.00     0.000 HD 
HETATM   10  C   UNL     1      -7.600   9.530  67.062  1.00  0.00    -0.091 C  
HETATM   11  O   UNL     1     -10.207  11.665  68.810  1.00  0.00    -0.212 OA 
HETATM   12  O   UNL     1      -6.651   9.487  68.139  1.00  0.00    -0.061 OA 
HETATM   13  C   UNL     1      -8.503  10.746  67.305  1.00  0.00    -0.124 C  
HETATM   14  H   UNL     1      -6.110  10.266  68.196  1.00  0.00     0.000 HD 
HETATM   15  H   UNL     1      -8.265  12.686  67.529  1.00  0.00     0.000 HD 
HETATM   16  O   UNL     1      -7.706  11.933  67.380  1.00  0.00    -0.139 OA 
HETATM   17  C   UNL     1      -9.361  10.532  68.571  1.00  0.00    -0.168 C  
BRANCH   7  18
HETATM   18  C   UNL     1      -7.632   7.004  66.809  1.00  0.00    -0.090 C  
HETATM   19  O   UNL     1      -7.160   6.570  68.082  1.00  0.00    -0.077 OA 
HETATM   20  H   UNL     1      -6.637   5.784  67.982  1.00  0.00     0.000 HD 
ENDBRANCH   7  18
ENDBRANCH   5   6
ENDBRANCH   4   5
BRANCH   4  21
HETATM   21  C   UNL     1     -10.790   6.956  70.876  1.00  0.00    -0.244 C  
HETATM   22  H   UNL     1     -11.840   5.568  69.900  1.00  0.00     0.000 HD 
HETATM   23  O   UNL     1     -11.549   6.460  69.754  1.00  0.00    -0.431 OA 
BRANCH  21  24
HETATM   24  C   UNL     1     -11.670   6.807  72.122  1.00  0.00    -0.297 C  
HETATM   25  H   UNL     1     -13.596   6.645  72.499  1.00  0.00     0.000 HD 
HETATM   26  C   UNL     1     -11.377   5.547  72.921  1.00  0.00    -0.291 C  
HETATM   27  O   UNL     1     -13.051   6.738  71.727  1.00  0.00    -0.336 OA 
HETATM   28  O   UNL     1     -10.701   4.603  72.525  1.00  0.00    -0.200 OA 
ENDBRANCH  21  24
ENDBRANCH   4  21
ENDBRANCH   3   4
TORSDOF 6
ENDMDL
MODEL      312
REMARK 921   NORMALIZED FREE ENERGY PREDICTED BY IDOCK:   -1.47 KCAL/MOL
REMARK 922        TOTAL FREE ENERGY PREDICTED BY IDOCK:   -3.19 KCAL/MOL
REMARK 923 INTER-LIGAND FREE ENERGY PREDICTED BY IDOCK:   -4.43 KCAL/MOL
REMARK 924 INTRA-LIGAND FREE ENERGY PREDICTED BY IDOCK:    1.24 KCAL/MOL
REMARK 927      BINDING AFFINITY PREDICTED BY RF-SCORE:    0.00 PKD
ROOT
HETATM    1  O   UNL     1      -7.047   5.839  70.075  1.00  0.00    -0.063 OA 
HETATM    2  H   UNL     1      -6.457   6.153  70.751  1.00  0.00     0.000 HD 
HETATM    3  C   UNL     1      -8.395   6.238  70.264  1.00  0.00    -0.126 C  
ENDROOT
BRANCH   3   4
HETATM    4  C   UNL     1      -9.356   5.727  69.164  1.00  0.00    -0.123 C  
BRANCH   4   5
HETATM    5  O   UNL     1     -10.722   5.543  69.576  1.00  0.00    -0.310 OA 
BRANCH   5   6
HETATM    6  C   UNL     1     -11.151   6.393  70.637  1.00  0.00    -0.317 C  
HETATM    7  C   UNL     1     -11.348   8.692  71.302  1.00  0.00    -0.281 C  
HETATM    8  O   UNL     1     -10.891   7.766  70.299  1.00  0.00    -0.243 OA 
HETATM    9  H   UNL     1     -10.203   4.416  73.130  1.00  0.00     0.000 HD 
HETATM   10  C   UNL     1     -10.683   8.427  72.661  1.00  0.00    -0.242 C  
HETATM   11  O   UNL     1     -10.649   4.647  72.323  1.00  0.00    -0.196 OA 
HETATM   12  O   UNL     1      -9.260   8.622  72.648  1.00  0.00    -0.299 OA 
HETATM   13  C   UNL     1     -10.935   6.967  73.060  1.00  0.00    -0.292 C  
HETATM   14  H   UNL     1      -8.849   8.458  73.489  1.00  0.00     0.000 HD 
HETATM   15  H   UNL     1     -10.490   5.800  74.581  1.00  0.00     0.000 HD 
HETATM   16  O   UNL     1     -10.334   6.704  74.333  1.00  0.00    -0.357 OA 
HETATM   17  C   UNL     1     -10.421   6.016  71.958  1.00  0.00    -0.209 C  
BRANCH   7  18
HETATM   18  C   UNL     1     -11.068  10.112  70.801  1.00  0.00    -0.298 C  
HETATM   19  O   UNL     1      -9.806  10.153  70.140  1.00  0.00    -0.384 OA 
HETATM   20  H   UNL     1      -9.633  11.034  69.829  1.00  0.00     0.000 HD 
ENDBRANCH   7  18
ENDBRANCH   5   6
ENDBRANCH   4   5
BRANCH   4  21
HETATM   21  C   UNL     1      -9.309   6.654  67.911  1.00  0.00    -0.109 C  
HETATM   22  H   UNL     1     -10.593   7.408  66.583  1.00  0.00     0.000 HD 
HETATM   23  O   UNL     1     -10.622   6.844  67.347  1.00  0.00    -0.228 OA 
BRANCH  21  24
HETATM   24  C   UNL     1      -8.408   6.110  66.797  1.00  0.00    -0.110 C  
HETATM   25  H   UNL     1      -8.340   4.492  65.677  1.00  0.00     0.000 HD 
HETATM   26  C   UNL     1      -8.368   7.001  65.565  1.00  0.00    -0.133 C  
HETATM   27  O   UNL     1      -8.898   4.829  66.368  1.00  0.00    -0.112 OA 
HETATM   28  O   UNL     1      -9.141   7.926  65.339  1.00  0.00     0.005 OA 
ENDBRANCH  21  24
ENDBRANCH   4  21
ENDBRANCH   3   4
TORSDOF 6
ENDMDL
MODEL      313
REMARK 921   NORMALIZED FREE ENERGY PREDICTED BY IDOCK:   -1.45 KCAL/MOL
REMARK 922        TOTAL FREE ENERGY PREDICTED BY IDOCK:   -3.16 KCAL/MOL
REMARK 923 INTER-LIGAND FREE ENERGY PREDICTED BY IDOCK:   -4.69 KCAL/MOL
REMARK 924 INTRA-LIGAND FREE ENERGY PREDICTED BY IDOCK:    1.53 KCAL/MOL
REMARK 927      BINDING AFFINITY PREDICTED BY RF-SCORE:    0.00 PKD
ROOT
HETATM    1  O   UNL     1      -6.823  16.887  69.015  1.00  0.00    -0.200 OA 
HETATM    2  H   UNL     1      -6.320  17.551  68.557  1.00  0.00     0.000 HD 
HETATM    3  C   UNL     1      -7.408  15.921  68.156  1.00  0.00    -0.127 C  
ENDROOT
BRANCH   3   4
HETATM    4  C   UNL     1      -8.226  14.840  68.901  1.00  0.00    -0.165 C  
BRANCH   4   5
HETATM    5  O   UNL     1      -9.570  15.218  69.252  1.00  0.00    -0.227 OA 
BRANCH   5   6
HETATM    6  C   UNL     1     -10.433  15.468  68.145  1.00  0.00    -0.259 C  
HETATM    7  C   UNL     1     -11.470  14.434  66.241  1.00  0.00    -0.359 C  
HETATM    8  O   UNL     1     -10.567  14.276  67.351  1.00  0.00    -0.272 OA 
HETATM    9  H   UNL     1      -9.381  18.551  67.513  1.00  0.00     0.000 HD 
HETATM   10  C   UNL     1     -11.016  15.559  65.298  1.00  0.00    -0.380 C  
HETATM   11  O   UNL     1      -9.720  17.839  68.042  1.00  0.00    -0.282 OA 
HETATM   12  O   UNL     1      -9.753  15.299  64.668  1.00  0.00    -0.275 OA 
HETATM   13  C   UNL     1     -10.859  16.852  66.108  1.00  0.00     0.009 C  
HETATM   14  H   UNL     1      -9.472  15.995  64.084  1.00  0.00     0.000 HD 
HETATM   15  H   UNL     1     -10.354  18.719  65.745  1.00  0.00     0.000 HD 
HETATM   16  O   UNL     1     -10.450  17.917  65.243  1.00  0.00    -0.585 OA 
HETATM   17  C   UNL     1      -9.877  16.634  67.279  1.00  0.00    -0.255 C  
BRANCH   7  18
HETATM   18  C   UNL     1     -11.569  13.090  65.515  1.00  0.00    -0.347 C  
HETATM   19  O   UNL     1     -10.341  12.378  65.640  1.00  0.00    -0.248 OA 
HETATM   20  H   UNL     1     -10.403  11.544  65.190  1.00  0.00     0.000 HD 
ENDBRANCH   7  18
ENDBRANCH   5   6
ENDBRANCH   4   5
BRANCH   4  21
HETATM   21  C   UNL     1      -8.253  13.507  68.093  1.00  0.00    -0.162 C  
HETATM   22  H   UNL     1      -9.167  11.736  68.195  1.00  0.00     0.000 HD 
HETATM   23  O   UNL     1      -9.151  12.548  68.688  1.00  0.00    -0.097 OA 
BRANCH  21  24
HETATM   24  C   UNL     1      -6.877  12.840  67.992  1.00  0.00    -0.100 C  
HETATM   25  H   UNL     1      -5.697  11.812  69.186  1.00  0.00     0.000 HD 
HETATM   26  C   UNL     1      -6.812  11.746  66.937  1.00  0.00    -0.104 C  
HETATM   27  O   UNL     1      -6.549  12.225  69.249  1.00  0.00    -0.102 OA 
HETATM   28  O   UNL     1      -7.784  11.246  66.381  1.00  0.00    -0.148 OA 
ENDBRANCH  21  24
ENDBRANCH   4  21
ENDBRANCH   3   4
TORSDOF 6
ENDMDL
MODEL      314
REMARK 921   NORMALIZED FREE ENERGY PREDICTED BY IDOCK:   -1.24 KCAL/MOL
REMARK 922        TOTAL FREE ENERGY PREDICTED BY IDOCK:   -2.88 KCAL/MOL
REMARK 923 INTER-LIGAND FREE ENERGY PREDICTED BY IDOCK:   -2.54 KCAL/MOL
REMARK 924 INTRA-LIGAND FREE ENERGY PREDICTED BY IDOCK:   -0.34 KCAL/MOL
REMARK 927      BINDING AFFINITY PREDICTED BY RF-SCORE:    0.00 PKD
ROOT
HETATM    1  O   UNL     1      -7.040   8.842  69.562  1.00  0.00    -0.053 OA 
HETATM    2  H   UNL     1      -6.905   8.838  70.502  1.00  0.00     0.000 HD 
HETATM    3  C   UNL     1      -7.855   7.777  69.098  1.00  0.00    -0.114 C  
ENDROOT
BRANCH   3   4
HETATM    4  C   UNL     1      -8.075   7.782  67.567  1.00  0.00    -0.124 C  
BRANCH   4   5
HETATM    5  O   UNL     1      -8.157   6.483  66.953  1.00  0.00    -0.110 OA 
BRANCH   5   6
HETATM    6  C   UNL     1      -8.208   5.388  67.864  1.00  0.00    -0.099 C  
HETATM    7  C   UNL     1      -6.847   3.936  69.208  1.00  0.00    -0.045 C  
HETATM    8  O   UNL     1      -6.875   5.005  68.244  1.00  0.00    -0.053 OA 
HETATM    9  H   UNL     1     -10.739   3.797  66.421  1.00  0.00     0.000 HD 
HETATM   10  C   UNL     1      -7.546   2.676  68.677  1.00  0.00    -0.047 C  
HETATM   11  O   UNL     1     -10.284   4.532  66.815  1.00  0.00    -0.219 OA 
HETATM   12  O   UNL     1      -6.900   2.108  67.527  1.00  0.00    -0.038 OA 
HETATM   13  C   UNL     1      -8.975   3.042  68.257  1.00  0.00    -0.143 C  
HETATM   14  H   UNL     1      -7.333   1.328  67.198  1.00  0.00     0.000 HD 
HETATM   15  H   UNL     1     -10.535   2.102  67.511  1.00  0.00     0.000 HD 
HETATM   16  O   UNL     1      -9.650   1.875  67.771  1.00  0.00    -0.135 OA 
HETATM   17  C   UNL     1      -8.952   4.184  67.219  1.00  0.00    -0.128 C  
BRANCH   7  18
HETATM   18  C   UNL     1      -5.385   3.663  69.572  1.00  0.00    -0.012 C  
HETATM   19  O   UNL     1      -5.159   3.979  70.943  1.00  0.00     0.000 OA 
HETATM   20  H   UNL     1      -4.252   3.810  71.169  1.00  0.00     0.000 HD 
ENDBRANCH   7  18
ENDBRANCH   5   6
ENDBRANCH   4   5
BRANCH   4  21
HETATM   21  C   UNL     1      -9.334   8.619  67.189  1.00  0.00    -0.151 C  
HETATM   22  H   UNL     1     -11.119   8.306  66.351  1.00  0.00     0.000 HD 
HETATM   23  O   UNL     1     -10.351   7.796  66.582  1.00  0.00    -0.281 OA 
BRANCH  21  24
HETATM   24  C   UNL     1      -9.026   9.757  66.210  1.00  0.00    -0.153 C  
HETATM   25  H   UNL     1      -9.284  10.097  64.288  1.00  0.00     0.000 HD 
HETATM   26  C   UNL     1      -9.720  11.063  66.565  1.00  0.00    -0.198 C  
HETATM   27  O   UNL     1      -9.475   9.391  64.894  1.00  0.00    -0.229 OA 
HETATM   28  O   UNL     1     -10.628  11.179  67.382  1.00  0.00    -0.208 OA 
ENDBRANCH  21  24
ENDBRANCH   4  21
ENDBRANCH   3   4
TORSDOF 6
ENDMDL
MODEL      315
REMARK 921   NORMALIZED FREE ENERGY PREDICTED BY IDOCK:   -0.90 KCAL/MOL
REMARK 922        TOTAL FREE ENERGY PREDICTED BY IDOCK:   -2.41 KCAL/MOL
REMARK 923 INTER-LIGAND FREE ENERGY PREDICTED BY IDOCK:   -4.92 KCAL/MOL
REMARK 924 INTRA-LIGAND FREE ENERGY PREDICTED BY IDOCK:    2.51 KCAL/MOL
REMARK 927      BINDING AFFINITY PREDICTED BY RF-SCORE:    0.00 PKD
ROOT
HETATM    1  O   UNL     1      -8.630  12.771  68.457  1.00  0.00    -0.300 OA 
HETATM    2  H   UNL     1      -7.780  12.366  68.586  1.00  0.00     0.000 HD 
HETATM    3  C   UNL     1      -8.920  13.067  67.100  1.00  0.00    -0.223 C  
ENDROOT
BRANCH   3   4
HETATM    4  C   UNL     1     -10.303  13.727  66.889  1.00  0.00    -0.266 C  
BRANCH   4   5
HETATM    5  O   UNL     1     -10.312  14.872  66.019  1.00  0.00    -0.272 OA 
BRANCH   5   6
HETATM    6  C   UNL     1     -10.186  16.131  66.677  1.00  0.00    -0.287 C  
HETATM    7  C   UNL     1     -10.301  18.505  66.332  1.00  0.00    -0.423 C  
HETATM    8  O   UNL     1     -10.362  17.198  65.730  1.00  0.00    -0.504 OA 
HETATM    9  H   UNL     1      -7.727  15.253  68.727  1.00  0.00     0.000 HD 
HETATM   10  C   UNL     1      -8.957  18.741  67.035  1.00  0.00    -0.291 C  
HETATM   11  O   UNL     1      -8.577  15.185  68.308  1.00  0.00    -0.156 OA 
HETATM   12  O   UNL     1      -7.835  18.732  66.139  1.00  0.00    -0.325 OA 
HETATM   13  C   UNL     1      -8.727  17.620  68.056  1.00  0.00    -0.253 C  
HETATM   14  H   UNL     1      -7.003  18.879  66.574  1.00  0.00     0.000 HD 
HETATM   15  H   UNL     1      -7.341  17.136  69.367  1.00  0.00     0.000 HD 
HETATM   16  O   UNL     1      -7.483  17.830  68.734  1.00  0.00    -0.265 OA 
HETATM   17  C   UNL     1      -8.794  16.242  67.362  1.00  0.00    -0.186 C  
BRANCH   7  18
HETATM   18  C   UNL     1     -10.560  19.544  65.238  1.00  0.00     0.256 C  
HETATM   19  O   UNL     1     -10.742  20.830  65.824  1.00  0.00     0.210 OA 
HETATM   20  H   UNL     1     -10.903  21.475  65.145  1.00  0.00     0.000 HD 
ENDBRANCH   7  18
ENDBRANCH   5   6
ENDBRANCH   4   5
BRANCH   4  21
HETATM   21  C   UNL     1     -11.346  12.682  66.390  1.00  0.00    -0.331 C  
HETATM   22  H   UNL     1     -13.227  12.676  65.720  1.00  0.00     0.000 HD 
HETATM   23  O   UNL     1     -12.590  13.313  66.024  1.00  0.00    -0.371 OA 
BRANCH  21  24
HETATM   24  C   UNL     1     -11.670  11.610  67.436  1.00  0.00    -0.201 C  
HETATM   25  H   UNL     1     -10.732  10.087  68.257  1.00  0.00     0.000 HD 
HETATM   26  C   UNL     1     -12.002  12.183  68.805  1.00  0.00    -0.239 C  
HETATM   27  O   UNL     1     -10.531  10.751  67.609  1.00  0.00    -0.190 OA 
HETATM   28  O   UNL     1     -11.804  13.343  69.150  1.00  0.00    -0.301 OA 
ENDBRANCH  21  24
ENDBRANCH   4  21
ENDBRANCH   3   4
TORSDOF 6
ENDMDL
MODEL      316
REMARK 921   NORMALIZED FREE ENERGY PREDICTED BY IDOCK:   -0.85 KCAL/MOL
REMARK 922        TOTAL FREE ENERGY PREDICTED BY IDOCK:   -2.35 KCAL/MOL
REMARK 923 INTER-LIGAND FREE ENERGY PREDICTED BY IDOCK:   -4.29 KCAL/MOL
REMARK 924 INTRA-LIGAND FREE ENERGY PREDICTED BY IDOCK:    1.94 KCAL/MOL
REMARK 927      BINDING AFFINITY PREDICTED BY RF-SCORE:    0.00 PKD
ROOT
HETATM    1  O   UNL     1      -8.846  15.296  65.936  1.00  0.00    -0.436 OA 
HETATM    2  H   UNL     1      -9.601  15.390  65.366  1.00  0.00     0.000 HD 
HETATM    3  C   UNL     1      -8.702  13.994  66.482  1.00  0.00     0.079 C  
ENDROOT
BRANCH   3   4
HETATM    4  C   UNL     1      -7.473  13.841  67.409  1.00  0.00    -0.125 C  
BRANCH   4   5
HETATM    5  O   UNL     1      -7.004  15.059  68.016  1.00  0.00    -0.110 OA 
BRANCH   5   6
HETATM    6  C   UNL     1      -8.017  15.858  68.624  1.00  0.00    -0.156 C  
HETATM    7  C   UNL     1     -10.154  15.754  69.716  1.00  0.00    -0.276 C  
HETATM    8  O   UNL     1      -9.111  15.024  69.043  1.00  0.00    -0.200 OA 
HETATM    9  H   UNL     1      -7.753  18.452  66.571  1.00  0.00     0.000 HD 
HETATM   10  C   UNL     1     -10.741  16.856  68.822  1.00  0.00    -0.333 C  
HETATM   11  O   UNL     1      -7.449  17.789  67.179  1.00  0.00    -0.186 OA 
HETATM   12  O   UNL     1     -11.392  16.350  67.647  1.00  0.00    -0.145 OA 
HETATM   13  C   UNL     1      -9.603  17.770  68.350  1.00  0.00    -0.323 C  
HETATM   14  H   UNL     1     -11.755  17.032  67.093  1.00  0.00     0.000 HD 
HETATM   15  H   UNL     1      -9.427  19.381  67.233  1.00  0.00     0.000 HD 
HETATM   16  O   UNL     1     -10.132  18.815  67.525  1.00  0.00    -0.326 OA 
HETATM   17  C   UNL     1      -8.517  16.943  67.628  1.00  0.00    -0.200 C  
BRANCH   7  18
HETATM   18  C   UNL     1     -11.224  14.753  70.161  1.00  0.00    -0.214 C  
HETATM   19  O   UNL     1     -11.318  14.743  71.583  1.00  0.00    -0.522 OA 
HETATM   20  H   UNL     1     -11.982  14.123  71.858  1.00  0.00     0.000 HD 
ENDBRANCH   7  18
ENDBRANCH   5   6
ENDBRANCH   4   5
BRANCH   4  21
HETATM   21  C   UNL     1      -7.740  12.775  68.514  1.00  0.00    -0.113 C  
HETATM   22  H   UNL     1      -6.759  11.965  70.053  1.00  0.00     0.000 HD 
HETATM   23  O   UNL     1      -6.597  12.615  69.379  1.00  0.00    -0.111 OA 
BRANCH  21  24
HETATM   24  C   UNL     1      -8.078  11.393  67.946  1.00  0.00    -0.126 C  
HETATM   25  H   UNL     1      -7.566   9.530  68.323  1.00  0.00     0.000 HD 
HETATM   26  C   UNL     1      -9.553  11.041  68.051  1.00  0.00    -0.170 C  
HETATM   27  O   UNL     1      -7.356  10.386  68.675  1.00  0.00    -0.078 OA 
HETATM   28  O   UNL     1     -10.376  11.648  68.728  1.00  0.00    -0.214 OA 
ENDBRANCH  21  24
ENDBRANCH   4  21
ENDBRANCH   3   4
TORSDOF 6
ENDMDL
MODEL      317
REMARK 921   NORMALIZED FREE ENERGY PREDICTED BY IDOCK:   -0.29 KCAL/MOL
REMARK 922        TOTAL FREE ENERGY PREDICTED BY IDOCK:   -1.60 KCAL/MOL
REMARK 923 INTER-LIGAND FREE ENERGY PREDICTED BY IDOCK:   -3.98 KCAL/MOL
REMARK 924 INTRA-LIGAND FREE ENERGY PREDICTED BY IDOCK:    2.38 KCAL/MOL
REMARK 927      BINDING AFFINITY PREDICTED BY RF-SCORE:    0.00 PKD
ROOT
HETATM    1  O   UNL     1      -7.327   8.799  72.623  1.00  0.00    -0.336 OA 
HETATM    2  H   UNL     1      -6.387   8.667  72.573  1.00  0.00     0.000 HD 
HETATM    3  C   UNL     1      -8.078   7.830  71.908  1.00  0.00    -0.104 C  
ENDROOT
BRANCH   3   4
HETATM    4  C   UNL     1      -9.608   8.045  71.990  1.00  0.00    -0.201 C  
BRANCH   4   5
HETATM    5  O   UNL     1     -10.093   9.258  71.386  1.00  0.00    -0.314 OA 
BRANCH   5   6
HETATM    6  C   UNL     1      -9.892   9.352  69.978  1.00  0.00    -0.221 C  
HETATM    7  C   UNL     1     -10.305   8.229  67.895  1.00  0.00    -0.219 C  
HETATM    8  O   UNL     1     -10.423   8.183  69.330  1.00  0.00    -0.220 OA 
HETATM    9  H   UNL     1      -6.885  10.752  70.103  1.00  0.00     0.000 HD 
HETATM   10  C   UNL     1      -8.841   8.369  67.452  1.00  0.00    -0.134 C  
HETATM   11  O   UNL     1      -7.810  10.658  70.298  1.00  0.00     0.084 OA 
HETATM   12  O   UNL     1      -8.025   7.246  67.819  1.00  0.00    -0.111 OA 
HETATM   13  C   UNL     1      -8.235   9.607  68.124  1.00  0.00    -0.106 C  
HETATM   14  H   UNL     1      -7.119   7.332  67.544  1.00  0.00     0.000 HD 
HETATM   15  H   UNL     1      -6.497  10.529  68.128  1.00  0.00     0.000 HD 
HETATM   16  O   UNL     1      -6.872   9.762  67.712  1.00  0.00    -0.078 OA 
HETATM   17  C   UNL     1      -8.378   9.506  69.658  1.00  0.00    -0.152 C  
BRANCH   7  18
HETATM   18  C   UNL     1     -10.954   6.965  67.325  1.00  0.00    -0.336 C  
HETATM   19  O   UNL     1     -10.612   5.839  68.129  1.00  0.00    -0.218 OA 
HETATM   20  H   UNL     1     -11.015   5.055  67.775  1.00  0.00     0.000 HD 
ENDBRANCH   7  18
ENDBRANCH   5   6
ENDBRANCH   4   5
BRANCH   4  21
HETATM   21  C   UNL     1     -10.373   6.824  71.396  1.00  0.00    -0.202 C  
HETATM   22  H   UNL     1     -12.261   6.196  71.243  1.00  0.00     0.000 HD 
HETATM   23  O   UNL     1     -11.795   6.940  71.605  1.00  0.00    -0.287 OA 
BRANCH  21  24
HETATM   24  C   UNL     1      -9.932   5.487  72.002  1.00  0.00    -0.181 C  
HETATM   25  H   UNL     1      -8.280   4.419  72.054  1.00  0.00     0.000 HD 
HETATM   26  C   UNL     1     -10.043   5.445  73.518  1.00  0.00    -0.187 C  
HETATM   27  O   UNL     1      -8.552   5.247  71.679  1.00  0.00    -0.130 OA 
HETATM   28  O   UNL     1     -10.220   6.422  74.238  1.00  0.00    -0.321 OA 
ENDBRANCH  21  24
ENDBRANCH   4  21
ENDBRANCH   3   4
TORSDOF 6
ENDMDL
MODEL      318
REMARK 921   NORMALIZED FREE ENERGY PREDICTED BY IDOCK:   -0.07 KCAL/MOL
REMARK 922        TOTAL FREE ENERGY PREDICTED BY IDOCK:   -1.30 KCAL/MOL
REMARK 923 INTER-LIGAND FREE ENERGY PREDICTED BY IDOCK:   -2.63 KCAL/MOL
REMARK 924 INTRA-LIGAND FREE ENERGY PREDICTED BY IDOCK:    1.33 KCAL/MOL
REMARK 927      BINDING AFFINITY PREDICTED BY RF-SCORE:    0.00 PKD
ROOT
HETATM    1  O   UNL     1      -9.930   7.151  65.917  1.00  0.00    -0.305 OA 
HETATM    2  H   UNL     1     -10.772   7.426  65.572  1.00  0.00     0.000 HD 
HETATM    3  C   UNL     1      -9.682   7.599  67.241  1.00  0.00    -0.169 C  
ENDROOT
BRANCH   3   4
HETATM    4  C   UNL     1      -8.312   7.152  67.802  1.00  0.00    -0.118 C  
BRANCH   4   5
HETATM    5  O   UNL     1      -7.787   7.968  68.865  1.00  0.00    -0.109 OA 
BRANCH   5   6
HETATM    6  C   UNL     1      -7.598   9.341  68.533  1.00  0.00    -0.085 C  
HETATM    7  C   UNL     1      -8.767  11.392  68.089  1.00  0.00    -0.154 C  
HETATM    8  O   UNL     1      -8.874   9.985  68.374  1.00  0.00    -0.115 OA 
HETATM    9  H   UNL     1      -4.972   8.908  66.549  1.00  0.00     0.000 HD 
HETATM   10  C   UNL     1      -7.965  11.650  66.804  1.00  0.00    -0.140 C  
HETATM   11  O   UNL     1      -5.484   8.829  67.346  1.00  0.00    -0.037 OA 
HETATM   12  O   UNL     1      -8.589  11.117  65.626  1.00  0.00    -0.279 OA 
HETATM   13  C   UNL     1      -6.593  10.976  66.932  1.00  0.00    -0.112 C  
HETATM   14  H   UNL     1      -8.093  11.277  64.831  1.00  0.00     0.000 HD 
HETATM   15  H   UNL     1      -4.974  10.801  65.828  1.00  0.00     0.000 HD 
HETATM   16  O   UNL     1      -5.824  11.217  65.748  1.00  0.00    -0.107 OA 
HETATM   17  C   UNL     1      -6.762   9.471  67.228  1.00  0.00    -0.072 C  
BRANCH   7  18
HETATM   18  C   UNL     1     -10.182  11.969  68.001  1.00  0.00    -0.198 C  
HETATM   19  O   UNL     1     -11.122  11.028  68.512  1.00  0.00    -0.203 OA 
HETATM   20  H   UNL     1     -12.000  11.386  68.458  1.00  0.00     0.000 HD 
ENDBRANCH   7  18
ENDBRANCH   5   6
ENDBRANCH   4   5
BRANCH   4  21
HETATM   21  C   UNL     1      -8.358   5.663  68.261  1.00  0.00    -0.102 C  
HETATM   22  H   UNL     1      -9.349   4.558  69.595  1.00  0.00     0.000 HD 
HETATM   23  O   UNL     1      -9.322   5.466  69.315  1.00  0.00    -0.113 OA 
BRANCH  21  24
HETATM   24  C   UNL     1      -7.009   5.152  68.776  1.00  0.00    -0.053 C  
HETATM   25  H   UNL     1      -5.119   5.672  68.590  1.00  0.00     0.000 HD 
HETATM   26  C   UNL     1      -6.895   5.169  70.292  1.00  0.00    -0.044 C  
HETATM   27  O   UNL     1      -5.955   5.989  68.271  1.00  0.00    -0.018 OA 
HETATM   28  O   UNL     1      -7.667   5.748  71.050  1.00  0.00    -0.096 OA 
ENDBRANCH  21  24
ENDBRANCH   4  21
ENDBRANCH   3   4
TORSDOF 6
ENDMDL
MODEL      319
REMARK 921   NORMALIZED FREE ENERGY PREDICTED BY IDOCK:    5.35 KCAL/MOL
REMARK 922        TOTAL FREE ENERGY PREDICTED BY IDOCK:    6.03 KCAL/MOL
REMARK 923 INTER-LIGAND FREE ENERGY PREDICTED BY IDOCK:    5.39 KCAL/MOL
REMARK 924 INTRA-LIGAND FREE ENERGY PREDICTED BY IDOCK:    0.64 KCAL/MOL
REMARK 927      BINDING AFFINITY PREDICTED BY RF-SCORE:    0.00 PKD
ROOT
HETATM    1  O   UNL     1      -7.482  15.061  71.808  1.00  0.00     1.766 OA 
HETATM    2  H   UNL     1      -6.697  14.959  72.333  1.00  0.00     0.000 HD 
HETATM    3  C   UNL     1      -7.463  16.205  70.969  1.00  0.00     3.543 C  
ENDROOT
BRANCH   3   4
HETATM    4  C   UNL     1      -8.741  16.371  70.113  1.00  0.00     1.583 C  
BRANCH   4   5
HETATM    5  O   UNL     1      -8.537  16.338  68.689  1.00  0.00    -0.199 OA 
BRANCH   5   6
HETATM    6  C   UNL     1      -7.436  17.114  68.220  1.00  0.00    -0.217 C  
HETATM    7  C   UNL     1      -6.198  19.134  68.616  1.00  0.00    -0.229 C  
HETATM    8  O   UNL     1      -7.323  18.319  68.996  1.00  0.00    -0.272 OA 
HETATM    9  H   UNL     1      -7.862  16.485  64.989  1.00  0.00     0.000 HD 
HETATM   10  C   UNL     1      -6.273  19.550  67.140  1.00  0.00    -0.185 C  
HETATM   11  O   UNL     1      -7.749  16.276  65.909  1.00  0.00     0.188 OA 
HETATM   12  O   UNL     1      -7.405  20.382  66.840  1.00  0.00    -0.276 OA 
HETATM   13  C   UNL     1      -6.398  18.289  66.275  1.00  0.00    -0.204 C  
HETATM   14  H   UNL     1      -7.452  20.639  65.926  1.00  0.00     0.000 HD 
HETATM   15  H   UNL     1      -6.532  17.876  64.355  1.00  0.00     0.000 HD 
HETATM   16  O   UNL     1      -6.455  18.656  64.891  1.00  0.00    -0.494 OA 
HETATM   17  C   UNL     1      -7.621  17.457  66.715  1.00  0.00    -0.228 C  
BRANCH   7  18
HETATM   18  C   UNL     1      -6.154  20.348  69.548  1.00  0.00    -0.320 C  
HETATM   19  O   UNL     1      -5.270  21.333  69.019  1.00  0.00    -0.447 OA 
HETATM   20  H   UNL     1      -5.242  22.086  69.597  1.00  0.00     0.000 HD 
ENDBRANCH   7  18
ENDBRANCH   5   6
ENDBRANCH   4   5
BRANCH   4  21
HETATM   21  C   UNL     1      -9.817  15.316  70.511  1.00  0.00     0.537 C  
HETATM   22  H   UNL     1     -10.072  13.341  70.373  1.00  0.00     0.000 HD 
HETATM   23  O   UNL     1      -9.415  13.984  70.131  1.00  0.00     1.448 OA 
BRANCH  21  24
HETATM   24  C   UNL     1     -11.183  15.580  69.868  1.00  0.00    -0.316 C  
HETATM   25  H   UNL     1     -12.225  17.160  69.327  1.00  0.00     0.000 HD 
HETATM   26  C   UNL     1     -11.325  14.974  68.481  1.00  0.00    -0.303 C  
HETATM   27  O   UNL     1     -11.379  16.997  69.725  1.00  0.00     0.249 OA 
HETATM   28  O   UNL     1     -10.400  14.532  67.807  1.00  0.00    -0.235 OA 
ENDBRANCH  21  24
ENDBRANCH   4  21
ENDBRANCH   3   4
TORSDOF 6
ENDMDL
