MODEL        1
REMARK 921   NORMALIZED FREE ENERGY PREDICTED BY IDOCK:   -7.82 KCAL/MOL
REMARK 922        TOTAL FREE ENERGY PREDICTED BY IDOCK:  -13.10 KCAL/MOL
REMARK 923 INTER-LIGAND FREE ENERGY PREDICTED BY IDOCK:  -11.47 KCAL/MOL
REMARK 924 INTRA-LIGAND FREE ENERGY PREDICTED BY IDOCK:   -1.63 KCAL/MOL
REMARK 927      BINDING AFFINITY PREDICTED BY RF-SCORE:    0.00 PKD
ROOT
HETATM    1  C   UNL     1     -13.689   8.971  71.808  1.00  0.00    -0.419 C  
HETATM    2  O   UNL     1     -12.512   9.610  71.317  1.00  0.00    -0.316 OA 
ENDROOT
BRANCH   2   3
HETATM    3  C   UNL     1     -12.630  10.951  71.055  1.00  0.00    -0.417 A  
HETATM    4  C   UNL     1     -12.326  11.410  69.772  1.00  0.00    -0.184 A  
HETATM    5  N   UNL     1     -13.467  14.033  72.775  1.00  0.00    -0.663 NA 
HETATM    6  C   UNL     1     -12.278  12.787  69.532  1.00  0.00    -0.161 A  
HETATM    7  C   UNL     1     -13.060  13.242  71.779  1.00  0.00    -0.379 A  
HETATM    8  C   UNL     1     -12.637  13.729  70.537  1.00  0.00    -0.361 A  
HETATM    9  C   UNL     1     -13.040  11.878  72.020  1.00  0.00    -0.441 A  
HETATM   10  C   UNL     1     -12.605  15.135  70.420  1.00  0.00    -0.359 A  
HETATM   11  N   UNL     1     -13.027  15.934  71.421  1.00  0.00    -0.407 NA 
HETATM   12  C   UNL     1     -13.442  15.343  72.541  1.00  0.00    -0.504 A  
BRANCH   4  13
HETATM   13  O   UNL     1     -11.994  10.632  68.693  1.00  0.00    -0.401 OA 
BRANCH  13  14
HETATM   14  C   UNL     1     -10.624  10.708  68.259  1.00  0.00    -0.194 C  
BRANCH  14  15
HETATM   15  C   UNL     1     -10.626  10.585  66.736  1.00  0.00    -0.284 C  
BRANCH  15  16
HETATM   16  C   UNL     1     -10.790  11.914  65.990  1.00  0.00    -0.299 C  
BRANCH  16  17
HETATM   17  N   UNL     1     -12.170  12.389  65.808  1.00  0.00    -0.638 NA 
HETATM   18  C   UNL     1     -12.652  12.104  64.433  1.00  0.00    -0.280 C  
HETATM   19  C   UNL     1     -12.038  13.023  63.361  1.00  0.00    -0.515 C  
HETATM   20  C   UNL     1     -12.355  13.837  66.053  1.00  0.00    -0.457 C  
HETATM   21  C   UNL     1     -11.813  14.758  64.945  1.00  0.00    -0.377 C  
HETATM   22  O   UNL     1     -12.313  14.398  63.651  1.00  0.00    -0.722 OA 
ENDBRANCH  16  17
ENDBRANCH  15  16
ENDBRANCH  14  15
ENDBRANCH  13  14
ENDBRANCH   4  13
BRANCH  10  23
HETATM   23  N   UNL     1     -12.041  15.737  69.265  1.00  0.00    -0.512 NA 
HETATM   24  H   UNL     1     -12.679  15.841  68.476  1.00  0.00     0.000 HD 
BRANCH  23  25
HETATM   25  C   UNL     1     -10.730  16.216  69.041  1.00  0.00    -0.287 A  
HETATM   26 CL   UNL     1      -9.091  19.161  66.855  1.00  0.00    -0.319 Cl 
HETATM   27  C   UNL     1      -8.147  17.108  68.348  1.00  0.00    -0.255 A  
HETATM   28  C   UNL     1      -9.267  17.785  67.878  1.00  0.00    -0.265 A  
HETATM   29  C   UNL     1      -8.296  15.998  69.164  1.00  0.00    -0.244 A  
HETATM   30  F   UNL     1      -6.909  17.500  68.009  1.00  0.00    -0.172 F  
HETATM   31  C   UNL     1      -9.580  15.554  69.499  1.00  0.00    -0.278 A  
HETATM   32  C   UNL     1     -10.549  17.343  68.219  1.00  0.00    -0.366 A  
ENDBRANCH  23  25
ENDBRANCH  10  23
ENDBRANCH   2   3
TORSDOF 8
ENDMDL
MODEL        2
REMARK 921   NORMALIZED FREE ENERGY PREDICTED BY IDOCK:   -7.15 KCAL/MOL
REMARK 922        TOTAL FREE ENERGY PREDICTED BY IDOCK:  -12.12 KCAL/MOL
REMARK 923 INTER-LIGAND FREE ENERGY PREDICTED BY IDOCK:  -11.02 KCAL/MOL
REMARK 924 INTRA-LIGAND FREE ENERGY PREDICTED BY IDOCK:   -1.10 KCAL/MOL
REMARK 927      BINDING AFFINITY PREDICTED BY RF-SCORE:    0.00 PKD
ROOT
HETATM    1  C   UNL     1     -12.689  15.864  73.876  1.00  0.00    -0.600 C  
HETATM    2  O   UNL     1     -12.922  14.682  73.113  1.00  0.00    -0.490 OA 
ENDROOT
BRANCH   2   3
HETATM    3  C   UNL     1     -12.426  14.693  71.836  1.00  0.00    -0.341 A  
HETATM    4  C   UNL     1     -12.509  13.525  71.076  1.00  0.00    -0.369 A  
HETATM    5  N   UNL     1     -10.710  16.942  69.565  1.00  0.00    -0.293 NA 
HETATM    6  C   UNL     1     -11.860  13.466  69.838  1.00  0.00    -0.385 A  
HETATM    7  C   UNL     1     -11.245  15.802  70.010  1.00  0.00    -0.342 A  
HETATM    8  C   UNL     1     -11.208  14.604  69.287  1.00  0.00    -0.306 A  
HETATM    9  C   UNL     1     -11.836  15.825  71.263  1.00  0.00    -0.491 A  
HETATM   10  C   UNL     1     -10.504  14.660  68.065  1.00  0.00    -0.236 A  
HETATM   11  N   UNL     1      -9.974  15.813  67.609  1.00  0.00    -0.237 NA 
HETATM   12  C   UNL     1     -10.111  16.894  68.378  1.00  0.00    -0.304 A  
BRANCH   4  13
HETATM   13  O   UNL     1     -13.128  12.360  71.451  1.00  0.00    -0.334 OA 
BRANCH  13  14
HETATM   14  C   UNL     1     -12.437  11.143  71.114  1.00  0.00    -0.393 C  
BRANCH  14  15
HETATM   15  C   UNL     1     -13.367   9.984  71.470  1.00  0.00    -0.451 C  
BRANCH  15  16
HETATM   16  C   UNL     1     -12.683   8.822  72.202  1.00  0.00    -0.400 C  
BRANCH  16  17
HETATM   17  N   UNL     1     -11.442   8.317  71.595  1.00  0.00    -0.264 NA 
HETATM   18  C   UNL     1     -11.592   6.897  71.186  1.00  0.00    -0.319 C  
HETATM   19  C   UNL     1     -11.591   5.911  72.367  1.00  0.00    -0.288 C  
HETATM   20  C   UNL     1     -10.254   8.403  72.474  1.00  0.00    -0.299 C  
HETATM   21  C   UNL     1     -10.210   7.365  73.611  1.00  0.00    -0.329 C  
HETATM   22  O   UNL     1     -10.383   6.027  73.128  1.00  0.00    -0.190 OA 
ENDBRANCH  16  17
ENDBRANCH  15  16
ENDBRANCH  14  15
ENDBRANCH  13  14
ENDBRANCH   4  13
BRANCH  10  23
HETATM   23  N   UNL     1     -10.266  13.469  67.330  1.00  0.00    -0.240 NA 
HETATM   24  H   UNL     1      -9.477  12.911  67.655  1.00  0.00     0.000 HD 
BRANCH  23  25
HETATM   25  C   UNL     1     -10.957  12.937  66.216  1.00  0.00    -0.281 A  
HETATM   26 CL   UNL     1      -9.968  10.682  63.044  1.00  0.00    -0.320 Cl 
HETATM   27  C   UNL     1     -12.181  12.019  63.849  1.00  0.00    -0.453 A  
HETATM   28  C   UNL     1     -10.867  11.665  64.136  1.00  0.00    -0.372 A  
HETATM   29  C   UNL     1     -12.895  12.816  64.729  1.00  0.00    -0.374 A  
HETATM   30  F   UNL     1     -12.774  11.614  62.715  1.00  0.00    -0.525 F  
HETATM   31  C   UNL     1     -12.282  13.277  65.899  1.00  0.00    -0.497 A  
HETATM   32  C   UNL     1     -10.257  12.122  65.310  1.00  0.00    -0.304 A  
ENDBRANCH  23  25
ENDBRANCH  10  23
ENDBRANCH   2   3
TORSDOF 8
ENDMDL
MODEL        3
REMARK 921   NORMALIZED FREE ENERGY PREDICTED BY IDOCK:   -7.09 KCAL/MOL
REMARK 922        TOTAL FREE ENERGY PREDICTED BY IDOCK:  -12.04 KCAL/MOL
REMARK 923 INTER-LIGAND FREE ENERGY PREDICTED BY IDOCK:  -11.31 KCAL/MOL
REMARK 924 INTRA-LIGAND FREE ENERGY PREDICTED BY IDOCK:   -0.73 KCAL/MOL
REMARK 927      BINDING AFFINITY PREDICTED BY RF-SCORE:    0.00 PKD
ROOT
HETATM    1  C   UNL     1     -13.603  15.834  73.102  1.00  0.00    -0.504 C  
HETATM    2  O   UNL     1     -14.110  15.178  71.941  1.00  0.00    -0.448 OA 
ENDROOT
BRANCH   2   3
HETATM    3  C   UNL     1     -13.315  14.187  71.426  1.00  0.00    -0.331 A  
HETATM    4  C   UNL     1     -12.377  14.523  70.449  1.00  0.00    -0.338 A  
HETATM    5  N   UNL     1     -12.845  10.602  71.715  1.00  0.00    -0.458 NA 
HETATM    6  C   UNL     1     -11.678  13.504  69.793  1.00  0.00    -0.363 A  
HETATM    7  C   UNL     1     -12.674  11.839  71.243  1.00  0.00    -0.316 A  
HETATM    8  C   UNL     1     -11.821  12.141  70.174  1.00  0.00    -0.368 A  
HETATM    9  C   UNL     1     -13.407  12.853  71.838  1.00  0.00    -0.530 A  
HETATM   10  C   UNL     1     -11.190  11.030  69.575  1.00  0.00    -0.279 A  
HETATM   11  N   UNL     1     -11.353   9.782  70.060  1.00  0.00    -0.239 NA 
HETATM   12  C   UNL     1     -12.164   9.634  71.107  1.00  0.00    -0.350 A  
BRANCH   4  13
HETATM   13  O   UNL     1     -12.099  15.787  69.996  1.00  0.00    -0.365 OA 
BRANCH  13  14
HETATM   14  C   UNL     1     -11.814  15.904  68.590  1.00  0.00    -0.234 C  
BRANCH  14  15
HETATM   15  C   UNL     1     -10.607  16.832  68.451  1.00  0.00    -0.354 C  
BRANCH  15  16
HETATM   16  C   UNL     1     -10.583  17.654  67.157  1.00  0.00    -0.276 C  
BRANCH  16  17
HETATM   17  N   UNL     1     -10.721  19.110  67.313  1.00  0.00    -0.482 NA 
HETATM   18  C   UNL     1     -10.161  19.825  66.138  1.00  0.00    -0.499 C  
HETATM   19  C   UNL     1      -8.622  19.826  66.093  1.00  0.00    -0.338 C  
HETATM   20  C   UNL     1     -10.066  19.659  68.521  1.00  0.00    -0.453 C  
HETATM   21  C   UNL     1      -8.530  19.737  68.449  1.00  0.00    -0.254 C  
HETATM   22  O   UNL     1      -8.078  20.423  67.275  1.00  0.00    -0.327 OA 
ENDBRANCH  16  17
ENDBRANCH  15  16
ENDBRANCH  14  15
ENDBRANCH  13  14
ENDBRANCH   4  13
BRANCH  10  23
HETATM   23  N   UNL     1     -10.433  11.201  68.386  1.00  0.00    -0.180 NA 
HETATM   24  H   UNL     1      -9.422  11.138  68.506  1.00  0.00     0.000 HD 
BRANCH  23  25
HETATM   25  C   UNL     1     -10.866  11.445  67.063  1.00  0.00    -0.282 A  
HETATM   26 CL   UNL     1      -9.627  10.361  63.399  1.00  0.00    -0.358 Cl 
HETATM   27  C   UNL     1     -11.506  12.045  64.384  1.00  0.00    -0.343 A  
HETATM   28  C   UNL     1     -10.502  11.126  64.671  1.00  0.00    -0.335 A  
HETATM   29  C   UNL     1     -12.200  12.662  65.412  1.00  0.00    -0.517 A  
HETATM   30  F   UNL     1     -11.809  12.364  63.116  1.00  0.00    -0.495 F  
HETATM   31  C   UNL     1     -11.874  12.367  66.741  1.00  0.00    -0.385 A  
HETATM   32  C   UNL     1     -10.182  10.828  66.000  1.00  0.00    -0.310 A  
ENDBRANCH  23  25
ENDBRANCH  10  23
ENDBRANCH   2   3
TORSDOF 8
ENDMDL
MODEL        4
REMARK 921   NORMALIZED FREE ENERGY PREDICTED BY IDOCK:   -7.09 KCAL/MOL
REMARK 922        TOTAL FREE ENERGY PREDICTED BY IDOCK:  -12.03 KCAL/MOL
REMARK 923 INTER-LIGAND FREE ENERGY PREDICTED BY IDOCK:  -11.08 KCAL/MOL
REMARK 924 INTRA-LIGAND FREE ENERGY PREDICTED BY IDOCK:   -0.95 KCAL/MOL
REMARK 927      BINDING AFFINITY PREDICTED BY RF-SCORE:    0.00 PKD
ROOT
HETATM    1  C   UNL     1     -13.101  16.018  73.742  1.00  0.00    -0.409 C  
HETATM    2  O   UNL     1     -13.758  15.554  72.565  1.00  0.00    -0.490 OA 
ENDROOT
BRANCH   2   3
HETATM    3  C   UNL     1     -13.119  14.550  71.885  1.00  0.00    -0.350 A  
HETATM    4  C   UNL     1     -12.197  14.894  70.896  1.00  0.00    -0.326 A  
HETATM    5  N   UNL     1     -13.082  10.927  71.715  1.00  0.00    -0.480 NA 
HETATM    6  C   UNL     1     -11.662  13.892  70.079  1.00  0.00    -0.338 A  
HETATM    7  C   UNL     1     -12.783  12.185  71.383  1.00  0.00    -0.263 A  
HETATM    8  C   UNL     1     -11.954  12.517  70.305  1.00  0.00    -0.364 A  
HETATM    9  C   UNL     1     -13.355  13.194  72.140  1.00  0.00    -0.621 A  
HETATM   10  C   UNL     1     -11.495  11.424  69.538  1.00  0.00    -0.312 A  
HETATM   11  N   UNL     1     -11.787  10.153  69.880  1.00  0.00    -0.182 NA 
HETATM   12  C   UNL     1     -12.557   9.970  70.953  1.00  0.00    -0.332 A  
BRANCH   4  13
HETATM   13  O   UNL     1     -11.788  16.164  70.579  1.00  0.00    -0.330 OA 
BRANCH  13  14
HETATM   14  C   UNL     1     -11.236  16.338  69.262  1.00  0.00    -0.312 C  
BRANCH  14  15
HETATM   15  C   UNL     1     -10.273  17.524  69.330  1.00  0.00    -0.180 C  
BRANCH  15  16
HETATM   16  C   UNL     1      -9.040  17.394  68.427  1.00  0.00    -0.274 C  
BRANCH  16  17
HETATM   17  N   UNL     1      -9.301  17.346  66.980  1.00  0.00    -0.253 NA 
HETATM   18  C   UNL     1      -8.103  16.869  66.241  1.00  0.00    -0.316 C  
HETATM   19  C   UNL     1      -6.977  17.914  66.153  1.00  0.00    -0.301 C  
HETATM   20  C   UNL     1      -9.701  18.641  66.388  1.00  0.00    -0.345 C  
HETATM   21  C   UNL     1      -8.560  19.662  66.224  1.00  0.00    -0.366 C  
HETATM   22  O   UNL     1      -7.440  19.111  65.520  1.00  0.00    -0.462 OA 
ENDBRANCH  16  17
ENDBRANCH  15  16
ENDBRANCH  14  15
ENDBRANCH  13  14
ENDBRANCH   4  13
BRANCH  10  23
HETATM   23  N   UNL     1     -10.783  11.655  68.332  1.00  0.00    -0.206 NA 
HETATM   24  H   UNL     1      -9.779  11.486  68.384  1.00  0.00     0.000 HD 
BRANCH  23  25
HETATM   25  C   UNL     1     -11.254  12.081  67.069  1.00  0.00    -0.320 A  
HETATM   26 CL   UNL     1     -10.348  11.251  63.245  1.00  0.00    -0.416 Cl 
HETATM   27  C   UNL     1     -11.958  13.025  64.507  1.00  0.00    -0.394 A  
HETATM   28  C   UNL     1     -11.057  11.974  64.639  1.00  0.00    -0.322 A  
HETATM   29  C   UNL     1     -12.519  13.606  65.633  1.00  0.00    -0.540 A  
HETATM   30  F   UNL     1     -12.287  13.506  63.299  1.00  0.00    -0.578 F  
HETATM   31  C   UNL     1     -12.161  13.141  66.903  1.00  0.00    -0.377 A  
HETATM   32  C   UNL     1     -10.705  11.506  65.910  1.00  0.00    -0.325 A  
ENDBRANCH  23  25
ENDBRANCH  10  23
ENDBRANCH   2   3
TORSDOF 8
ENDMDL
MODEL        5
REMARK 921   NORMALIZED FREE ENERGY PREDICTED BY IDOCK:   -7.03 KCAL/MOL
REMARK 922        TOTAL FREE ENERGY PREDICTED BY IDOCK:  -11.94 KCAL/MOL
REMARK 923 INTER-LIGAND FREE ENERGY PREDICTED BY IDOCK:  -10.66 KCAL/MOL
REMARK 924 INTRA-LIGAND FREE ENERGY PREDICTED BY IDOCK:   -1.28 KCAL/MOL
REMARK 927      BINDING AFFINITY PREDICTED BY RF-SCORE:    0.00 PKD
ROOT
HETATM    1  C   UNL     1     -10.657  18.694  66.406  1.00  0.00    -0.349 C  
HETATM    2  O   UNL     1      -9.902  17.734  65.670  1.00  0.00    -0.528 OA 
ENDROOT
BRANCH   2   3
HETATM    3  C   UNL     1     -10.306  16.431  65.806  1.00  0.00    -0.369 A  
HETATM    4  C   UNL     1      -9.787  15.676  66.858  1.00  0.00    -0.238 A  
HETATM    5  N   UNL     1     -12.421  14.013  64.121  1.00  0.00    -0.696 NA 
HETATM    6  C   UNL     1     -10.055  14.304  66.914  1.00  0.00    -0.264 A  
HETATM    7  C   UNL     1     -11.543  14.483  65.011  1.00  0.00    -0.382 A  
HETATM    8  C   UNL     1     -10.933  13.681  65.983  1.00  0.00    -0.288 A  
HETATM    9  C   UNL     1     -11.216  15.826  64.930  1.00  0.00    -0.358 A  
HETATM   10  C   UNL     1     -11.261  12.309  65.926  1.00  0.00    -0.340 A  
HETATM   11  N   UNL     1     -12.156  11.836  65.035  1.00  0.00    -0.184 NA 
HETATM   12  C   UNL     1     -12.694  12.712  64.186  1.00  0.00    -0.281 A  
BRANCH   4  13
HETATM   13  O   UNL     1      -8.957  16.135  67.848  1.00  0.00    -0.182 OA 
BRANCH  13  14
HETATM   14  C   UNL     1      -9.190  15.599  69.164  1.00  0.00    -0.254 C  
BRANCH  14  15
HETATM   15  C   UNL     1     -10.454  16.266  69.704  1.00  0.00    -0.294 C  
BRANCH  15  16
HETATM   16  C   UNL     1     -11.010  15.632  70.985  1.00  0.00    -0.237 C  
BRANCH  16  17
HETATM   17  N   UNL     1     -12.313  16.137  71.445  1.00  0.00    -0.331 NA 
HETATM   18  C   UNL     1     -12.327  16.301  72.921  1.00  0.00    -0.461 C  
HETATM   19  C   UNL     1     -12.406  14.969  73.689  1.00  0.00    -0.516 C  
HETATM   20  C   UNL     1     -13.463  15.280  71.082  1.00  0.00    -0.489 C  
HETATM   21  C   UNL     1     -13.593  13.984  71.902  1.00  0.00    -0.435 C  
HETATM   22  O   UNL     1     -13.576  14.234  73.313  1.00  0.00    -0.483 OA 
ENDBRANCH  16  17
ENDBRANCH  15  16
ENDBRANCH  14  15
ENDBRANCH  13  14
ENDBRANCH   4  13
BRANCH  10  23
HETATM   23  N   UNL     1     -10.579  11.383  66.758  1.00  0.00    -0.244 NA 
HETATM   24  H   UNL     1      -9.817  10.877  66.306  1.00  0.00     0.000 HD 
BRANCH  23  25
HETATM   25  C   UNL     1     -10.794  11.055  68.116  1.00  0.00    -0.226 A  
HETATM   26 CL   UNL     1      -9.628   8.094  70.565  1.00  0.00    -0.169 Cl 
HETATM   27  C   UNL     1     -11.337  10.187  70.742  1.00  0.00    -0.354 A  
HETATM   28  C   UNL     1     -10.423   9.495  69.955  1.00  0.00    -0.247 A  
HETATM   29  C   UNL     1     -11.977  11.309  70.242  1.00  0.00    -0.466 A  
HETATM   30  F   UNL     1     -11.629   9.776  71.986  1.00  0.00    -0.418 F  
HETATM   31  C   UNL     1     -11.711  11.732  68.935  1.00  0.00    -0.384 A  
HETATM   32  C   UNL     1     -10.154   9.924  68.651  1.00  0.00    -0.191 A  
ENDBRANCH  23  25
ENDBRANCH  10  23
ENDBRANCH   2   3
TORSDOF 8
ENDMDL
MODEL        6
REMARK 921   NORMALIZED FREE ENERGY PREDICTED BY IDOCK:   -7.00 KCAL/MOL
REMARK 922        TOTAL FREE ENERGY PREDICTED BY IDOCK:  -11.90 KCAL/MOL
REMARK 923 INTER-LIGAND FREE ENERGY PREDICTED BY IDOCK:  -11.11 KCAL/MOL
REMARK 924 INTRA-LIGAND FREE ENERGY PREDICTED BY IDOCK:   -0.79 KCAL/MOL
REMARK 927      BINDING AFFINITY PREDICTED BY RF-SCORE:    0.00 PKD
ROOT
HETATM    1  C   UNL     1     -13.614  15.919  73.107  1.00  0.00    -0.499 C  
HETATM    2  O   UNL     1     -14.212  15.131  72.080  1.00  0.00    -0.480 OA 
ENDROOT
BRANCH   2   3
HETATM    3  C   UNL     1     -13.472  14.064  71.643  1.00  0.00    -0.361 A  
HETATM    4  C   UNL     1     -12.510  14.277  70.654  1.00  0.00    -0.358 A  
HETATM    5  N   UNL     1     -13.207  10.486  72.184  1.00  0.00    -0.405 NA 
HETATM    6  C   UNL     1     -11.865  13.178  70.078  1.00  0.00    -0.360 A  
HETATM    7  C   UNL     1     -12.963  11.676  71.629  1.00  0.00    -0.378 A  
HETATM    8  C   UNL     1     -12.088  11.854  70.551  1.00  0.00    -0.422 A  
HETATM    9  C   UNL     1     -13.642  12.768  72.145  1.00  0.00    -0.547 A  
HETATM   10  C   UNL     1     -11.516  10.671  70.037  1.00  0.00    -0.325 A  
HETATM   11  N   UNL     1     -11.753   9.471  70.605  1.00  0.00    -0.273 NA 
HETATM   12  C   UNL     1     -12.578   9.442  71.652  1.00  0.00    -0.375 A  
BRANCH   4  13
HETATM   13  O   UNL     1     -12.158  15.489  70.118  1.00  0.00    -0.340 OA 
BRANCH  13  14
HETATM   14  C   UNL     1     -11.686  15.463  68.759  1.00  0.00    -0.351 C  
BRANCH  14  15
HETATM   15  C   UNL     1     -10.491  16.413  68.679  1.00  0.00    -0.293 C  
BRANCH  15  16
HETATM   16  C   UNL     1     -10.508  17.357  67.471  1.00  0.00    -0.354 C  
BRANCH  16  17
HETATM   17  N   UNL     1     -10.767  18.776  67.761  1.00  0.00    -0.386 NA 
HETATM   18  C   UNL     1     -10.648  19.599  66.531  1.00  0.00    -0.482 C  
HETATM   19  C   UNL     1      -9.196  19.807  66.066  1.00  0.00    -0.275 C  
HETATM   20  C   UNL     1      -9.868  19.364  68.779  1.00  0.00    -0.456 C  
HETATM   21  C   UNL     1      -8.435  19.648  68.294  1.00  0.00    -0.316 C  
HETATM   22  O   UNL     1      -8.416  20.429  67.092  1.00  0.00    -0.338 OA 
ENDBRANCH  16  17
ENDBRANCH  15  16
ENDBRANCH  14  15
ENDBRANCH  13  14
ENDBRANCH   4  13
BRANCH  10  23
HETATM   23  N   UNL     1     -10.743  10.716  68.847  1.00  0.00    -0.203 NA 
HETATM   24  H   UNL     1     -10.188   9.881  68.661  1.00  0.00     0.000 HD 
BRANCH  23  25
HETATM   25  C   UNL     1     -10.625  11.742  67.882  1.00  0.00    -0.201 A  
HETATM   26 CL   UNL     1     -12.757  12.933  64.694  1.00  0.00    -0.441 Cl 
HETATM   27  C   UNL     1     -10.369  13.603  65.780  1.00  0.00    -0.298 A  
HETATM   28  C   UNL     1     -11.505  12.807  65.871  1.00  0.00    -0.356 A  
HETATM   29  C   UNL     1      -9.363  13.492  66.727  1.00  0.00    -0.262 A  
HETATM   30  F   UNL     1     -10.216  14.478  64.774  1.00  0.00    -0.422 F  
HETATM   31  C   UNL     1      -9.490  12.561  67.764  1.00  0.00    -0.197 A  
HETATM   32  C   UNL     1     -11.633  11.881  66.912  1.00  0.00    -0.358 A  
ENDBRANCH  23  25
ENDBRANCH  10  23
ENDBRANCH   2   3
TORSDOF 8
ENDMDL
MODEL        7
REMARK 921   NORMALIZED FREE ENERGY PREDICTED BY IDOCK:   -6.95 KCAL/MOL
REMARK 922        TOTAL FREE ENERGY PREDICTED BY IDOCK:  -11.84 KCAL/MOL
REMARK 923 INTER-LIGAND FREE ENERGY PREDICTED BY IDOCK:  -10.40 KCAL/MOL
REMARK 924 INTRA-LIGAND FREE ENERGY PREDICTED BY IDOCK:   -1.44 KCAL/MOL
REMARK 927      BINDING AFFINITY PREDICTED BY RF-SCORE:    0.00 PKD
ROOT
HETATM    1  C   UNL     1     -11.368   6.568  70.235  1.00  0.00    -0.395 C  
HETATM    2  O   UNL     1     -10.664   7.775  70.523  1.00  0.00    -0.227 OA 
ENDROOT
BRANCH   2   3
HETATM    3  C   UNL     1     -10.643   8.704  69.515  1.00  0.00    -0.213 A  
HETATM    4  C   UNL     1     -11.149   9.979  69.771  1.00  0.00    -0.274 A  
HETATM    5  N   UNL     1      -9.700   8.960  66.021  1.00  0.00    -0.261 NA 
HETATM    6  C   UNL     1     -11.291  10.884  68.714  1.00  0.00    -0.357 A  
HETATM    7  C   UNL     1     -10.212   9.335  67.197  1.00  0.00    -0.257 A  
HETATM    8  C   UNL     1     -10.831  10.573  67.403  1.00  0.00    -0.349 A  
HETATM    9  C   UNL     1     -10.138   8.426  68.239  1.00  0.00    -0.232 A  
HETATM   10  C   UNL     1     -10.940  11.391  66.258  1.00  0.00    -0.247 A  
HETATM   11  N   UNL     1     -10.413  11.018  65.074  1.00  0.00    -0.291 NA 
HETATM   12  C   UNL     1      -9.815   9.827  65.019  1.00  0.00    -0.173 A  
BRANCH   4  13
HETATM   13  O   UNL     1     -11.600  10.442  70.980  1.00  0.00    -0.346 OA 
BRANCH  13  14
HETATM   14  C   UNL     1     -13.022  10.633  71.091  1.00  0.00    -0.387 C  
BRANCH  14  15
HETATM   15  C   UNL     1     -13.243  11.899  71.919  1.00  0.00    -0.467 C  
BRANCH  15  16
HETATM   16  C   UNL     1     -12.626  13.167  71.318  1.00  0.00    -0.290 C  
BRANCH  16  17
HETATM   17  N   UNL     1     -13.435  14.392  71.421  1.00  0.00    -0.353 NA 
HETATM   18  C   UNL     1     -12.709  15.556  70.854  1.00  0.00    -0.468 C  
HETATM   19  C   UNL     1     -11.562  16.063  71.746  1.00  0.00    -0.448 C  
HETATM   20  C   UNL     1     -13.834  14.746  72.801  1.00  0.00    -0.302 C  
HETATM   21  C   UNL     1     -12.707  15.327  73.674  1.00  0.00    -0.566 C  
HETATM   22  O   UNL     1     -12.049  16.432  73.041  1.00  0.00    -0.523 OA 
ENDBRANCH  16  17
ENDBRANCH  15  16
ENDBRANCH  14  15
ENDBRANCH  13  14
ENDBRANCH   4  13
BRANCH  10  23
HETATM   23  N   UNL     1     -11.691  12.594  66.316  1.00  0.00    -0.385 NA 
HETATM   24  H   UNL     1     -12.682  12.475  66.524  1.00  0.00     0.000 HD 
BRANCH  23  25
HETATM   25  C   UNL     1     -11.274  13.932  66.130  1.00  0.00    -0.303 A  
HETATM   26 CL   UNL     1     -10.170  16.948  68.541  1.00  0.00    -0.290 Cl 
HETATM   27  C   UNL     1     -10.652  16.671  65.891  1.00  0.00    -0.249 A  
HETATM   28  C   UNL     1     -10.598  16.051  67.134  1.00  0.00    -0.305 A  
HETATM   29  C   UNL     1     -11.003  15.944  64.765  1.00  0.00    -0.392 A  
HETATM   30  F   UNL     1     -10.384  17.979  65.759  1.00  0.00    -0.354 F  
HETATM   31  C   UNL     1     -11.320  14.587  64.889  1.00  0.00    -0.394 A  
HETATM   32  C   UNL     1     -10.908  14.692  67.255  1.00  0.00    -0.305 A  
ENDBRANCH  23  25
ENDBRANCH  10  23
ENDBRANCH   2   3
TORSDOF 8
ENDMDL
MODEL        8
REMARK 921   NORMALIZED FREE ENERGY PREDICTED BY IDOCK:   -6.95 KCAL/MOL
REMARK 922        TOTAL FREE ENERGY PREDICTED BY IDOCK:  -11.82 KCAL/MOL
REMARK 923 INTER-LIGAND FREE ENERGY PREDICTED BY IDOCK:  -10.45 KCAL/MOL
REMARK 924 INTRA-LIGAND FREE ENERGY PREDICTED BY IDOCK:   -1.37 KCAL/MOL
REMARK 927      BINDING AFFINITY PREDICTED BY RF-SCORE:    0.00 PKD
ROOT
HETATM    1  C   UNL     1      -8.467  10.274  64.993  1.00  0.00    -0.172 C  
HETATM    2  O   UNL     1      -9.518  11.210  65.226  1.00  0.00    -0.215 OA 
ENDROOT
BRANCH   2   3
HETATM    3  C   UNL     1     -10.168  11.085  66.426  1.00  0.00    -0.236 A  
HETATM    4  C   UNL     1     -11.322  11.840  66.644  1.00  0.00    -0.316 A  
HETATM    5  N   UNL     1      -9.810   9.339  69.586  1.00  0.00    -0.177 NA 
HETATM    6  C   UNL     1     -11.901  11.854  67.918  1.00  0.00    -0.308 A  
HETATM    7  C   UNL     1     -10.323  10.187  68.691  1.00  0.00    -0.188 A  
HETATM    8  C   UNL     1     -11.404  11.032  68.967  1.00  0.00    -0.345 A  
HETATM    9  C   UNL     1      -9.721  10.234  67.444  1.00  0.00    -0.189 A  
HETATM   10  C   UNL     1     -11.888  10.978  70.292  1.00  0.00    -0.367 A  
HETATM   11  N   UNL     1     -11.378  10.113  71.193  1.00  0.00    -0.318 NA 
HETATM   12  C   UNL     1     -10.372   9.335  70.792  1.00  0.00    -0.281 A  
BRANCH   4  13
HETATM   13  O   UNL     1     -11.939  12.653  65.729  1.00  0.00    -0.423 OA 
BRANCH  13  14
HETATM   14  C   UNL     1     -12.221  13.995  66.167  1.00  0.00    -0.465 C  
BRANCH  14  15
HETATM   15  C   UNL     1     -11.179  14.908  65.521  1.00  0.00    -0.348 C  
BRANCH  15  16
HETATM   16  C   UNL     1     -10.545  15.925  66.477  1.00  0.00    -0.297 C  
BRANCH  16  17
HETATM   17  N   UNL     1      -9.853  17.061  65.847  1.00  0.00    -0.521 NA 
HETATM   18  C   UNL     1      -8.467  17.190  66.363  1.00  0.00    -0.272 C  
HETATM   19  C   UNL     1      -8.391  17.747  67.796  1.00  0.00    -0.235 C  
HETATM   20  C   UNL     1     -10.523  18.367  66.041  1.00  0.00    -0.374 C  
HETATM   21  C   UNL     1     -10.382  18.966  67.452  1.00  0.00    -0.427 C  
HETATM   22  O   UNL     1      -9.015  19.034  67.876  1.00  0.00    -0.288 OA 
ENDBRANCH  16  17
ENDBRANCH  15  16
ENDBRANCH  14  15
ENDBRANCH  13  14
ENDBRANCH   4  13
BRANCH  10  23
HETATM   23  N   UNL     1     -12.872  11.904  70.725  1.00  0.00    -0.127 NA 
HETATM   24  H   UNL     1     -13.837  11.585  70.632  1.00  0.00     0.000 HD 
BRANCH  23  25
HETATM   25  C   UNL     1     -12.721  13.202  71.266  1.00  0.00    -0.306 A  
HETATM   26 CL   UNL     1     -10.801  16.554  70.169  1.00  0.00    -0.287 Cl 
HETATM   27  C   UNL     1     -12.168  15.740  72.360  1.00  0.00    -0.472 A  
HETATM   28  C   UNL     1     -11.716  15.418  71.085  1.00  0.00    -0.368 A  
HETATM   29  C   UNL     1     -12.898  14.818  73.094  1.00  0.00    -0.614 A  
HETATM   30  F   UNL     1     -11.894  16.933  72.910  1.00  0.00    -0.574 F  
HETATM   31  C   UNL     1     -13.163  13.557  72.550  1.00  0.00    -0.551 A  
HETATM   32  C   UNL     1     -11.988  14.158  70.541  1.00  0.00    -0.393 A  
ENDBRANCH  23  25
ENDBRANCH  10  23
ENDBRANCH   2   3
TORSDOF 8
ENDMDL
MODEL        9
REMARK 921   NORMALIZED FREE ENERGY PREDICTED BY IDOCK:   -6.94 KCAL/MOL
REMARK 922        TOTAL FREE ENERGY PREDICTED BY IDOCK:  -11.82 KCAL/MOL
REMARK 923 INTER-LIGAND FREE ENERGY PREDICTED BY IDOCK:  -10.84 KCAL/MOL
REMARK 924 INTRA-LIGAND FREE ENERGY PREDICTED BY IDOCK:   -0.98 KCAL/MOL
REMARK 927      BINDING AFFINITY PREDICTED BY RF-SCORE:    0.00 PKD
ROOT
HETATM    1  C   UNL     1     -10.564  17.342  67.653  1.00  0.00    -0.350 C  
HETATM    2  O   UNL     1      -9.793  16.487  68.497  1.00  0.00    -0.226 OA 
ENDROOT
BRANCH   2   3
HETATM    3  C   UNL     1     -10.513  15.659  69.318  1.00  0.00    -0.247 A  
HETATM    4  C   UNL     1     -10.524  14.291  69.045  1.00  0.00    -0.204 A  
HETATM    5  N   UNL     1     -12.697  15.863  72.208  1.00  0.00    -0.443 NA 
HETATM    6  C   UNL     1     -11.384  13.456  69.767  1.00  0.00    -0.150 A  
HETATM    7  C   UNL     1     -12.047  15.304  71.184  1.00  0.00    -0.348 A  
HETATM    8  C   UNL     1     -12.168  13.952  70.845  1.00  0.00    -0.436 A  
HETATM    9  C   UNL     1     -11.240  16.130  70.418  1.00  0.00    -0.394 A  
HETATM   10  C   UNL     1     -13.084  13.214  71.627  1.00  0.00    -0.353 A  
HETATM   11  N   UNL     1     -13.731  13.775  72.669  1.00  0.00    -0.722 NA 
HETATM   12  C   UNL     1     -13.499  15.066  72.909  1.00  0.00    -0.465 A  
BRANCH   4  13
HETATM   13  O   UNL     1      -9.804  13.657  68.066  1.00  0.00    -0.228 OA 
BRANCH  13  14
HETATM   14  C   UNL     1      -9.481  12.277  68.315  1.00  0.00    -0.209 C  
BRANCH  14  15
HETATM   15  C   UNL     1      -9.486  11.562  66.963  1.00  0.00    -0.193 C  
BRANCH  15  16
HETATM   16  C   UNL     1     -10.614  11.996  66.019  1.00  0.00    -0.268 C  
BRANCH  16  17
HETATM   17  N   UNL     1     -10.204  12.758  64.829  1.00  0.00    -0.300 NA 
HETATM   18  C   UNL     1     -10.575  14.190  64.962  1.00  0.00    -0.419 C  
HETATM   19  C   UNL     1     -12.082  14.455  64.795  1.00  0.00    -0.452 C  
HETATM   20  C   UNL     1     -10.783  12.265  63.559  1.00  0.00    -0.451 C  
HETATM   21  C   UNL     1     -12.272  12.597  63.351  1.00  0.00    -0.517 C  
HETATM   22  O   UNL     1     -12.541  13.995  63.519  1.00  0.00    -0.842 OA 
ENDBRANCH  16  17
ENDBRANCH  15  16
ENDBRANCH  14  15
ENDBRANCH  13  14
ENDBRANCH   4  13
BRANCH  10  23
HETATM   23  N   UNL     1     -13.405  11.879  71.270  1.00  0.00     0.031 NA 
HETATM   24  H   UNL     1     -14.311  11.759  70.818  1.00  0.00     0.000 HD 
BRANCH  23  25
HETATM   25  C   UNL     1     -12.661  10.689  71.446  1.00  0.00    -0.421 A  
HETATM   26 CL   UNL     1      -9.492   9.002  69.645  1.00  0.00    -0.166 Cl 
HETATM   27  C   UNL     1     -11.252   8.250  71.562  1.00  0.00    -0.262 A  
HETATM   28  C   UNL     1     -10.845   9.249  70.683  1.00  0.00    -0.278 A  
HETATM   29  C   UNL     1     -12.345   8.454  72.389  1.00  0.00    -0.412 A  
HETATM   30  F   UNL     1     -10.610   7.073  71.615  1.00  0.00    -0.209 F  
HETATM   31  C   UNL     1     -13.047   9.662  72.322  1.00  0.00    -0.468 A  
HETATM   32  C   UNL     1     -11.544  10.459  70.623  1.00  0.00    -0.440 A  
ENDBRANCH  23  25
ENDBRANCH  10  23
ENDBRANCH   2   3
TORSDOF 8
ENDMDL
MODEL       10
REMARK 921   NORMALIZED FREE ENERGY PREDICTED BY IDOCK:   -6.86 KCAL/MOL
REMARK 922        TOTAL FREE ENERGY PREDICTED BY IDOCK:  -11.69 KCAL/MOL
REMARK 923 INTER-LIGAND FREE ENERGY PREDICTED BY IDOCK:   -9.92 KCAL/MOL
REMARK 924 INTRA-LIGAND FREE ENERGY PREDICTED BY IDOCK:   -1.77 KCAL/MOL
REMARK 927      BINDING AFFINITY PREDICTED BY RF-SCORE:    0.00 PKD
ROOT
HETATM    1  C   UNL     1     -12.053  16.387  72.592  1.00  0.00    -0.465 C  
HETATM    2  O   UNL     1     -12.722  16.001  71.393  1.00  0.00    -0.430 OA 
ENDROOT
BRANCH   2   3
HETATM    3  C   UNL     1     -12.483  14.721  70.966  1.00  0.00    -0.330 A  
HETATM    4  C   UNL     1     -11.869  14.533  69.727  1.00  0.00    -0.315 A  
HETATM    5  N   UNL     1     -13.051  11.305  72.047  1.00  0.00    -0.449 NA 
HETATM    6  C   UNL     1     -11.771  13.240  69.201  1.00  0.00    -0.379 A  
HETATM    7  C   UNL     1     -12.681  12.303  71.241  1.00  0.00    -0.251 A  
HETATM    8  C   UNL     1     -12.184  12.101  69.948  1.00  0.00    -0.240 A  
HETATM    9  C   UNL     1     -12.832  13.594  71.720  1.00  0.00    -0.407 A  
HETATM   10  C   UNL     1     -12.155  10.758  69.517  1.00  0.00    -0.272 A  
HETATM   11  N   UNL     1     -12.517   9.748  70.334  1.00  0.00    -0.050 NA 
HETATM   12  C   UNL     1     -12.938  10.073  71.557  1.00  0.00    -0.434 A  
BRANCH   4  13
HETATM   13  O   UNL     1     -11.390  15.519  68.905  1.00  0.00    -0.281 OA 
BRANCH  13  14
HETATM   14  C   UNL     1     -10.012  15.395  68.509  1.00  0.00    -0.213 C  
BRANCH  14  15
HETATM   15  C   UNL     1      -9.959  15.599  66.995  1.00  0.00    -0.242 C  
BRANCH  15  16
HETATM   16  C   UNL     1      -9.829  14.304  66.183  1.00  0.00    -0.316 C  
BRANCH  16  17
HETATM   17  N   UNL     1     -10.382  14.337  64.820  1.00  0.00    -0.416 NA 
HETATM   18  C   UNL     1     -11.749  14.917  64.816  1.00  0.00    -0.402 C  
HETATM   19  C   UNL     1     -12.821  13.972  65.386  1.00  0.00    -0.410 C  
HETATM   20  C   UNL     1     -10.457  13.015  64.159  1.00  0.00    -0.372 C  
HETATM   21  C   UNL     1     -11.580  12.095  64.672  1.00  0.00    -0.328 C  
HETATM   22  O   UNL     1     -12.859  12.742  64.653  1.00  0.00    -0.705 OA 
ENDBRANCH  16  17
ENDBRANCH  15  16
ENDBRANCH  14  15
ENDBRANCH  13  14
ENDBRANCH   4  13
BRANCH  10  23
HETATM   23  N   UNL     1     -11.823  10.453  68.171  1.00  0.00    -0.738 NA 
HETATM   24  H   UNL     1     -12.579  10.584  67.499  1.00  0.00     0.000 HD 
BRANCH  23  25
HETATM   25  C   UNL     1     -10.604   9.996  67.619  1.00  0.00    -0.270 A  
HETATM   26 CL   UNL     1      -6.944  11.558  67.077  1.00  0.00    -0.136 Cl 
HETATM   27  C   UNL     1      -8.197   9.272  66.344  1.00  0.00    -0.111 A  
HETATM   28  C   UNL     1      -8.288  10.482  67.023  1.00  0.00    -0.128 A  
HETATM   29  C   UNL     1      -9.284   8.414  66.299  1.00  0.00    -0.263 A  
HETATM   30  F   UNL     1      -7.068   8.919  65.709  1.00  0.00    -0.078 F  
HETATM   31  C   UNL     1     -10.480   8.782  66.926  1.00  0.00    -0.319 A  
HETATM   32  C   UNL     1      -9.483  10.844  67.654  1.00  0.00    -0.170 A  
ENDBRANCH  23  25
ENDBRANCH  10  23
ENDBRANCH   2   3
TORSDOF 8
ENDMDL
MODEL       11
REMARK 921   NORMALIZED FREE ENERGY PREDICTED BY IDOCK:   -6.84 KCAL/MOL
REMARK 922        TOTAL FREE ENERGY PREDICTED BY IDOCK:  -11.67 KCAL/MOL
REMARK 923 INTER-LIGAND FREE ENERGY PREDICTED BY IDOCK:  -10.41 KCAL/MOL
REMARK 924 INTRA-LIGAND FREE ENERGY PREDICTED BY IDOCK:   -1.27 KCAL/MOL
REMARK 927      BINDING AFFINITY PREDICTED BY RF-SCORE:    0.00 PKD
ROOT
HETATM    1  C   UNL     1     -11.983  16.216  72.483  1.00  0.00    -0.561 C  
HETATM    2  O   UNL     1     -11.152  15.264  71.822  1.00  0.00    -0.362 OA 
ENDROOT
BRANCH   2   3
HETATM    3  C   UNL     1     -11.358  15.132  70.473  1.00  0.00    -0.298 A  
HETATM    4  C   UNL     1     -12.080  14.031  70.011  1.00  0.00    -0.348 A  
HETATM    5  N   UNL     1     -10.489  16.810  67.376  1.00  0.00    -0.314 NA 
HETATM    6  C   UNL     1     -12.155  13.790  68.635  1.00  0.00    -0.333 A  
HETATM    7  C   UNL     1     -10.994  15.865  68.173  1.00  0.00    -0.335 A  
HETATM    8  C   UNL     1     -11.604  14.701  67.691  1.00  0.00    -0.383 A  
HETATM    9  C   UNL     1     -10.871  16.055  69.540  1.00  0.00    -0.317 A  
HETATM   10  C   UNL     1     -11.598  14.554  66.287  1.00  0.00    -0.360 A  
HETATM   11  N   UNL     1     -11.099  15.514  65.482  1.00  0.00    -0.298 NA 
HETATM   12  C   UNL     1     -10.579  16.594  66.067  1.00  0.00    -0.233 A  
BRANCH   4  13
HETATM   13  O   UNL     1     -12.694  13.084  70.789  1.00  0.00    -0.262 OA 
BRANCH  13  14
HETATM   14  C   UNL     1     -12.329  11.717  70.526  1.00  0.00    -0.299 C  
BRANCH  14  15
HETATM   15  C   UNL     1     -12.898  10.871  71.664  1.00  0.00    -0.554 C  
BRANCH  15  16
HETATM   16  C   UNL     1     -13.049   9.381  71.335  1.00  0.00    -0.347 C  
BRANCH  16  17
HETATM   17  N   UNL     1     -12.094   8.474  71.991  1.00  0.00    -0.339 NA 
HETATM   18  C   UNL     1     -10.695   8.901  71.735  1.00  0.00    -0.362 C  
HETATM   19  C   UNL     1     -10.214   8.610  70.302  1.00  0.00    -0.194 C  
HETATM   20  C   UNL     1     -12.211   7.059  71.573  1.00  0.00    -0.368 C  
HETATM   21  C   UNL     1     -11.657   6.748  70.170  1.00  0.00    -0.341 C  
HETATM   22  O   UNL     1     -10.312   7.213  70.005  1.00  0.00    -0.199 OA 
ENDBRANCH  16  17
ENDBRANCH  15  16
ENDBRANCH  14  15
ENDBRANCH  13  14
ENDBRANCH   4  13
BRANCH  10  23
HETATM   23  N   UNL     1     -12.044  13.342  65.699  1.00  0.00    -0.414 NA 
HETATM   24  H   UNL     1     -13.056  13.216  65.683  1.00  0.00     0.000 HD 
BRANCH  23  25
HETATM   25  C   UNL     1     -11.299  12.281  65.133  1.00  0.00    -0.329 A  
HETATM   26 CL   UNL     1      -9.561   8.940  66.528  1.00  0.00    -0.272 Cl 
HETATM   27  C   UNL     1      -9.620  10.240  64.153  1.00  0.00    -0.315 A  
HETATM   28  C   UNL     1     -10.056  10.210  65.474  1.00  0.00    -0.268 A  
HETATM   29  C   UNL     1     -10.017  11.268  63.313  1.00  0.00    -0.428 A  
HETATM   30  F   UNL     1      -8.801   9.292  63.673  1.00  0.00    -0.207 F  
HETATM   31  C   UNL     1     -10.844  12.284  63.806  1.00  0.00    -0.495 A  
HETATM   32  C   UNL     1     -10.888  11.223  65.962  1.00  0.00    -0.273 A  
ENDBRANCH  23  25
ENDBRANCH  10  23
ENDBRANCH   2   3
TORSDOF 8
ENDMDL
MODEL       12
REMARK 921   NORMALIZED FREE ENERGY PREDICTED BY IDOCK:   -6.84 KCAL/MOL
REMARK 922        TOTAL FREE ENERGY PREDICTED BY IDOCK:  -11.67 KCAL/MOL
REMARK 923 INTER-LIGAND FREE ENERGY PREDICTED BY IDOCK:  -10.14 KCAL/MOL
REMARK 924 INTRA-LIGAND FREE ENERGY PREDICTED BY IDOCK:   -1.54 KCAL/MOL
REMARK 927      BINDING AFFINITY PREDICTED BY RF-SCORE:    0.00 PKD
ROOT
HETATM    1  C   UNL     1      -7.204   7.631  69.557  1.00  0.00    -0.080 C  
HETATM    2  O   UNL     1      -7.531   9.001  69.331  1.00  0.00    -0.073 OA 
ENDROOT
BRANCH   2   3
HETATM    3  C   UNL     1      -8.803   9.372  69.681  1.00  0.00    -0.172 A  
HETATM    4  C   UNL     1      -9.377  10.473  69.044  1.00  0.00    -0.196 A  
HETATM    5  N   UNL     1     -11.412   8.412  72.012  1.00  0.00    -0.324 NA 
HETATM    6  C   UNL     1     -10.602  10.969  69.504  1.00  0.00    -0.182 A  
HETATM    7  C   UNL     1     -10.793   9.135  71.076  1.00  0.00    -0.291 A  
HETATM    8  C   UNL     1     -11.328  10.311  70.536  1.00  0.00    -0.422 A  
HETATM    9  C   UNL     1      -9.549   8.696  70.654  1.00  0.00    -0.222 A  
HETATM   10  C   UNL     1     -12.555  10.727  71.097  1.00  0.00    -0.428 A  
HETATM   11  N   UNL     1     -13.186   9.990  72.033  1.00  0.00    -0.454 NA 
HETATM   12  C   UNL     1     -12.587   8.869  72.436  1.00  0.00    -0.353 A  
BRANCH   4  13
HETATM   13  O   UNL     1      -8.823  11.192  68.017  1.00  0.00    -0.132 OA 
BRANCH  13  14
HETATM   14  C   UNL     1      -8.394  12.527  68.341  1.00  0.00    -0.132 C  
BRANCH  14  15
HETATM   15  C   UNL     1      -8.954  13.454  67.263  1.00  0.00    -0.221 C  
BRANCH  15  16
HETATM   16  C   UNL     1      -9.705  12.737  66.135  1.00  0.00    -0.246 C  
BRANCH  16  17
HETATM   17  N   UNL     1     -10.240  13.595  65.066  1.00  0.00    -0.352 NA 
HETATM   18  C   UNL     1     -11.116  14.656  65.626  1.00  0.00    -0.338 C  
HETATM   19  C   UNL     1     -12.486  14.138  66.099  1.00  0.00    -0.395 C  
HETATM   20  C   UNL     1     -11.020  12.873  64.036  1.00  0.00    -0.411 C  
HETATM   21  C   UNL     1     -12.424  12.422  64.480  1.00  0.00    -0.435 C  
HETATM   22  O   UNL     1     -13.190  13.504  65.026  1.00  0.00    -0.721 OA 
ENDBRANCH  16  17
ENDBRANCH  15  16
ENDBRANCH  14  15
ENDBRANCH  13  14
ENDBRANCH   4  13
BRANCH  10  23
HETATM   23  N   UNL     1     -13.106  11.985  70.740  1.00  0.00     0.120 NA 
HETATM   24  H   UNL     1     -13.801  11.956  69.995  1.00  0.00     0.000 HD 
BRANCH  23  25
HETATM   25  C   UNL     1     -12.839  13.272  71.261  1.00  0.00    -0.312 A  
HETATM   26 CL   UNL     1     -10.792  16.495  70.016  1.00  0.00    -0.322 Cl 
HETATM   27  C   UNL     1     -12.058  15.774  72.299  1.00  0.00    -0.478 A  
HETATM   28  C   UNL     1     -11.713  15.421  70.998  1.00  0.00    -0.364 A  
HETATM   29  C   UNL     1     -12.793  14.902  73.085  1.00  0.00    -0.619 A  
HETATM   30  F   UNL     1     -11.675  16.949  72.820  1.00  0.00    -0.583 F  
HETATM   31  C   UNL     1     -13.172  13.658  72.569  1.00  0.00    -0.578 A  
HETATM   32  C   UNL     1     -12.098  14.179  70.483  1.00  0.00    -0.420 A  
ENDBRANCH  23  25
ENDBRANCH  10  23
ENDBRANCH   2   3
TORSDOF 8
ENDMDL
MODEL       13
REMARK 921   NORMALIZED FREE ENERGY PREDICTED BY IDOCK:   -6.80 KCAL/MOL
REMARK 922        TOTAL FREE ENERGY PREDICTED BY IDOCK:  -11.61 KCAL/MOL
REMARK 923 INTER-LIGAND FREE ENERGY PREDICTED BY IDOCK:  -10.48 KCAL/MOL
REMARK 924 INTRA-LIGAND FREE ENERGY PREDICTED BY IDOCK:   -1.14 KCAL/MOL
REMARK 927      BINDING AFFINITY PREDICTED BY RF-SCORE:    0.00 PKD
ROOT
HETATM    1  C   UNL     1     -11.724  15.507  64.331  1.00  0.00    -0.242 C  
HETATM    2  O   UNL     1     -12.510  14.318  64.261  1.00  0.00    -0.657 OA 
ENDROOT
BRANCH   2   3
HETATM    3  C   UNL     1     -11.836  13.148  64.498  1.00  0.00    -0.377 A  
HETATM    4  C   UNL     1     -11.830  12.631  65.795  1.00  0.00    -0.444 A  
HETATM    5  N   UNL     1      -9.778  10.745  62.724  1.00  0.00    -0.295 NA 
HETATM    6  C   UNL     1     -11.013  11.534  66.090  1.00  0.00    -0.320 A  
HETATM    7  C   UNL     1     -10.389  11.326  63.759  1.00  0.00    -0.395 A  
HETATM    8  C   UNL     1     -10.270  10.867  65.076  1.00  0.00    -0.367 A  
HETATM    9  C   UNL     1     -11.152  12.452  63.495  1.00  0.00    -0.521 A  
HETATM   10  C   UNL     1      -9.398   9.772  65.256  1.00  0.00    -0.255 A  
HETATM   11  N   UNL     1      -8.790   9.177  64.210  1.00  0.00    -0.153 NA 
HETATM   12  C   UNL     1      -9.017   9.689  62.999  1.00  0.00    -0.238 A  
BRANCH   4  13
HETATM   13  O   UNL     1     -12.515  13.137  66.869  1.00  0.00    -0.279 OA 
BRANCH  13  14
HETATM   14  C   UNL     1     -11.722  13.456  68.027  1.00  0.00    -0.356 C  
BRANCH  14  15
HETATM   15  C   UNL     1     -12.283  14.752  68.613  1.00  0.00    -0.112 C  
BRANCH  15  16
HETATM   16  C   UNL     1     -11.822  15.055  70.044  1.00  0.00    -0.319 C  
BRANCH  16  17
HETATM   17  N   UNL     1     -12.798  15.739  70.907  1.00  0.00    -0.456 NA 
HETATM   18  C   UNL     1     -12.180  16.128  72.200  1.00  0.00    -0.473 C  
HETATM   19  C   UNL     1     -11.947  14.942  73.154  1.00  0.00    -0.216 C  
HETATM   20  C   UNL     1     -14.007  14.942  71.213  1.00  0.00    -0.411 C  
HETATM   21  C   UNL     1     -13.795  13.804  72.228  1.00  0.00    -0.580 C  
HETATM   22  O   UNL     1     -13.176  14.265  73.435  1.00  0.00    -0.543 OA 
ENDBRANCH  16  17
ENDBRANCH  15  16
ENDBRANCH  14  15
ENDBRANCH  13  14
ENDBRANCH   4  13
BRANCH  10  23
HETATM   23  N   UNL     1      -9.078   9.329  66.566  1.00  0.00    -0.147 NA 
HETATM   24  H   UNL     1      -8.192   9.674  66.934  1.00  0.00     0.000 HD 
BRANCH  23  25
HETATM   25  C   UNL     1      -9.801   8.484  67.440  1.00  0.00    -0.187 A  
HETATM   26 CL   UNL     1     -10.615   8.453  71.372  1.00  0.00    -0.276 Cl 
HETATM   27  C   UNL     1     -11.020   6.755  69.302  1.00  0.00    -0.259 A  
HETATM   28  C   UNL     1     -10.517   7.983  69.718  1.00  0.00    -0.227 A  
HETATM   29  C   UNL     1     -10.932   6.381  67.971  1.00  0.00    -0.400 A  
HETATM   30  F   UNL     1     -11.582   5.906  70.177  1.00  0.00    -0.417 F  
HETATM   31  C   UNL     1     -10.318   7.238  67.051  1.00  0.00    -0.376 A  
HETATM   32  C   UNL     1      -9.910   8.841  68.795  1.00  0.00    -0.180 A  
ENDBRANCH  23  25
ENDBRANCH  10  23
ENDBRANCH   2   3
TORSDOF 8
ENDMDL
MODEL       14
REMARK 921   NORMALIZED FREE ENERGY PREDICTED BY IDOCK:   -6.79 KCAL/MOL
REMARK 922        TOTAL FREE ENERGY PREDICTED BY IDOCK:  -11.60 KCAL/MOL
REMARK 923 INTER-LIGAND FREE ENERGY PREDICTED BY IDOCK:  -10.67 KCAL/MOL
REMARK 924 INTRA-LIGAND FREE ENERGY PREDICTED BY IDOCK:   -0.94 KCAL/MOL
REMARK 927      BINDING AFFINITY PREDICTED BY RF-SCORE:    0.00 PKD
ROOT
HETATM    1  C   UNL     1     -12.126  12.681  63.571  1.00  0.00    -0.561 C  
HETATM    2  O   UNL     1     -10.763  13.046  63.778  1.00  0.00    -0.357 OA 
ENDROOT
BRANCH   2   3
HETATM    3  C   UNL     1     -10.527  13.881  64.840  1.00  0.00    -0.426 A  
HETATM    4  C   UNL     1     -10.216  13.316  66.078  1.00  0.00    -0.291 A  
HETATM    5  N   UNL     1     -10.531  17.425  65.612  1.00  0.00    -0.601 NA 
HETATM    6  C   UNL     1     -10.140  14.141  67.206  1.00  0.00    -0.256 A  
HETATM    7  C   UNL     1     -10.450  16.110  65.831  1.00  0.00    -0.352 A  
HETATM    8  C   UNL     1     -10.264  15.554  67.102  1.00  0.00    -0.260 A  
HETATM    9  C   UNL     1     -10.589  15.275  64.735  1.00  0.00    -0.283 A  
HETATM   10  C   UNL     1     -10.228  16.481  68.166  1.00  0.00    -0.271 A  
HETATM   11  N   UNL     1     -10.297  17.810  67.945  1.00  0.00    -0.369 NA 
HETATM   12  C   UNL     1     -10.436  18.212  66.681  1.00  0.00    -0.339 A  
BRANCH   4  13
HETATM   13  O   UNL     1     -10.033  11.982  66.334  1.00  0.00    -0.210 OA 
BRANCH  13  14
HETATM   14  C   UNL     1     -11.118  11.315  67.004  1.00  0.00    -0.293 C  
BRANCH  14  15
HETATM   15  C   UNL     1     -10.564  10.764  68.319  1.00  0.00    -0.233 C  
BRANCH  15  16
HETATM   16  C   UNL     1     -10.734   9.250  68.495  1.00  0.00    -0.142 C  
BRANCH  16  17
HETATM   17  N   UNL     1      -9.933   8.629  69.562  1.00  0.00    -0.191 NA 
HETATM   18  C   UNL     1     -10.246   7.183  69.686  1.00  0.00    -0.208 C  
HETATM   19  C   UNL     1     -11.608   6.901  70.343  1.00  0.00    -0.335 C  
HETATM   20  C   UNL     1     -10.116   9.240  70.897  1.00  0.00    -0.302 C  
HETATM   21  C   UNL     1     -11.445   8.896  71.593  1.00  0.00    -0.339 C  
HETATM   22  O   UNL     1     -11.675   7.482  71.649  1.00  0.00    -0.265 OA 
ENDBRANCH  16  17
ENDBRANCH  15  16
ENDBRANCH  14  15
ENDBRANCH  13  14
ENDBRANCH   4  13
BRANCH  10  23
HETATM   23  N   UNL     1     -10.206  16.019  69.508  1.00  0.00    -0.262 NA 
HETATM   24  H   UNL     1      -9.326  16.170  70.002  1.00  0.00     0.000 HD 
BRANCH  23  25
HETATM   25  C   UNL     1     -11.216  15.381  70.264  1.00  0.00    -0.309 A  
HETATM   26 CL   UNL     1     -13.095  16.125  73.735  1.00  0.00    -0.576 Cl 
HETATM   27  C   UNL     1     -13.056  14.081  71.958  1.00  0.00    -0.401 A  
HETATM   28  C   UNL     1     -12.581  15.347  72.286  1.00  0.00    -0.373 A  
HETATM   29  C   UNL     1     -12.634  13.459  70.794  1.00  0.00    -0.369 A  
HETATM   30  F   UNL     1     -13.913  13.435  72.763  1.00  0.00    -0.601 F  
HETATM   31  C   UNL     1     -11.714  14.104  69.960  1.00  0.00    -0.358 A  
HETATM   32  C   UNL     1     -11.666  15.992  71.447  1.00  0.00    -0.536 A  
ENDBRANCH  23  25
ENDBRANCH  10  23
ENDBRANCH   2   3
TORSDOF 8
ENDMDL
MODEL       15
REMARK 921   NORMALIZED FREE ENERGY PREDICTED BY IDOCK:   -6.78 KCAL/MOL
REMARK 922        TOTAL FREE ENERGY PREDICTED BY IDOCK:  -11.58 KCAL/MOL
REMARK 923 INTER-LIGAND FREE ENERGY PREDICTED BY IDOCK:   -9.73 KCAL/MOL
REMARK 924 INTRA-LIGAND FREE ENERGY PREDICTED BY IDOCK:   -1.85 KCAL/MOL
REMARK 927      BINDING AFFINITY PREDICTED BY RF-SCORE:    0.00 PKD
ROOT
HETATM    1  C   UNL     1      -9.819  17.654  68.429  1.00  0.00    -0.334 C  
HETATM    2  O   UNL     1     -10.944  16.866  68.044  1.00  0.00    -0.354 OA 
ENDROOT
BRANCH   2   3
HETATM    3  C   UNL     1     -11.338  15.913  68.948  1.00  0.00    -0.377 A  
HETATM    4  C   UNL     1     -11.470  14.593  68.513  1.00  0.00    -0.302 A  
HETATM    5  N   UNL     1     -12.343  15.661  72.424  1.00  0.00    -0.383 NA 
HETATM    6  C   UNL     1     -12.030  13.642  69.373  1.00  0.00    -0.394 A  
HETATM    7  C   UNL     1     -12.111  15.264  71.171  1.00  0.00    -0.348 A  
HETATM    8  C   UNL     1     -12.369  13.965  70.717  1.00  0.00    -0.449 A  
HETATM    9  C   UNL     1     -11.617  16.210  70.287  1.00  0.00    -0.271 A  
HETATM   10  C   UNL     1     -12.958  13.102  71.666  1.00  0.00    -0.335 A  
HETATM   11  N   UNL     1     -13.182  13.498  72.935  1.00  0.00    -0.473 NA 
HETATM   12  C   UNL     1     -12.856  14.752  73.250  1.00  0.00    -0.507 A  
BRANCH   4  13
HETATM   13  O   UNL     1     -11.158  14.119  67.266  1.00  0.00    -0.291 OA 
BRANCH  13  14
HETATM   14  C   UNL     1     -12.238  14.086  66.316  1.00  0.00    -0.462 C  
BRANCH  14  15
HETATM   15  C   UNL     1     -12.156  12.746  65.586  1.00  0.00    -0.514 C  
BRANCH  15  16
HETATM   16  C   UNL     1     -10.781  12.070  65.651  1.00  0.00    -0.272 C  
BRANCH  16  17
HETATM   17  N   UNL     1     -10.768  10.673  66.113  1.00  0.00    -0.134 NA 
HETATM   18  C   UNL     1     -10.776  10.604  67.596  1.00  0.00    -0.267 C  
HETATM   19  C   UNL     1      -9.430  10.984  68.239  1.00  0.00    -0.172 C  
HETATM   20  C   UNL     1      -9.610   9.883  65.637  1.00  0.00    -0.256 C  
HETATM   21  C   UNL     1      -8.275  10.204  66.334  1.00  0.00    -0.122 C  
HETATM   22  O   UNL     1      -8.381  10.135  67.762  1.00  0.00    -0.113 OA 
ENDBRANCH  16  17
ENDBRANCH  15  16
ENDBRANCH  14  15
ENDBRANCH  13  14
ENDBRANCH   4  13
BRANCH  10  23
HETATM   23  N   UNL     1     -13.409  11.816  71.269  1.00  0.00     0.033 NA 
HETATM   24  H   UNL     1     -14.224  11.814  70.656  1.00  0.00     0.000 HD 
BRANCH  23  25
HETATM   25  C   UNL     1     -12.901  10.537  71.593  1.00  0.00    -0.475 A  
HETATM   26 CL   UNL     1      -9.477   8.557  70.896  1.00  0.00    -0.203 Cl 
HETATM   27  C   UNL     1     -11.878   7.940  71.987  1.00  0.00    -0.318 A  
HETATM   28  C   UNL     1     -11.083   8.920  71.403  1.00  0.00    -0.306 A  
HETATM   29  C   UNL     1     -13.171   8.238  72.386  1.00  0.00    -0.182 A  
HETATM   30  F   UNL     1     -11.419   6.691  72.161  1.00  0.00    -0.269 F  
HETATM   31  C   UNL     1     -13.678   9.526  72.181  1.00  0.00    -0.447 A  
HETATM   32  C   UNL     1     -11.590  10.209  71.204  1.00  0.00    -0.430 A  
ENDBRANCH  23  25
ENDBRANCH  10  23
ENDBRANCH   2   3
TORSDOF 8
ENDMDL
MODEL       16
REMARK 921   NORMALIZED FREE ENERGY PREDICTED BY IDOCK:   -6.77 KCAL/MOL
REMARK 922        TOTAL FREE ENERGY PREDICTED BY IDOCK:  -11.57 KCAL/MOL
REMARK 923 INTER-LIGAND FREE ENERGY PREDICTED BY IDOCK:  -10.41 KCAL/MOL
REMARK 924 INTRA-LIGAND FREE ENERGY PREDICTED BY IDOCK:   -1.16 KCAL/MOL
REMARK 927      BINDING AFFINITY PREDICTED BY RF-SCORE:    0.00 PKD
ROOT
HETATM    1  C   UNL     1     -11.223   6.458  71.986  1.00  0.00    -0.281 C  
HETATM    2  O   UNL     1     -10.441   7.651  72.016  1.00  0.00    -0.202 OA 
ENDROOT
BRANCH   2   3
HETATM    3  C   UNL     1     -10.449   8.395  70.865  1.00  0.00    -0.196 A  
HETATM    4  C   UNL     1     -11.217   9.560  70.827  1.00  0.00    -0.317 A  
HETATM    5  N   UNL     1      -9.074   8.294  67.509  1.00  0.00    -0.136 NA 
HETATM    6  C   UNL     1     -11.372  10.238  69.613  1.00  0.00    -0.315 A  
HETATM    7  C   UNL     1      -9.812   8.732  68.532  1.00  0.00    -0.168 A  
HETATM    8  C   UNL     1     -10.677   9.829  68.440  1.00  0.00    -0.262 A  
HETATM    9  C   UNL     1      -9.721   8.033  69.725  1.00  0.00    -0.176 A  
HETATM   10  C   UNL     1     -10.770  10.417  67.160  1.00  0.00    -0.256 A  
HETATM   11  N   UNL     1     -10.016   9.983  66.130  1.00  0.00    -0.244 NA 
HETATM   12  C   UNL     1      -9.203   8.951  66.360  1.00  0.00    -0.189 A  
BRANCH   4  13
HETATM   13  O   UNL     1     -11.918  10.100  71.874  1.00  0.00    -0.230 OA 
BRANCH  13  14
HETATM   14  C   UNL     1     -13.220  10.625  71.557  1.00  0.00    -0.360 C  
BRANCH  14  15
HETATM   15  C   UNL     1     -13.266  12.060  72.080  1.00  0.00    -0.481 C  
BRANCH  15  16
HETATM   16  C   UNL     1     -12.723  13.111  71.103  1.00  0.00    -0.300 C  
BRANCH  16  17
HETATM   17  N   UNL     1     -13.428  14.402  71.084  1.00  0.00    -0.341 NA 
HETATM   18  C   UNL     1     -12.536  15.485  70.599  1.00  0.00    -0.443 C  
HETATM   19  C   UNL     1     -11.472  15.914  71.625  1.00  0.00    -0.392 C  
HETATM   20  C   UNL     1     -13.967  14.823  72.396  1.00  0.00    -0.473 C  
HETATM   21  C   UNL     1     -12.914  15.328  73.399  1.00  0.00    -0.531 C  
HETATM   22  O   UNL     1     -12.086  16.356  72.841  1.00  0.00    -0.516 OA 
ENDBRANCH  16  17
ENDBRANCH  15  16
ENDBRANCH  14  15
ENDBRANCH  13  14
ENDBRANCH   4  13
BRANCH  10  23
HETATM   23  N   UNL     1     -11.734  11.430  66.915  1.00  0.00    -0.467 NA 
HETATM   24  H   UNL     1     -12.635  11.288  67.370  1.00  0.00     0.000 HD 
BRANCH  23  25
HETATM   25  C   UNL     1     -11.635  12.605  66.135  1.00  0.00    -0.393 A  
HETATM   26 CL   UNL     1      -9.463  15.979  66.305  1.00  0.00    -0.317 Cl 
HETATM   27  C   UNL     1     -11.517  15.078  64.787  1.00  0.00    -0.403 A  
HETATM   28  C   UNL     1     -10.629  14.806  65.822  1.00  0.00    -0.327 A  
HETATM   29  C   UNL     1     -12.456  14.132  64.409  1.00  0.00    -0.325 A  
HETATM   30  F   UNL     1     -11.495  16.258  64.149  1.00  0.00    -0.522 F  
HETATM   31  C   UNL     1     -12.517  12.909  65.086  1.00  0.00    -0.561 A  
HETATM   32  C   UNL     1     -10.688  13.580  66.494  1.00  0.00    -0.287 A  
ENDBRANCH  23  25
ENDBRANCH  10  23
ENDBRANCH   2   3
TORSDOF 8
ENDMDL
MODEL       17
REMARK 921   NORMALIZED FREE ENERGY PREDICTED BY IDOCK:   -6.73 KCAL/MOL
REMARK 922        TOTAL FREE ENERGY PREDICTED BY IDOCK:  -11.51 KCAL/MOL
REMARK 923 INTER-LIGAND FREE ENERGY PREDICTED BY IDOCK:  -10.13 KCAL/MOL
REMARK 924 INTRA-LIGAND FREE ENERGY PREDICTED BY IDOCK:   -1.39 KCAL/MOL
REMARK 927      BINDING AFFINITY PREDICTED BY RF-SCORE:    0.00 PKD
ROOT
HETATM    1  C   UNL     1      -8.743   9.807  62.450  1.00  0.00    -0.223 C  
HETATM    2  O   UNL     1      -9.154   9.408  63.756  1.00  0.00    -0.193 OA 
ENDROOT
BRANCH   2   3
HETATM    3  C   UNL     1      -9.730  10.388  64.521  1.00  0.00    -0.330 A  
HETATM    4  C   UNL     1      -9.610  10.309  65.910  1.00  0.00    -0.209 A  
HETATM    5  N   UNL     1     -11.744  13.377  64.114  1.00  0.00    -0.408 NA 
HETATM    6  C   UNL     1     -10.331  11.201  66.711  1.00  0.00    -0.284 A  
HETATM    7  C   UNL     1     -11.101  12.395  64.749  1.00  0.00    -0.304 A  
HETATM    8  C   UNL     1     -11.097  12.257  66.142  1.00  0.00    -0.349 A  
HETATM    9  C   UNL     1     -10.436  11.464  63.969  1.00  0.00    -0.435 A  
HETATM   10  C   UNL     1     -11.879  13.200  66.844  1.00  0.00    -0.386 A  
HETATM   11  N   UNL     1     -12.519  14.199  66.203  1.00  0.00    -0.451 NA 
HETATM   12  C   UNL     1     -12.412  14.241  64.874  1.00  0.00    -0.390 A  
BRANCH   4  13
HETATM   13  O   UNL     1      -8.887   9.375  66.606  1.00  0.00    -0.131 OA 
BRANCH  13  14
HETATM   14  C   UNL     1      -8.854   9.542  68.035  1.00  0.00    -0.123 C  
BRANCH  14  15
HETATM   15  C   UNL     1      -9.290   8.213  68.653  1.00  0.00    -0.143 C  
BRANCH  15  16
HETATM   16  C   UNL     1     -10.495   8.316  69.596  1.00  0.00    -0.221 C  
BRANCH  16  17
HETATM   17  N   UNL     1     -10.365   9.265  70.712  1.00  0.00    -0.258 NA 
HETATM   18  C   UNL     1     -10.571   8.583  72.015  1.00  0.00    -0.338 C  
HETATM   19  C   UNL     1     -12.040   8.224  72.298  1.00  0.00    -0.379 C  
HETATM   20  C   UNL     1     -11.304  10.407  70.655  1.00  0.00    -0.325 C  
HETATM   21  C   UNL     1     -12.762  10.069  71.015  1.00  0.00    -0.362 C  
HETATM   22  O   UNL     1     -12.864   9.395  72.276  1.00  0.00    -0.392 OA 
ENDBRANCH  16  17
ENDBRANCH  15  16
ENDBRANCH  14  15
ENDBRANCH  13  14
ENDBRANCH   4  13
BRANCH  10  23
HETATM   23  N   UNL     1     -12.076  13.056  68.242  1.00  0.00    -0.250 NA 
HETATM   24  H   UNL     1     -12.424  12.144  68.537  1.00  0.00     0.000 HD 
BRANCH  23  25
HETATM   25  C   UNL     1     -11.864  13.984  69.287  1.00  0.00    -0.344 A  
HETATM   26 CL   UNL     1     -13.405  14.573  72.949  1.00  0.00    -0.585 Cl 
HETATM   27  C   UNL     1     -11.683  15.908  71.340  1.00  0.00    -0.467 A  
HETATM   28  C   UNL     1     -12.492  14.788  71.504  1.00  0.00    -0.339 A  
HETATM   29  C   UNL     1     -10.957  16.077  70.172  1.00  0.00    -0.369 A  
HETATM   30  F   UNL     1     -11.602  16.847  72.294  1.00  0.00    -0.514 F  
HETATM   31  C   UNL     1     -11.056  15.124  69.152  1.00  0.00    -0.263 A  
HETATM   32  C   UNL     1     -12.584  13.833  70.485  1.00  0.00    -0.361 A  
ENDBRANCH  23  25
ENDBRANCH  10  23
ENDBRANCH   2   3
TORSDOF 8
ENDMDL
MODEL       18
REMARK 921   NORMALIZED FREE ENERGY PREDICTED BY IDOCK:   -6.68 KCAL/MOL
REMARK 922        TOTAL FREE ENERGY PREDICTED BY IDOCK:  -11.43 KCAL/MOL
REMARK 923 INTER-LIGAND FREE ENERGY PREDICTED BY IDOCK:  -10.17 KCAL/MOL
REMARK 924 INTRA-LIGAND FREE ENERGY PREDICTED BY IDOCK:   -1.26 KCAL/MOL
REMARK 927      BINDING AFFINITY PREDICTED BY RF-SCORE:    0.00 PKD
ROOT
HETATM    1  C   UNL     1      -9.158   7.058  67.579  1.00  0.00    -0.122 C  
HETATM    2  O   UNL     1     -10.291   7.898  67.790  1.00  0.00    -0.205 OA 
ENDROOT
BRANCH   2   3
HETATM    3  C   UNL     1     -10.312   9.060  67.063  1.00  0.00    -0.269 A  
HETATM    4  C   UNL     1     -10.817  10.215  67.664  1.00  0.00    -0.290 A  
HETATM    5  N   UNL     1      -9.496  10.244  63.733  1.00  0.00    -0.290 NA 
HETATM    6  C   UNL     1     -11.002  11.364  66.888  1.00  0.00    -0.355 A  
HETATM    7  C   UNL     1      -9.968  10.287  64.981  1.00  0.00    -0.323 A  
HETATM    8  C   UNL     1     -10.588  11.417  65.528  1.00  0.00    -0.328 A  
HETATM    9  C   UNL     1      -9.851   9.136  65.744  1.00  0.00    -0.248 A  
HETATM   10  C   UNL     1     -10.742  12.506  64.644  1.00  0.00    -0.311 A  
HETATM   11  N   UNL     1     -10.255  12.468  63.387  1.00  0.00    -0.369 NA 
HETATM   12  C   UNL     1      -9.652  11.343  63.000  1.00  0.00    -0.376 A  
BRANCH   4  13
HETATM   13  O   UNL     1     -11.227  10.334  68.966  1.00  0.00    -0.230 OA 
BRANCH  13  14
HETATM   14  C   UNL     1     -11.193  11.663  69.518  1.00  0.00    -0.213 C  
BRANCH  14  15
HETATM   15  C   UNL     1     -12.163  11.685  70.700  1.00  0.00    -0.461 C  
BRANCH  15  16
HETATM   16  C   UNL     1     -13.029  10.427  70.835  1.00  0.00    -0.387 C  
BRANCH  16  17
HETATM   17  N   UNL     1     -12.909   9.691  72.103  1.00  0.00    -0.389 NA 
HETATM   18  C   UNL     1     -11.693   8.839  72.108  1.00  0.00    -0.363 C  
HETATM   19  C   UNL     1     -11.814   7.586  71.223  1.00  0.00    -0.294 C  
HETATM   20  C   UNL     1     -14.064   8.820  72.416  1.00  0.00    -0.413 C  
HETATM   21  C   UNL     1     -14.145   7.526  71.587  1.00  0.00    -0.440 C  
HETATM   22  O   UNL     1     -12.923   6.778  71.632  1.00  0.00    -0.345 OA 
ENDBRANCH  16  17
ENDBRANCH  15  16
ENDBRANCH  14  15
ENDBRANCH  13  14
ENDBRANCH   4  13
BRANCH  10  23
HETATM   23  N   UNL     1     -11.498  13.640  65.043  1.00  0.00    -0.317 NA 
HETATM   24  H   UNL     1     -12.437  13.693  64.649  1.00  0.00     0.000 HD 
BRANCH  23  25
HETATM   25  C   UNL     1     -11.148  14.707  65.902  1.00  0.00    -0.338 A  
HETATM   26 CL   UNL     1     -12.000  15.726  69.692  1.00  0.00    -0.362 Cl 
HETATM   27  C   UNL     1     -10.699  16.893  67.623  1.00  0.00    -0.290 A  
HETATM   28  C   UNL     1     -11.392  15.778  68.081  1.00  0.00    -0.337 A  
HETATM   29  C   UNL     1     -10.219  16.930  66.324  1.00  0.00    -0.337 A  
HETATM   30  F   UNL     1     -10.496  17.955  68.418  1.00  0.00    -0.338 F  
HETATM   31  C   UNL     1     -10.452  15.846  65.470  1.00  0.00    -0.425 A  
HETATM   32  C   UNL     1     -11.618  14.693  67.227  1.00  0.00    -0.404 A  
ENDBRANCH  23  25
ENDBRANCH  10  23
ENDBRANCH   2   3
TORSDOF 8
ENDMDL
MODEL       19
REMARK 921   NORMALIZED FREE ENERGY PREDICTED BY IDOCK:   -6.68 KCAL/MOL
REMARK 922        TOTAL FREE ENERGY PREDICTED BY IDOCK:  -11.43 KCAL/MOL
REMARK 923 INTER-LIGAND FREE ENERGY PREDICTED BY IDOCK:  -10.00 KCAL/MOL
REMARK 924 INTRA-LIGAND FREE ENERGY PREDICTED BY IDOCK:   -1.43 KCAL/MOL
REMARK 927      BINDING AFFINITY PREDICTED BY RF-SCORE:    0.00 PKD
ROOT
HETATM    1  C   UNL     1     -10.396   7.109  67.741  1.00  0.00    -0.202 C  
HETATM    2  O   UNL     1     -10.357   8.347  68.448  1.00  0.00    -0.206 OA 
ENDROOT
BRANCH   2   3
HETATM    3  C   UNL     1     -10.321   9.474  67.668  1.00  0.00    -0.244 A  
HETATM    4  C   UNL     1     -10.647  10.700  68.250  1.00  0.00    -0.194 A  
HETATM    5  N   UNL     1      -9.686  10.424  64.225  1.00  0.00    -0.314 NA 
HETATM    6  C   UNL     1     -10.780  11.830  67.436  1.00  0.00    -0.277 A  
HETATM    7  C   UNL     1     -10.037  10.570  65.505  1.00  0.00    -0.283 A  
HETATM    8  C   UNL     1     -10.484  11.782  66.044  1.00  0.00    -0.286 A  
HETATM    9  C   UNL     1      -9.974   9.446  66.312  1.00  0.00    -0.353 A  
HETATM   10  C   UNL     1     -10.603  12.844  65.123  1.00  0.00    -0.302 A  
HETATM   11  N   UNL     1     -10.236  12.701  63.833  1.00  0.00    -0.384 NA 
HETATM   12  C   UNL     1      -9.790  11.503  63.454  1.00  0.00    -0.401 A  
BRANCH   4  13
HETATM   13  O   UNL     1     -10.925  10.917  69.574  1.00  0.00    -0.233 OA 
BRANCH  13  14
HETATM   14  C   UNL     1     -12.285  10.677  69.980  1.00  0.00    -0.298 C  
BRANCH  14  15
HETATM   15  C   UNL     1     -12.573  11.603  71.162  1.00  0.00    -0.439 C  
BRANCH  15  16
HETATM   16  C   UNL     1     -12.194  13.070  70.927  1.00  0.00    -0.220 C  
BRANCH  16  17
HETATM   17  N   UNL     1     -13.256  14.059  71.170  1.00  0.00    -0.302 NA 
HETATM   18  C   UNL     1     -12.820  15.417  70.755  1.00  0.00    -0.466 C  
HETATM   19  C   UNL     1     -11.801  16.057  71.714  1.00  0.00    -0.519 C  
HETATM   20  C   UNL     1     -13.699  14.145  72.579  1.00  0.00    -0.522 C  
HETATM   21  C   UNL     1     -12.716  14.857  73.528  1.00  0.00    -0.499 C  
HETATM   22  O   UNL     1     -12.335  16.149  73.039  1.00  0.00    -0.459 OA 
ENDBRANCH  16  17
ENDBRANCH  15  16
ENDBRANCH  14  15
ENDBRANCH  13  14
ENDBRANCH   4  13
BRANCH  10  23
HETATM   23  N   UNL     1     -11.198  14.068  65.526  1.00  0.00    -0.306 NA 
HETATM   24  H   UNL     1     -12.176  14.180  65.261  1.00  0.00     0.000 HD 
BRANCH  23  25
HETATM   25  C   UNL     1     -10.641  15.156  66.238  1.00  0.00    -0.310 A  
HETATM   26 CL   UNL     1      -7.179  17.187  66.115  1.00  0.00    -0.302 Cl 
HETATM   27  C   UNL     1      -9.348  17.163  67.736  1.00  0.00    -0.245 A  
HETATM   28  C   UNL     1      -8.736  16.636  66.604  1.00  0.00    -0.246 A  
HETATM   29  C   UNL     1     -10.598  16.710  68.126  1.00  0.00    -0.336 A  
HETATM   30  F   UNL     1      -8.740  18.101  68.477  1.00  0.00    -0.280 F  
HETATM   31  C   UNL     1     -11.233  15.708  67.385  1.00  0.00    -0.219 A  
HETATM   32  C   UNL     1      -9.376  15.638  65.860  1.00  0.00    -0.357 A  
ENDBRANCH  23  25
ENDBRANCH  10  23
ENDBRANCH   2   3
TORSDOF 8
ENDMDL
MODEL       20
REMARK 921   NORMALIZED FREE ENERGY PREDICTED BY IDOCK:   -6.67 KCAL/MOL
REMARK 922        TOTAL FREE ENERGY PREDICTED BY IDOCK:  -11.43 KCAL/MOL
REMARK 923 INTER-LIGAND FREE ENERGY PREDICTED BY IDOCK:  -10.31 KCAL/MOL
REMARK 924 INTRA-LIGAND FREE ENERGY PREDICTED BY IDOCK:   -1.11 KCAL/MOL
REMARK 927      BINDING AFFINITY PREDICTED BY RF-SCORE:    0.00 PKD
ROOT
HETATM    1  C   UNL     1     -12.651  15.483  74.135  1.00  0.00    -0.595 C  
HETATM    2  O   UNL     1     -13.395  14.577  73.323  1.00  0.00    -0.611 OA 
ENDROOT
BRANCH   2   3
HETATM    3  C   UNL     1     -12.910  14.380  72.056  1.00  0.00    -0.343 A  
HETATM    4  C   UNL     1     -12.829  13.076  71.566  1.00  0.00    -0.290 A  
HETATM    5  N   UNL     1     -11.539  16.300  69.301  1.00  0.00    -0.256 NA 
HETATM    6  C   UNL     1     -12.183  12.841  70.348  1.00  0.00    -0.371 A  
HETATM    7  C   UNL     1     -11.905  15.221  69.996  1.00  0.00    -0.334 A  
HETATM    8  C   UNL     1     -11.701  13.912  69.545  1.00  0.00    -0.369 A  
HETATM    9  C   UNL     1     -12.488  15.433  71.235  1.00  0.00    -0.460 A  
HETATM   10  C   UNL     1     -11.017  13.799  68.315  1.00  0.00    -0.250 A  
HETATM   11  N   UNL     1     -10.657  14.888  67.607  1.00  0.00    -0.260 NA 
HETATM   12  C   UNL     1     -10.944  16.080  68.131  1.00  0.00    -0.339 A  
BRANCH   4  13
HETATM   13  O   UNL     1     -13.274  11.945  72.202  1.00  0.00    -0.494 OA 
BRANCH  13  14
HETATM   14  C   UNL     1     -13.266  10.738  71.419  1.00  0.00    -0.287 C  
BRANCH  14  15
HETATM   15  C   UNL     1     -13.122   9.570  72.394  1.00  0.00    -0.430 C  
BRANCH  15  16
HETATM   16  C   UNL     1     -12.052   8.543  72.003  1.00  0.00    -0.364 C  
BRANCH  16  17
HETATM   17  N   UNL     1     -10.779   9.092  71.509  1.00  0.00    -0.325 NA 
HETATM   18  C   UNL     1     -10.658   8.911  70.040  1.00  0.00    -0.220 C  
HETATM   19  C   UNL     1     -10.366   7.460  69.619  1.00  0.00    -0.223 C  
HETATM   20  C   UNL     1      -9.575   8.496  72.131  1.00  0.00    -0.312 C  
HETATM   21  C   UNL     1      -9.233   7.073  71.654  1.00  0.00    -0.142 C  
HETATM   22  O   UNL     1      -9.158   6.987  70.225  1.00  0.00    -0.155 OA 
ENDBRANCH  16  17
ENDBRANCH  15  16
ENDBRANCH  14  15
ENDBRANCH  13  14
ENDBRANCH   4  13
BRANCH  10  23
HETATM   23  N   UNL     1     -10.615  12.521  67.844  1.00  0.00    -0.213 NA 
HETATM   24  H   UNL     1     -10.430  11.831  68.571  1.00  0.00     0.000 HD 
BRANCH  23  25
HETATM   25  C   UNL     1     -10.432  12.060  66.520  1.00  0.00    -0.221 A  
HETATM   26 CL   UNL     1     -12.709  11.861  63.217  1.00  0.00    -0.609 Cl 
HETATM   27  C   UNL     1     -10.252  10.970  63.927  1.00  0.00    -0.364 A  
HETATM   28  C   UNL     1     -11.391  11.669  64.310  1.00  0.00    -0.284 A  
HETATM   29  C   UNL     1      -9.199  10.814  64.814  1.00  0.00    -0.245 A  
HETATM   30  F   UNL     1     -10.156  10.421  62.706  1.00  0.00    -0.307 F  
HETATM   31  C   UNL     1      -9.296  11.349  66.103  1.00  0.00    -0.232 A  
HETATM   32  C   UNL     1     -11.483  12.210  65.598  1.00  0.00    -0.408 A  
ENDBRANCH  23  25
ENDBRANCH  10  23
ENDBRANCH   2   3
TORSDOF 8
ENDMDL
MODEL       21
REMARK 921   NORMALIZED FREE ENERGY PREDICTED BY IDOCK:   -6.62 KCAL/MOL
REMARK 922        TOTAL FREE ENERGY PREDICTED BY IDOCK:  -11.35 KCAL/MOL
REMARK 923 INTER-LIGAND FREE ENERGY PREDICTED BY IDOCK:  -10.22 KCAL/MOL
REMARK 924 INTRA-LIGAND FREE ENERGY PREDICTED BY IDOCK:   -1.13 KCAL/MOL
REMARK 927      BINDING AFFINITY PREDICTED BY RF-SCORE:    0.00 PKD
ROOT
HETATM    1  C   UNL     1     -12.281  12.913  63.402  1.00  0.00    -0.490 C  
HETATM    2  O   UNL     1     -11.478  13.333  64.504  1.00  0.00    -0.337 OA 
ENDROOT
BRANCH   2   3
HETATM    3  C   UNL     1     -11.155  12.356  65.410  1.00  0.00    -0.306 A  
HETATM    4  C   UNL     1     -11.563  12.513  66.735  1.00  0.00    -0.382 A  
HETATM    5  N   UNL     1      -9.333   9.223  65.552  1.00  0.00    -0.241 NA 
HETATM    6  C   UNL     1     -11.101  11.615  67.704  1.00  0.00    -0.314 A  
HETATM    7  C   UNL     1     -10.021  10.277  65.999  1.00  0.00    -0.245 A  
HETATM    8  C   UNL     1     -10.313  10.484  67.352  1.00  0.00    -0.269 A  
HETATM    9  C   UNL     1     -10.431  11.210  65.061  1.00  0.00    -0.357 A  
HETATM   10  C   UNL     1      -9.773   9.528  68.238  1.00  0.00    -0.147 A  
HETATM   11  N   UNL     1      -9.088   8.457  67.787  1.00  0.00    -0.135 NA 
HETATM   12  C   UNL     1      -8.911   8.356  66.469  1.00  0.00    -0.147 A  
BRANCH   4  13
HETATM   13  O   UNL     1     -12.346  13.526  67.225  1.00  0.00    -0.297 OA 
BRANCH  13  14
HETATM   14  C   UNL     1     -11.758  14.840  67.212  1.00  0.00    -0.347 C  
BRANCH  14  15
HETATM   15  C   UNL     1     -11.116  15.059  68.582  1.00  0.00    -0.272 C  
BRANCH  15  16
HETATM   16  C   UNL     1     -11.909  14.473  69.757  1.00  0.00    -0.315 C  
BRANCH  16  17
HETATM   17  N   UNL     1     -12.800  15.405  70.464  1.00  0.00    -0.413 NA 
HETATM   18  C   UNL     1     -12.089  16.072  71.585  1.00  0.00    -0.472 C  
HETATM   19  C   UNL     1     -11.846  15.154  72.795  1.00  0.00    -0.359 C  
HETATM   20  C   UNL     1     -14.020  14.779  71.022  1.00  0.00    -0.166 C  
HETATM   21  C   UNL     1     -13.793  13.922  72.281  1.00  0.00    -0.571 C  
HETATM   22  O   UNL     1     -13.083  14.638  73.300  1.00  0.00    -0.519 OA 
ENDBRANCH  16  17
ENDBRANCH  15  16
ENDBRANCH  14  15
ENDBRANCH  13  14
ENDBRANCH   4  13
BRANCH  10  23
HETATM   23  N   UNL     1      -9.869   9.727  69.640  1.00  0.00    -0.207 NA 
HETATM   24  H   UNL     1      -9.027  10.095  70.083  1.00  0.00     0.000 HD 
BRANCH  23  25
HETATM   25  C   UNL     1     -10.954   9.495  70.516  1.00  0.00    -0.288 A  
HETATM   26 CL   UNL     1     -12.724   6.248  72.084  1.00  0.00    -0.130 Cl 
HETATM   27  C   UNL     1     -13.232   8.908  72.071  1.00  0.00    -0.409 A  
HETATM   28  C   UNL     1     -12.384   7.884  71.663  1.00  0.00    -0.315 A  
HETATM   29  C   UNL     1     -12.956  10.220  71.722  1.00  0.00    -0.574 A  
HETATM   30  F   UNL     1     -14.335   8.648  72.789  1.00  0.00    -0.456 F  
HETATM   31  C   UNL     1     -11.829  10.507  70.944  1.00  0.00    -0.455 A  
HETATM   32  C   UNL     1     -11.254   8.173  70.890  1.00  0.00    -0.286 A  
ENDBRANCH  23  25
ENDBRANCH  10  23
ENDBRANCH   2   3
TORSDOF 8
ENDMDL
MODEL       22
REMARK 921   NORMALIZED FREE ENERGY PREDICTED BY IDOCK:   -6.62 KCAL/MOL
REMARK 922        TOTAL FREE ENERGY PREDICTED BY IDOCK:  -11.35 KCAL/MOL
REMARK 923 INTER-LIGAND FREE ENERGY PREDICTED BY IDOCK:   -9.84 KCAL/MOL
REMARK 924 INTRA-LIGAND FREE ENERGY PREDICTED BY IDOCK:   -1.51 KCAL/MOL
REMARK 927      BINDING AFFINITY PREDICTED BY RF-SCORE:    0.00 PKD
ROOT
HETATM    1  C   UNL     1     -10.589  18.432  65.770  1.00  0.00    -0.210 C  
HETATM    2  O   UNL     1     -10.267  17.075  65.470  1.00  0.00    -0.589 OA 
ENDROOT
BRANCH   2   3
HETATM    3  C   UNL     1     -10.533  16.169  66.464  1.00  0.00    -0.297 A  
HETATM    4  C   UNL     1     -10.573  14.813  66.138  1.00  0.00    -0.311 A  
HETATM    5  N   UNL     1     -11.342  16.114  70.000  1.00  0.00    -0.341 NA 
HETATM    6  C   UNL     1     -11.007  13.891  67.097  1.00  0.00    -0.298 A  
HETATM    7  C   UNL     1     -11.138  15.639  68.769  1.00  0.00    -0.307 A  
HETATM    8  C   UNL     1     -11.306  14.291  68.430  1.00  0.00    -0.309 A  
HETATM    9  C   UNL     1     -10.770  16.548  67.791  1.00  0.00    -0.329 A  
HETATM   10  C   UNL     1     -11.772  13.461  69.472  1.00  0.00    -0.324 A  
HETATM   11  N   UNL     1     -11.966  13.938  70.718  1.00  0.00    -0.310 NA 
HETATM   12  C   UNL     1     -11.734  15.236  70.919  1.00  0.00    -0.344 A  
BRANCH   4  13
HETATM   13  O   UNL     1     -10.283  14.267  64.915  1.00  0.00    -0.413 OA 
BRANCH  13  14
HETATM   14  C   UNL     1     -11.226  13.301  64.416  1.00  0.00    -0.381 C  
BRANCH  14  15
HETATM   15  C   UNL     1     -10.431  12.259  63.630  1.00  0.00    -0.483 C  
BRANCH  15  16
HETATM   16  C   UNL     1     -10.331  10.889  64.311  1.00  0.00    -0.368 C  
BRANCH  16  17
HETATM   17  N   UNL     1     -10.042  10.903  65.753  1.00  0.00    -0.243 NA 
HETATM   18  C   UNL     1      -8.606  11.187  66.003  1.00  0.00    -0.154 C  
HETATM   19  C   UNL     1      -7.677  10.003  65.678  1.00  0.00    -0.136 C  
HETATM   20  C   UNL     1     -10.374   9.643  66.455  1.00  0.00    -0.194 C  
HETATM   21  C   UNL     1      -9.402   8.478  66.195  1.00  0.00    -0.214 C  
HETATM   22  O   UNL     1      -8.039   8.847  66.441  1.00  0.00    -0.107 OA 
ENDBRANCH  16  17
ENDBRANCH  15  16
ENDBRANCH  14  15
ENDBRANCH  13  14
ENDBRANCH   4  13
BRANCH  10  23
HETATM   23  N   UNL     1     -12.130  12.115  69.199  1.00  0.00    -0.229 NA 
HETATM   24  H   UNL     1     -12.578  11.962  68.296  1.00  0.00     0.000 HD 
BRANCH  23  25
HETATM   25  C   UNL     1     -11.960  10.954  69.988  1.00  0.00    -0.350 A  
HETATM   26 CL   UNL     1     -14.261   8.854  72.522  1.00  0.00    -0.485 Cl 
HETATM   27  C   UNL     1     -11.662   8.787  71.765  1.00  0.00    -0.346 A  
HETATM   28  C   UNL     1     -12.902   9.398  71.614  1.00  0.00    -0.378 A  
HETATM   29  C   UNL     1     -10.572   9.234  71.036  1.00  0.00    -0.386 A  
HETATM   30  F   UNL     1     -11.492   7.770  72.624  1.00  0.00    -0.333 F  
HETATM   31  C   UNL     1     -10.722  10.316  70.162  1.00  0.00    -0.334 A  
HETATM   32  C   UNL     1     -13.051  10.475  70.734  1.00  0.00    -0.335 A  
ENDBRANCH  23  25
ENDBRANCH  10  23
ENDBRANCH   2   3
TORSDOF 8
ENDMDL
MODEL       23
REMARK 921   NORMALIZED FREE ENERGY PREDICTED BY IDOCK:   -6.62 KCAL/MOL
REMARK 922        TOTAL FREE ENERGY PREDICTED BY IDOCK:  -11.35 KCAL/MOL
REMARK 923 INTER-LIGAND FREE ENERGY PREDICTED BY IDOCK:  -10.10 KCAL/MOL
REMARK 924 INTRA-LIGAND FREE ENERGY PREDICTED BY IDOCK:   -1.25 KCAL/MOL
REMARK 927      BINDING AFFINITY PREDICTED BY RF-SCORE:    0.00 PKD
ROOT
HETATM    1  C   UNL     1     -10.877  16.378  67.982  1.00  0.00    -0.342 C  
HETATM    2  O   UNL     1     -10.186  15.132  68.049  1.00  0.00    -0.228 OA 
ENDROOT
BRANCH   2   3
HETATM    3  C   UNL     1     -10.753  14.182  68.858  1.00  0.00    -0.256 A  
HETATM    4  C   UNL     1     -10.460  12.839  68.619  1.00  0.00    -0.211 A  
HETATM    5  N   UNL     1     -13.068  13.959  71.642  1.00  0.00    -0.349 NA 
HETATM    6  C   UNL     1     -11.158  11.850  69.322  1.00  0.00    -0.264 A  
HETATM    7  C   UNL     1     -12.265  13.536  70.663  1.00  0.00    -0.358 A  
HETATM    8  C   UNL     1     -12.080  12.184  70.352  1.00  0.00    -0.395 A  
HETATM    9  C   UNL     1     -11.616  14.503  69.913  1.00  0.00    -0.340 A  
HETATM   10  C   UNL     1     -12.856  11.280  71.111  1.00  0.00    -0.352 A  
HETATM   11  N   UNL     1     -13.657  11.706  72.108  1.00  0.00    -0.212 NA 
HETATM   12  C   UNL     1     -13.715  13.020  72.327  1.00  0.00    -0.512 A  
BRANCH   4  13
HETATM   13  O   UNL     1      -9.576  12.358  67.688  1.00  0.00    -0.184 OA 
BRANCH  13  14
HETATM   14  C   UNL     1      -9.511  10.926  67.560  1.00  0.00    -0.155 C  
BRANCH  14  15
HETATM   15  C   UNL     1     -10.069  10.572  66.182  1.00  0.00    -0.306 C  
BRANCH  15  16
HETATM   16  C   UNL     1     -10.536  11.776  65.356  1.00  0.00    -0.272 C  
BRANCH  16  17
HETATM   17  N   UNL     1     -11.981  12.050  65.371  1.00  0.00    -0.403 NA 
HETATM   18  C   UNL     1     -12.565  11.893  64.015  1.00  0.00    -0.282 C  
HETATM   19  C   UNL     1     -12.209  13.039  63.053  1.00  0.00     0.026 C  
HETATM   20  C   UNL     1     -12.341  13.401  65.856  1.00  0.00    -0.437 C  
HETATM   21  C   UNL     1     -12.060  14.544  64.864  1.00  0.00    -0.416 C  
HETATM   22  O   UNL     1     -12.642  14.299  63.578  1.00  0.00    -0.814 OA 
ENDBRANCH  16  17
ENDBRANCH  15  16
ENDBRANCH  14  15
ENDBRANCH  13  14
ENDBRANCH   4  13
BRANCH  10  23
HETATM   23  N   UNL     1     -12.869   9.902  70.773  1.00  0.00    -0.530 NA 
HETATM   24  H   UNL     1     -13.347   9.675  69.901  1.00  0.00     0.000 HD 
BRANCH  23  25
HETATM   25  C   UNL     1     -12.320   8.794  71.460  1.00  0.00    -0.328 A  
HETATM   26 CL   UNL     1      -8.931   8.080  73.493  1.00  0.00    -0.330 Cl 
HETATM   27  C   UNL     1     -11.035   6.591  72.660  1.00  0.00    -0.255 A  
HETATM   28  C   UNL     1     -10.451   7.852  72.713  1.00  0.00    -0.346 A  
HETATM   29  C   UNL     1     -12.254   6.415  72.025  1.00  0.00    -0.320 A  
HETATM   30  F   UNL     1     -10.428   5.525  73.203  1.00  0.00    -0.193 F  
HETATM   31  C   UNL     1     -12.885   7.509  71.423  1.00  0.00    -0.381 A  
HETATM   32  C   UNL     1     -11.086   8.947  72.116  1.00  0.00    -0.355 A  
ENDBRANCH  23  25
ENDBRANCH  10  23
ENDBRANCH   2   3
TORSDOF 8
ENDMDL
MODEL       24
REMARK 921   NORMALIZED FREE ENERGY PREDICTED BY IDOCK:   -6.60 KCAL/MOL
REMARK 922        TOTAL FREE ENERGY PREDICTED BY IDOCK:  -11.32 KCAL/MOL
REMARK 923 INTER-LIGAND FREE ENERGY PREDICTED BY IDOCK:   -9.64 KCAL/MOL
REMARK 924 INTRA-LIGAND FREE ENERGY PREDICTED BY IDOCK:   -1.68 KCAL/MOL
REMARK 927      BINDING AFFINITY PREDICTED BY RF-SCORE:    0.00 PKD
ROOT
HETATM    1  C   UNL     1      -7.768   8.320  66.008  1.00  0.00    -0.093 C  
HETATM    2  O   UNL     1      -7.729   9.482  66.834  1.00  0.00    -0.097 OA 
ENDROOT
BRANCH   2   3
HETATM    3  C   UNL     1      -8.801   9.650  67.672  1.00  0.00    -0.125 A  
HETATM    4  C   UNL     1      -9.810  10.538  67.296  1.00  0.00    -0.177 A  
HETATM    5  N   UNL     1      -9.971   8.515  70.913  1.00  0.00    -0.183 NA 
HETATM    6  C   UNL     1     -10.823  10.850  68.210  1.00  0.00    -0.272 A  
HETATM    7  C   UNL     1      -9.956   9.220  69.779  1.00  0.00    -0.199 A  
HETATM    8  C   UNL     1     -10.908  10.200  69.474  1.00  0.00    -0.289 A  
HETATM    9  C   UNL     1      -8.924   8.971  68.890  1.00  0.00    -0.140 A  
HETATM   10  C   UNL     1     -11.865  10.446  70.482  1.00  0.00    -0.337 A  
HETATM   11  N   UNL     1     -11.887   9.725  71.622  1.00  0.00    -0.390 NA 
HETATM   12  C   UNL     1     -10.945   8.793  71.774  1.00  0.00    -0.345 A  
BRANCH   4  13
HETATM   13  O   UNL     1      -9.889  11.216  66.107  1.00  0.00    -0.210 OA 
BRANCH  13  14
HETATM   14  C   UNL     1     -10.496  10.502  65.014  1.00  0.00    -0.151 C  
BRANCH  14  15
HETATM   15  C   UNL     1     -11.093  11.546  64.071  1.00  0.00    -0.441 C  
BRANCH  15  16
HETATM   16  C   UNL     1     -10.560  12.969  64.279  1.00  0.00    -0.412 C  
BRANCH  16  17
HETATM   17  N   UNL     1     -11.573  14.031  64.382  1.00  0.00    -0.384 NA 
HETATM   18  C   UNL     1     -10.950  15.323  64.764  1.00  0.00    -0.386 C  
HETATM   19  C   UNL     1     -10.519  15.388  66.240  1.00  0.00    -0.303 C  
HETATM   20  C   UNL     1     -12.652  13.753  65.355  1.00  0.00    -0.497 C  
HETATM   21  C   UNL     1     -12.246  13.893  66.834  1.00  0.00    -0.377 C  
HETATM   22  O   UNL     1     -11.635  15.160  67.108  1.00  0.00    -0.311 OA 
ENDBRANCH  16  17
ENDBRANCH  15  16
ENDBRANCH  14  15
ENDBRANCH  13  14
ENDBRANCH   4  13
BRANCH  10  23
HETATM   23  N   UNL     1     -12.776  11.526  70.346  1.00  0.00    -0.122 NA 
HETATM   24  H   UNL     1     -13.552  11.359  69.706  1.00  0.00     0.000 HD 
BRANCH  23  25
HETATM   25  C   UNL     1     -12.772  12.798  70.963  1.00  0.00    -0.243 A  
HETATM   26 CL   UNL     1     -11.017  16.334  70.220  1.00  0.00    -0.342 Cl 
HETATM   27  C   UNL     1     -12.512  15.303  72.229  1.00  0.00    -0.361 A  
HETATM   28  C   UNL     1     -11.924  15.086  70.988  1.00  0.00    -0.322 A  
HETATM   29  C   UNL     1     -13.235  14.293  72.843  1.00  0.00    -0.593 A  
HETATM   30  F   UNL     1     -12.380  16.480  72.861  1.00  0.00    -0.510 F  
HETATM   31  C   UNL     1     -13.354  13.048  72.215  1.00  0.00    -0.606 A  
HETATM   32  C   UNL     1     -12.050  13.843  70.359  1.00  0.00    -0.421 A  
ENDBRANCH  23  25
ENDBRANCH  10  23
ENDBRANCH   2   3
TORSDOF 8
ENDMDL
MODEL       25
REMARK 921   NORMALIZED FREE ENERGY PREDICTED BY IDOCK:   -6.58 KCAL/MOL
REMARK 922        TOTAL FREE ENERGY PREDICTED BY IDOCK:  -11.29 KCAL/MOL
REMARK 923 INTER-LIGAND FREE ENERGY PREDICTED BY IDOCK:   -9.73 KCAL/MOL
REMARK 924 INTRA-LIGAND FREE ENERGY PREDICTED BY IDOCK:   -1.56 KCAL/MOL
REMARK 927      BINDING AFFINITY PREDICTED BY RF-SCORE:    0.00 PKD
ROOT
HETATM    1  C   UNL     1     -13.303  15.911  73.291  1.00  0.00    -0.564 C  
HETATM    2  O   UNL     1     -12.204  15.102  72.877  1.00  0.00    -0.358 OA 
ENDROOT
BRANCH   2   3
HETATM    3  C   UNL     1     -12.020  14.999  71.523  1.00  0.00    -0.357 A  
HETATM    4  C   UNL     1     -12.363  13.803  70.891  1.00  0.00    -0.380 A  
HETATM    5  N   UNL     1     -10.726  16.962  68.760  1.00  0.00    -0.341 NA 
HETATM    6  C   UNL     1     -12.027  13.619  69.545  1.00  0.00    -0.397 A  
HETATM    7  C   UNL     1     -11.223  15.899  69.398  1.00  0.00    -0.336 A  
HETATM    8  C   UNL     1     -11.442  14.665  68.776  1.00  0.00    -0.322 A  
HETATM    9  C   UNL     1     -11.501  16.043  70.748  1.00  0.00    -0.444 A  
HETATM   10  C   UNL     1     -11.041  14.591  67.425  1.00  0.00    -0.314 A  
HETATM   11  N   UNL     1     -10.551  15.667  66.776  1.00  0.00    -0.306 NA 
HETATM   12  C   UNL     1     -10.427  16.796  67.474  1.00  0.00    -0.319 A  
BRANCH   4  13
HETATM   13  O   UNL     1     -12.958  12.719  71.482  1.00  0.00    -0.377 OA 
BRANCH  13  14
HETATM   14  C   UNL     1     -12.634  11.436  70.916  1.00  0.00    -0.356 C  
BRANCH  14  15
HETATM   15  C   UNL     1     -13.060  10.375  71.932  1.00  0.00    -0.563 C  
BRANCH  15  16
HETATM   16  C   UNL     1     -12.940   8.931  71.431  1.00  0.00    -0.278 C  
BRANCH  16  17
HETATM   17  N   UNL     1     -11.945   8.090  72.114  1.00  0.00    -0.329 NA 
HETATM   18  C   UNL     1     -10.576   8.637  71.934  1.00  0.00    -0.340 C  
HETATM   19  C   UNL     1     -10.006   8.422  70.521  1.00  0.00    -0.185 C  
HETATM   20  C   UNL     1     -11.923   6.681  71.663  1.00  0.00    -0.347 C  
HETATM   21  C   UNL     1     -11.281   6.450  70.282  1.00  0.00    -0.382 C  
HETATM   22  O   UNL     1      -9.973   7.029  70.192  1.00  0.00    -0.181 OA 
ENDBRANCH  16  17
ENDBRANCH  15  16
ENDBRANCH  14  15
ENDBRANCH  13  14
ENDBRANCH   4  13
BRANCH  10  23
HETATM   23  N   UNL     1     -11.068  13.345  66.745  1.00  0.00    -0.288 NA 
HETATM   24  H   UNL     1     -11.841  13.227  66.091  1.00  0.00     0.000 HD 
BRANCH  23  25
HETATM   25  C   UNL     1     -10.187  12.243  66.837  1.00  0.00    -0.213 A  
HETATM   26 CL   UNL     1     -10.602   8.250  66.980  1.00  0.00    -0.380 Cl 
HETATM   27  C   UNL     1      -8.542   9.990  67.243  1.00  0.00    -0.125 A  
HETATM   28  C   UNL     1      -9.903   9.825  67.007  1.00  0.00    -0.193 A  
HETATM   29  C   UNL     1      -7.989  11.260  67.270  1.00  0.00    -0.141 A  
HETATM   30  F   UNL     1      -7.746   8.933  67.463  1.00  0.00    -0.095 F  
HETATM   31  C   UNL     1      -8.811  12.376  67.077  1.00  0.00    -0.210 A  
HETATM   32  C   UNL     1     -10.721  10.943  66.808  1.00  0.00    -0.309 A  
ENDBRANCH  23  25
ENDBRANCH  10  23
ENDBRANCH   2   3
TORSDOF 8
ENDMDL
MODEL       26
REMARK 921   NORMALIZED FREE ENERGY PREDICTED BY IDOCK:   -6.56 KCAL/MOL
REMARK 922        TOTAL FREE ENERGY PREDICTED BY IDOCK:  -11.26 KCAL/MOL
REMARK 923 INTER-LIGAND FREE ENERGY PREDICTED BY IDOCK:  -10.05 KCAL/MOL
REMARK 924 INTRA-LIGAND FREE ENERGY PREDICTED BY IDOCK:   -1.21 KCAL/MOL
REMARK 927      BINDING AFFINITY PREDICTED BY RF-SCORE:    0.00 PKD
ROOT
HETATM    1  C   UNL     1     -14.277   8.602  71.839  1.00  0.00    -0.427 C  
HETATM    2  O   UNL     1     -13.169   9.340  72.352  1.00  0.00    -0.431 OA 
ENDROOT
BRANCH   2   3
HETATM    3  C   UNL     1     -12.988  10.588  71.815  1.00  0.00    -0.476 A  
HETATM    4  C   UNL     1     -12.144  10.724  70.712  1.00  0.00    -0.372 A  
HETATM    5  N   UNL     1     -13.996  14.020  72.416  1.00  0.00    -0.611 NA 
HETATM    6  C   UNL     1     -11.814  12.006  70.257  1.00  0.00    -0.356 A  
HETATM    7  C   UNL     1     -13.345  13.002  71.847  1.00  0.00    -0.446 A  
HETATM    8  C   UNL     1     -12.405  13.170  70.824  1.00  0.00    -0.404 A  
HETATM    9  C   UNL     1     -13.611  11.731  72.329  1.00  0.00    -0.052 A  
HETATM   10  C   UNL     1     -12.135  14.508  70.467  1.00  0.00    -0.325 A  
HETATM   11  N   UNL     1     -12.801  15.535  71.032  1.00  0.00    -0.467 NA 
HETATM   12  C   UNL     1     -13.701  15.238  71.970  1.00  0.00    -0.492 A  
BRANCH   4  13
HETATM   13  O   UNL     1     -11.526   9.704  70.036  1.00  0.00    -0.225 OA 
BRANCH  13  14
HETATM   14  C   UNL     1     -10.139   9.488  70.353  1.00  0.00    -0.271 C  
BRANCH  14  15
HETATM   15  C   UNL     1      -9.881   7.985  70.245  1.00  0.00    -0.184 C  
BRANCH  15  16
HETATM   16  C   UNL     1      -9.657   7.280  71.588  1.00  0.00    -0.151 C  
BRANCH  16  17
HETATM   17  N   UNL     1     -10.835   7.158  72.460  1.00  0.00    -0.248 NA 
HETATM   18  C   UNL     1     -10.462   7.343  73.885  1.00  0.00    -0.061 C  
HETATM   19  C   UNL     1      -9.710   6.143  74.486  1.00  0.00    -0.277 C  
HETATM   20  C   UNL     1     -11.545   5.864  72.350  1.00  0.00    -0.288 C  
HETATM   21  C   UNL     1     -10.833   4.674  73.020  1.00  0.00    -0.247 C  
HETATM   22  O   UNL     1     -10.492   4.948  74.385  1.00  0.00    -0.264 OA 
ENDBRANCH  16  17
ENDBRANCH  15  16
ENDBRANCH  14  15
ENDBRANCH  13  14
ENDBRANCH   4  13
BRANCH  10  23
HETATM   23  N   UNL     1     -11.085  14.801  69.557  1.00  0.00    -0.270 NA 
HETATM   24  H   UNL     1     -10.153  14.828  69.969  1.00  0.00     0.000 HD 
BRANCH  23  25
HETATM   25  C   UNL     1     -11.135  15.060  68.168  1.00  0.00    -0.291 A  
HETATM   26 CL   UNL     1     -12.733  13.230  64.970  1.00  0.00    -0.472 Cl 
HETATM   27  C   UNL     1     -11.104  15.358  65.365  1.00  0.00    -0.326 A  
HETATM   28  C   UNL     1     -11.844  14.335  65.949  1.00  0.00    -0.380 A  
HETATM   29  C   UNL     1     -10.387  16.238  66.159  1.00  0.00    -0.352 A  
HETATM   30  F   UNL     1     -11.056  15.502  64.032  1.00  0.00    -0.152 F  
HETATM   31  C   UNL     1     -10.398  16.082  67.549  1.00  0.00    -0.287 A  
HETATM   32  C   UNL     1     -11.859  14.184  67.340  1.00  0.00    -0.447 A  
ENDBRANCH  23  25
ENDBRANCH  10  23
ENDBRANCH   2   3
TORSDOF 8
ENDMDL
MODEL       27
REMARK 921   NORMALIZED FREE ENERGY PREDICTED BY IDOCK:   -6.55 KCAL/MOL
REMARK 922        TOTAL FREE ENERGY PREDICTED BY IDOCK:  -11.24 KCAL/MOL
REMARK 923 INTER-LIGAND FREE ENERGY PREDICTED BY IDOCK:  -10.07 KCAL/MOL
REMARK 924 INTRA-LIGAND FREE ENERGY PREDICTED BY IDOCK:   -1.17 KCAL/MOL
REMARK 927      BINDING AFFINITY PREDICTED BY RF-SCORE:    0.00 PKD
ROOT
HETATM    1  C   UNL     1     -10.827  15.541  64.793  1.00  0.00    -0.363 C  
HETATM    2  O   UNL     1     -11.738  14.452  64.665  1.00  0.00    -0.393 OA 
ENDROOT
BRANCH   2   3
HETATM    3  C   UNL     1     -11.470  13.359  65.447  1.00  0.00    -0.302 A  
HETATM    4  C   UNL     1     -11.736  13.434  66.815  1.00  0.00    -0.385 A  
HETATM    5  N   UNL     1     -10.072  10.025  65.140  1.00  0.00    -0.288 NA 
HETATM    6  C   UNL     1     -11.314  12.396  67.653  1.00  0.00    -0.371 A  
HETATM    7  C   UNL     1     -10.574  11.107  65.741  1.00  0.00    -0.227 A  
HETATM    8  C   UNL     1     -10.716  11.216  67.129  1.00  0.00    -0.305 A  
HETATM    9  C   UNL     1     -10.937  12.171  64.932  1.00  0.00    -0.355 A  
HETATM   10  C   UNL     1     -10.232  10.118  67.873  1.00  0.00    -0.180 A  
HETATM   11  N   UNL     1      -9.737   9.020  67.265  1.00  0.00    -0.168 NA 
HETATM   12  C   UNL     1      -9.690   9.028  65.933  1.00  0.00    -0.236 A  
BRANCH   4  13
HETATM   13  O   UNL     1     -12.332  14.484  67.465  1.00  0.00    -0.240 OA 
BRANCH  13  14
HETATM   14  C   UNL     1     -11.742  14.864  68.722  1.00  0.00    -0.325 C  
BRANCH  14  15
HETATM   15  C   UNL     1     -11.423  16.357  68.636  1.00  0.00    -0.224 C  
BRANCH  15  16
HETATM   16  C   UNL     1      -9.981  16.676  68.222  1.00  0.00    -0.261 C  
BRANCH  16  17
HETATM   17  N   UNL     1      -9.532  18.057  68.456  1.00  0.00    -0.311 NA 
HETATM   18  C   UNL     1     -10.466  19.030  67.835  1.00  0.00    -0.393 C  
HETATM   19  C   UNL     1     -10.358  19.098  66.301  1.00  0.00    -0.474 C  
HETATM   20  C   UNL     1      -8.176  18.353  67.942  1.00  0.00    -0.260 C  
HETATM   21  C   UNL     1      -8.078  18.500  66.413  1.00  0.00    -0.273 C  
HETATM   22  O   UNL     1      -9.028  19.442  65.899  1.00  0.00    -0.422 OA 
ENDBRANCH  16  17
ENDBRANCH  15  16
ENDBRANCH  14  15
ENDBRANCH  13  14
ENDBRANCH   4  13
BRANCH  10  23
HETATM   23  N   UNL     1     -10.179  10.190  69.289  1.00  0.00    -0.208 NA 
HETATM   24  H   UNL     1      -9.298  10.534  69.671  1.00  0.00     0.000 HD 
BRANCH  23  25
HETATM   25  C   UNL     1     -11.160   9.860  70.251  1.00  0.00    -0.308 A  
HETATM   26 CL   UNL     1     -12.502   6.463  71.921  1.00  0.00    -0.328 Cl 
HETATM   27  C   UNL     1     -13.237   9.069  71.986  1.00  0.00    -0.429 A  
HETATM   28  C   UNL     1     -12.342   8.124  71.494  1.00  0.00    -0.306 A  
HETATM   29  C   UNL     1     -13.105  10.402  71.633  1.00  0.00    -0.553 A  
HETATM   30  F   UNL     1     -14.247   8.710  72.793  1.00  0.00    -0.439 F  
HETATM   31  C   UNL     1     -12.079  10.789  70.765  1.00  0.00    -0.473 A  
HETATM   32  C   UNL     1     -11.312   8.515  70.632  1.00  0.00    -0.265 A  
ENDBRANCH  23  25
ENDBRANCH  10  23
ENDBRANCH   2   3
TORSDOF 8
ENDMDL
MODEL       28
REMARK 921   NORMALIZED FREE ENERGY PREDICTED BY IDOCK:   -6.53 KCAL/MOL
REMARK 922        TOTAL FREE ENERGY PREDICTED BY IDOCK:  -11.21 KCAL/MOL
REMARK 923 INTER-LIGAND FREE ENERGY PREDICTED BY IDOCK:  -10.07 KCAL/MOL
REMARK 924 INTRA-LIGAND FREE ENERGY PREDICTED BY IDOCK:   -1.14 KCAL/MOL
REMARK 927      BINDING AFFINITY PREDICTED BY RF-SCORE:    0.00 PKD
ROOT
HETATM    1  C   UNL     1     -11.758  15.749  64.210  1.00  0.00    -0.162 C  
HETATM    2  O   UNL     1     -12.516  14.549  64.356  1.00  0.00    -0.633 OA 
ENDROOT
BRANCH   2   3
HETATM    3  C   UNL     1     -11.891  13.532  65.029  1.00  0.00    -0.353 A  
HETATM    4  C   UNL     1     -11.815  13.598  66.421  1.00  0.00    -0.398 A  
HETATM    5  N   UNL     1     -10.106  10.452  64.328  1.00  0.00    -0.307 NA 
HETATM    6  C   UNL     1     -11.038  12.660  67.109  1.00  0.00    -0.321 A  
HETATM    7  C   UNL     1     -10.605  11.456  65.052  1.00  0.00    -0.299 A  
HETATM    8  C   UNL     1     -10.412  11.576  66.434  1.00  0.00    -0.292 A  
HETATM    9  C   UNL     1     -11.323  12.430  64.377  1.00  0.00    -0.396 A  
HETATM   10  C   UNL     1      -9.589  10.586  67.014  1.00  0.00    -0.173 A  
HETATM   11  N   UNL     1      -9.095   9.565  66.285  1.00  0.00    -0.155 NA 
HETATM   12  C   UNL     1      -9.385   9.547  64.984  1.00  0.00    -0.229 A  
BRANCH   4  13
HETATM   13  O   UNL     1     -12.388  14.556  67.216  1.00  0.00    -0.276 OA 
BRANCH  13  14
HETATM   14  C   UNL     1     -11.785  14.745  68.509  1.00  0.00    -0.317 C  
BRANCH  14  15
HETATM   15  C   UNL     1     -11.657  16.252  68.731  1.00  0.00    -0.223 C  
BRANCH  15  16
HETATM   16  C   UNL     1     -10.618  16.940  67.838  1.00  0.00    -0.361 C  
BRANCH  16  17
HETATM   17  N   UNL     1     -10.162  18.267  68.280  1.00  0.00    -0.376 NA 
HETATM   18  C   UNL     1     -10.885  19.345  67.559  1.00  0.00    -0.404 C  
HETATM   19  C   UNL     1     -10.439  19.516  66.097  1.00  0.00    -0.518 C  
HETATM   20  C   UNL     1      -8.712  18.506  68.099  1.00  0.00    -0.310 C  
HETATM   21  C   UNL     1      -8.272  18.757  66.645  1.00  0.00    -0.289 C  
HETATM   22  O   UNL     1      -9.037  19.797  66.021  1.00  0.00    -0.367 OA 
ENDBRANCH  16  17
ENDBRANCH  15  16
ENDBRANCH  14  15
ENDBRANCH  13  14
ENDBRANCH   4  13
BRANCH  10  23
HETATM   23  N   UNL     1      -9.196  10.700  68.373  1.00  0.00    -0.152 NA 
HETATM   24  H   UNL     1      -8.472  11.396  68.556  1.00  0.00     0.000 HD 
BRANCH  23  25
HETATM   25  C   UNL     1      -9.653   9.998  69.512  1.00  0.00    -0.230 A  
HETATM   26 CL   UNL     1     -13.102   9.805  71.561  1.00  0.00    -0.469 Cl 
HETATM   27  C   UNL     1     -10.599   8.826  71.895  1.00  0.00    -0.354 A  
HETATM   28  C   UNL     1     -11.459   9.572  71.097  1.00  0.00    -0.360 A  
HETATM   29  C   UNL     1      -9.278   8.649  71.517  1.00  0.00    -0.316 A  
HETATM   30  F   UNL     1     -11.022   8.280  73.045  1.00  0.00    -0.410 F  
HETATM   31  C   UNL     1      -8.810   9.239  70.339  1.00  0.00    -0.271 A  
HETATM   32  C   UNL     1     -10.991  10.156  69.915  1.00  0.00    -0.344 A  
ENDBRANCH  23  25
ENDBRANCH  10  23
ENDBRANCH   2   3
TORSDOF 8
ENDMDL
MODEL       29
REMARK 921   NORMALIZED FREE ENERGY PREDICTED BY IDOCK:   -6.50 KCAL/MOL
REMARK 922        TOTAL FREE ENERGY PREDICTED BY IDOCK:  -11.17 KCAL/MOL
REMARK 923 INTER-LIGAND FREE ENERGY PREDICTED BY IDOCK:   -9.84 KCAL/MOL
REMARK 924 INTRA-LIGAND FREE ENERGY PREDICTED BY IDOCK:   -1.33 KCAL/MOL
REMARK 927      BINDING AFFINITY PREDICTED BY RF-SCORE:    0.00 PKD
ROOT
HETATM    1  C   UNL     1     -11.778  15.669  64.117  1.00  0.00    -0.075 C  
HETATM    2  O   UNL     1     -12.592  14.526  64.377  1.00  0.00    -0.665 OA 
ENDROOT
BRANCH   2   3
HETATM    3  C   UNL     1     -11.916  13.357  64.610  1.00  0.00    -0.399 A  
HETATM    4  C   UNL     1     -11.923  12.827  65.901  1.00  0.00    -0.449 A  
HETATM    5  N   UNL     1      -9.824  10.982  62.837  1.00  0.00    -0.306 NA 
HETATM    6  C   UNL     1     -11.103  11.732  66.196  1.00  0.00    -0.358 A  
HETATM    7  C   UNL     1     -10.451  11.550  63.870  1.00  0.00    -0.385 A  
HETATM    8  C   UNL     1     -10.345  11.079  65.184  1.00  0.00    -0.346 A  
HETATM    9  C   UNL     1     -11.216  12.675  63.608  1.00  0.00    -0.525 A  
HETATM   10  C   UNL     1      -9.470   9.986  65.364  1.00  0.00    -0.250 A  
HETATM   11  N   UNL     1      -8.846   9.405  64.319  1.00  0.00    -0.206 NA 
HETATM   12  C   UNL     1      -9.061   9.927  63.111  1.00  0.00    -0.266 A  
BRANCH   4  13
HETATM   13  O   UNL     1     -12.623  13.319  66.972  1.00  0.00    -0.152 OA 
BRANCH  13  14
HETATM   14  C   UNL     1     -11.865  13.530  68.177  1.00  0.00    -0.365 C  
BRANCH  14  15
HETATM   15  C   UNL     1     -11.648  15.037  68.316  1.00  0.00    -0.355 C  
BRANCH  15  16
HETATM   16  C   UNL     1     -10.449  15.582  67.531  1.00  0.00    -0.282 C  
BRANCH  16  17
HETATM   17  N   UNL     1      -9.765  16.744  68.119  1.00  0.00    -0.240 NA 
HETATM   18  C   UNL     1     -10.428  18.010  67.716  1.00  0.00    -0.408 C  
HETATM   19  C   UNL     1     -10.163  18.408  66.254  1.00  0.00    -0.406 C  
HETATM   20  C   UNL     1      -8.334  16.857  67.757  1.00  0.00    -0.194 C  
HETATM   21  C   UNL     1      -8.063  17.332  66.318  1.00  0.00    -0.280 C  
HETATM   22  O   UNL     1      -8.759  18.547  66.010  1.00  0.00    -0.497 OA 
ENDBRANCH  16  17
ENDBRANCH  15  16
ENDBRANCH  14  15
ENDBRANCH  13  14
ENDBRANCH   4  13
BRANCH  10  23
HETATM   23  N   UNL     1      -9.164   9.532  66.673  1.00  0.00    -0.147 NA 
HETATM   24  H   UNL     1      -8.293   9.893  67.063  1.00  0.00     0.000 HD 
BRANCH  23  25
HETATM   25  C   UNL     1      -9.881   8.656  67.520  1.00  0.00    -0.180 A  
HETATM   26 CL   UNL     1     -11.040   8.702  71.365  1.00  0.00    -0.317 Cl 
HETATM   27  C   UNL     1     -11.099   6.892  69.351  1.00  0.00    -0.206 A  
HETATM   28  C   UNL     1     -10.751   8.179  69.750  1.00  0.00    -0.229 A  
HETATM   29  C   UNL     1     -10.857   6.477  68.052  1.00  0.00    -0.372 A  
HETATM   30  F   UNL     1     -11.657   6.029  70.214  1.00  0.00    -0.423 F  
HETATM   31  C   UNL     1     -10.244   7.352  67.149  1.00  0.00    -0.347 A  
HETATM   32  C   UNL     1     -10.144   9.055  68.843  1.00  0.00    -0.207 A  
ENDBRANCH  23  25
ENDBRANCH  10  23
ENDBRANCH   2   3
TORSDOF 8
ENDMDL
MODEL       30
REMARK 921   NORMALIZED FREE ENERGY PREDICTED BY IDOCK:   -6.49 KCAL/MOL
REMARK 922        TOTAL FREE ENERGY PREDICTED BY IDOCK:  -11.15 KCAL/MOL
REMARK 923 INTER-LIGAND FREE ENERGY PREDICTED BY IDOCK:   -9.72 KCAL/MOL
REMARK 924 INTRA-LIGAND FREE ENERGY PREDICTED BY IDOCK:   -1.44 KCAL/MOL
REMARK 927      BINDING AFFINITY PREDICTED BY RF-SCORE:    0.00 PKD
ROOT
HETATM    1  C   UNL     1     -10.744   6.335  73.193  1.00  0.00    -0.261 C  
HETATM    2  O   UNL     1     -10.929   7.747  73.103  1.00  0.00    -0.396 OA 
ENDROOT
BRANCH   2   3
HETATM    3  C   UNL     1     -10.728   8.293  71.863  1.00  0.00    -0.283 A  
HETATM    4  C   UNL     1     -11.530   9.365  71.467  1.00  0.00    -0.397 A  
HETATM    5  N   UNL     1      -8.664   7.779  68.925  1.00  0.00    -0.135 NA 
HETATM    6  C   UNL     1     -11.457   9.825  70.148  1.00  0.00    -0.272 A  
HETATM    7  C   UNL     1      -9.625   8.309  69.685  1.00  0.00    -0.167 A  
HETATM    8  C   UNL     1     -10.506   9.297  69.230  1.00  0.00    -0.228 A  
HETATM    9  C   UNL     1      -9.756   7.820  70.974  1.00  0.00    -0.174 A  
HETATM   10  C   UNL     1     -10.353   9.662  67.875  1.00  0.00    -0.224 A  
HETATM   11  N   UNL     1      -9.375   9.137  67.110  1.00  0.00    -0.140 NA 
HETATM   12  C   UNL     1      -8.577   8.231  67.676  1.00  0.00    -0.130 A  
BRANCH   4  13
HETATM   13  O   UNL     1     -12.466  10.002  72.240  1.00  0.00    -0.225 OA 
BRANCH  13  14
HETATM   14  C   UNL     1     -13.388  10.856  71.538  1.00  0.00    -0.193 C  
BRANCH  14  15
HETATM   15  C   UNL     1     -13.274  12.248  72.160  1.00  0.00    -0.466 C  
BRANCH  15  16
HETATM   16  C   UNL     1     -12.798  13.339  71.193  1.00  0.00    -0.280 C  
BRANCH  16  17
HETATM   17  N   UNL     1     -13.534  14.612  71.240  1.00  0.00    -0.376 NA 
HETATM   18  C   UNL     1     -12.783  15.685  70.540  1.00  0.00    -0.346 C  
HETATM   19  C   UNL     1     -11.561  16.194  71.324  1.00  0.00    -0.413 C  
HETATM   20  C   UNL     1     -13.832  15.095  72.606  1.00  0.00    -0.469 C  
HETATM   21  C   UNL     1     -12.626  15.679  73.366  1.00  0.00    -0.533 C  
HETATM   22  O   UNL     1     -11.950  16.691  72.609  1.00  0.00    -0.490 OA 
ENDBRANCH  16  17
ENDBRANCH  15  16
ENDBRANCH  14  15
ENDBRANCH  13  14
ENDBRANCH   4  13
BRANCH  10  23
HETATM   23  N   UNL     1     -11.294  10.534  67.266  1.00  0.00    -0.371 NA 
HETATM   24  H   UNL     1     -12.125  10.079  66.891  1.00  0.00     0.000 HD 
BRANCH  23  25
HETATM   25  C   UNL     1     -11.254  11.938  67.102  1.00  0.00    -0.319 A  
HETATM   26 CL   UNL     1     -12.372  14.517  64.233  1.00  0.00    -0.474 Cl 
HETATM   27  C   UNL     1     -11.021  14.697  66.574  1.00  0.00    -0.318 A  
HETATM   28  C   UNL     1     -11.693  13.871  65.679  1.00  0.00    -0.354 A  
HETATM   29  C   UNL     1     -10.472  14.169  67.731  1.00  0.00    -0.246 A  
HETATM   30  F   UNL     1     -10.877  16.009  66.329  1.00  0.00    -0.313 F  
HETATM   31  C   UNL     1     -10.583  12.798  67.986  1.00  0.00    -0.238 A  
HETATM   32  C   UNL     1     -11.808  12.501  65.939  1.00  0.00    -0.489 A  
ENDBRANCH  23  25
ENDBRANCH  10  23
ENDBRANCH   2   3
TORSDOF 8
ENDMDL
MODEL       31
REMARK 921   NORMALIZED FREE ENERGY PREDICTED BY IDOCK:   -6.48 KCAL/MOL
REMARK 922        TOTAL FREE ENERGY PREDICTED BY IDOCK:  -11.14 KCAL/MOL
REMARK 923 INTER-LIGAND FREE ENERGY PREDICTED BY IDOCK:  -10.05 KCAL/MOL
REMARK 924 INTRA-LIGAND FREE ENERGY PREDICTED BY IDOCK:   -1.09 KCAL/MOL
REMARK 927      BINDING AFFINITY PREDICTED BY RF-SCORE:    0.00 PKD
ROOT
HETATM    1  C   UNL     1     -13.223  15.895  73.404  1.00  0.00    -0.562 C  
HETATM    2  O   UNL     1     -13.979  15.223  72.398  1.00  0.00    -0.486 OA 
ENDROOT
BRANCH   2   3
HETATM    3  C   UNL     1     -13.356  14.157  71.802  1.00  0.00    -0.380 A  
HETATM    4  C   UNL     1     -12.589  14.384  70.659  1.00  0.00    -0.357 A  
HETATM    5  N   UNL     1     -13.080  10.560  72.186  1.00  0.00    -0.414 NA 
HETATM    6  C   UNL     1     -12.087  13.292  69.943  1.00  0.00    -0.377 A  
HETATM    7  C   UNL     1     -12.915  11.762  71.628  1.00  0.00    -0.362 A  
HETATM    8  C   UNL     1     -12.250  11.959  70.412  1.00  0.00    -0.399 A  
HETATM    9  C   UNL     1     -13.461  12.849  72.291  1.00  0.00    -0.631 A  
HETATM   10  C   UNL     1     -11.811  10.782  69.769  1.00  0.00    -0.335 A  
HETATM   11  N   UNL     1     -11.967   9.569  70.337  1.00  0.00    -0.137 NA 
HETATM   12  C   UNL     1     -12.585   9.522  71.517  1.00  0.00    -0.373 A  
BRANCH   4  13
HETATM   13  O   UNL     1     -12.314  15.606  70.101  1.00  0.00    -0.395 OA 
BRANCH  13  14
HETATM   14  C   UNL     1     -11.595  15.581  68.854  1.00  0.00    -0.373 C  
BRANCH  14  15
HETATM   15  C   UNL     1     -10.686  16.810  68.833  1.00  0.00    -0.333 C  
BRANCH  15  16
HETATM   16  C   UNL     1     -10.601  17.515  67.475  1.00  0.00    -0.333 C  
BRANCH  16  17
HETATM   17  N   UNL     1     -10.732  18.980  67.497  1.00  0.00    -0.463 NA 
HETATM   18  C   UNL     1     -10.222  19.577  66.236  1.00  0.00    -0.488 C  
HETATM   19  C   UNL     1      -8.688  19.568  66.125  1.00  0.00    -0.311 C  
HETATM   20  C   UNL     1     -10.025  19.640  68.618  1.00  0.00    -0.458 C  
HETATM   21  C   UNL     1      -8.494  19.704  68.473  1.00  0.00    -0.296 C  
HETATM   22  O   UNL     1      -8.093  20.273  67.221  1.00  0.00    -0.316 OA 
ENDBRANCH  16  17
ENDBRANCH  15  16
ENDBRANCH  14  15
ENDBRANCH  13  14
ENDBRANCH   4  13
BRANCH  10  23
HETATM   23  N   UNL     1     -11.270  10.851  68.458  1.00  0.00    -0.251 NA 
HETATM   24  H   UNL     1     -11.958  10.828  67.705  1.00  0.00     0.000 HD 
BRANCH  23  25
HETATM   25  C   UNL     1      -9.924  10.947  68.037  1.00  0.00    -0.171 A  
HETATM   26 CL   UNL     1      -7.242  13.915  67.678  1.00  0.00    -0.174 Cl 
HETATM   27  C   UNL     1      -7.322  11.292  67.009  1.00  0.00    -0.136 A  
HETATM   28  C   UNL     1      -7.988  12.364  67.593  1.00  0.00    -0.164 A  
HETATM   29  C   UNL     1      -7.931  10.050  66.938  1.00  0.00    -0.113 A  
HETATM   30  F   UNL     1      -6.093  11.441  66.491  1.00  0.00    -0.113 F  
HETATM   31  C   UNL     1      -9.225   9.884  67.442  1.00  0.00    -0.151 A  
HETATM   32  C   UNL     1      -9.280  12.195  68.102  1.00  0.00    -0.197 A  
ENDBRANCH  23  25
ENDBRANCH  10  23
ENDBRANCH   2   3
TORSDOF 8
ENDMDL
MODEL       32
REMARK 921   NORMALIZED FREE ENERGY PREDICTED BY IDOCK:   -6.43 KCAL/MOL
REMARK 922        TOTAL FREE ENERGY PREDICTED BY IDOCK:  -11.07 KCAL/MOL
REMARK 923 INTER-LIGAND FREE ENERGY PREDICTED BY IDOCK:   -9.69 KCAL/MOL
REMARK 924 INTRA-LIGAND FREE ENERGY PREDICTED BY IDOCK:   -1.37 KCAL/MOL
REMARK 927      BINDING AFFINITY PREDICTED BY RF-SCORE:    0.00 PKD
ROOT
HETATM    1  C   UNL     1     -11.116   6.529  72.658  1.00  0.00    -0.257 C  
HETATM    2  O   UNL     1     -11.685   6.956  71.422  1.00  0.00    -0.280 OA 
ENDROOT
BRANCH   2   3
HETATM    3  C   UNL     1     -10.949   7.872  70.716  1.00  0.00    -0.252 A  
HETATM    4  C   UNL     1     -11.212   9.229  70.905  1.00  0.00    -0.306 A  
HETATM    5  N   UNL     1      -8.343   7.958  68.194  1.00  0.00    -0.123 NA 
HETATM    6  C   UNL     1     -10.593  10.169  70.073  1.00  0.00    -0.338 A  
HETATM    7  C   UNL     1      -9.277   8.426  69.025  1.00  0.00    -0.147 A  
HETATM    8  C   UNL     1      -9.619   9.780  69.111  1.00  0.00    -0.192 A  
HETATM    9  C   UNL     1      -9.948   7.502  69.810  1.00  0.00    -0.186 A  
HETATM   10  C   UNL     1      -8.947  10.630  68.206  1.00  0.00    -0.143 A  
HETATM   11  N   UNL     1      -7.994  10.160  67.375  1.00  0.00    -0.109 NA 
HETATM   12  C   UNL     1      -7.737   8.852  67.418  1.00  0.00    -0.096 A  
BRANCH   4  13
HETATM   13  O   UNL     1     -12.094   9.763  71.809  1.00  0.00    -0.390 OA 
BRANCH  13  14
HETATM   14  C   UNL     1     -13.128  10.600  71.261  1.00  0.00    -0.359 C  
BRANCH  14  15
HETATM   15  C   UNL     1     -13.036  11.952  71.969  1.00  0.00    -0.441 C  
BRANCH  15  16
HETATM   16  C   UNL     1     -12.543  13.102  71.083  1.00  0.00    -0.314 C  
BRANCH  16  17
HETATM   17  N   UNL     1     -13.388  14.306  71.056  1.00  0.00    -0.313 NA 
HETATM   18  C   UNL     1     -12.628  15.475  70.544  1.00  0.00    -0.416 C  
HETATM   19  C   UNL     1     -11.606  16.035  71.548  1.00  0.00    -0.456 C  
HETATM   20  C   UNL     1     -13.953  14.685  72.371  1.00  0.00    -0.476 C  
HETATM   21  C   UNL     1     -12.950  15.319  73.351  1.00  0.00    -0.531 C  
HETATM   22  O   UNL     1     -12.249  16.424  72.767  1.00  0.00    -0.504 OA 
ENDBRANCH  16  17
ENDBRANCH  15  16
ENDBRANCH  14  15
ENDBRANCH  13  14
ENDBRANCH   4  13
BRANCH  10  23
HETATM   23  N   UNL     1      -9.330  11.992  68.095  1.00  0.00    -0.195 NA 
HETATM   24  H   UNL     1      -8.825  12.633  68.706  1.00  0.00     0.000 HD 
BRANCH  23  25
HETATM   25  C   UNL     1     -10.304  12.595  67.267  1.00  0.00    -0.224 A  
HETATM   26 CL   UNL     1     -11.275  12.395  63.375  1.00  0.00    -0.516 Cl 
HETATM   27  C   UNL     1     -12.054  13.904  65.486  1.00  0.00    -0.407 A  
HETATM   28  C   UNL     1     -11.239  12.872  65.031  1.00  0.00    -0.293 A  
HETATM   29  C   UNL     1     -12.014  14.286  66.817  1.00  0.00    -0.462 A  
HETATM   30  F   UNL     1     -12.875  14.556  64.649  1.00  0.00    -0.394 F  
HETATM   31  C   UNL     1     -11.139  13.640  67.696  1.00  0.00    -0.293 A  
HETATM   32  C   UNL     1     -10.369  12.223  65.913  1.00  0.00    -0.280 A  
ENDBRANCH  23  25
ENDBRANCH  10  23
ENDBRANCH   2   3
TORSDOF 8
ENDMDL
MODEL       33
REMARK 921   NORMALIZED FREE ENERGY PREDICTED BY IDOCK:   -6.40 KCAL/MOL
REMARK 922        TOTAL FREE ENERGY PREDICTED BY IDOCK:  -11.02 KCAL/MOL
REMARK 923 INTER-LIGAND FREE ENERGY PREDICTED BY IDOCK:   -9.68 KCAL/MOL
REMARK 924 INTRA-LIGAND FREE ENERGY PREDICTED BY IDOCK:   -1.34 KCAL/MOL
REMARK 927      BINDING AFFINITY PREDICTED BY RF-SCORE:    0.00 PKD
ROOT
HETATM    1  C   UNL     1      -8.008  17.563  65.935  1.00  0.00    -0.036 C  
HETATM    2  O   UNL     1      -9.410  17.698  65.710  1.00  0.00    -0.511 OA 
ENDROOT
BRANCH   2   3
HETATM    3  C   UNL     1     -10.141  16.544  65.816  1.00  0.00    -0.303 A  
HETATM    4  C   UNL     1     -10.233  15.923  67.063  1.00  0.00    -0.283 A  
HETATM    5  N   UNL     1     -12.039  14.280  63.711  1.00  0.00    -0.504 NA 
HETATM    6  C   UNL     1     -10.831  14.662  67.157  1.00  0.00    -0.303 A  
HETATM    7  C   UNL     1     -11.451  14.742  64.817  1.00  0.00    -0.410 A  
HETATM    8  C   UNL     1     -11.443  14.045  66.031  1.00  0.00    -0.340 A  
HETATM    9  C   UNL     1     -10.798  15.961  64.726  1.00  0.00    -0.346 A  
HETATM   10  C   UNL     1     -12.053  12.772  65.998  1.00  0.00    -0.395 A  
HETATM   11  N   UNL     1     -12.659  12.310  64.885  1.00  0.00    -0.540 NA 
HETATM   12  C   UNL     1     -12.627  13.090  63.804  1.00  0.00    -0.206 A  
BRANCH   4  13
HETATM   13  O   UNL     1      -9.726  16.402  68.243  1.00  0.00    -0.217 OA 
BRANCH  13  14
HETATM   14  C   UNL     1     -10.690  16.913  69.182  1.00  0.00    -0.298 C  
BRANCH  14  15
HETATM   15  C   UNL     1     -10.618  16.028  70.427  1.00  0.00    -0.127 C  
BRANCH  15  16
HETATM   16  C   UNL     1     -11.916  15.971  71.242  1.00  0.00    -0.424 C  
BRANCH  16  17
HETATM   17  N   UNL     1     -13.024  15.210  70.644  1.00  0.00    -0.385 NA 
HETATM   18  C   UNL     1     -14.114  14.999  71.629  1.00  0.00    -0.525 C  
HETATM   19  C   UNL     1     -13.779  13.950  72.705  1.00  0.00    -0.471 C  
HETATM   20  C   UNL     1     -12.637  13.883  70.116  1.00  0.00    -0.224 C  
HETATM   21  C   UNL     1     -12.378  12.808  71.188  1.00  0.00    -0.149 C  
HETATM   22  O   UNL     1     -13.472  12.687  72.106  1.00  0.00    -0.535 OA 
ENDBRANCH  16  17
ENDBRANCH  15  16
ENDBRANCH  14  15
ENDBRANCH  13  14
ENDBRANCH   4  13
BRANCH  10  23
HETATM   23  N   UNL     1     -11.962  11.914  67.125  1.00  0.00    -0.603 NA 
HETATM   24  H   UNL     1     -12.718  12.009  67.802  1.00  0.00     0.000 HD 
BRANCH  23  25
HETATM   25  C   UNL     1     -10.983  10.948  67.451  1.00  0.00    -0.293 A  
HETATM   26 CL   UNL     1      -9.275   9.635  70.841  1.00  0.00    -0.112 Cl 
HETATM   27  C   UNL     1      -8.888   9.213  68.194  1.00  0.00    -0.129 A  
HETATM   28  C   UNL     1      -9.633   9.864  69.172  1.00  0.00    -0.199 A  
HETATM   29  C   UNL     1      -9.179   9.407  66.853  1.00  0.00    -0.173 A  
HETATM   30  F   UNL     1      -7.871   8.403  68.525  1.00  0.00    -0.108 F  
HETATM   31  C   UNL     1     -10.213  10.276  66.488  1.00  0.00    -0.289 A  
HETATM   32  C   UNL     1     -10.672  10.727  68.805  1.00  0.00    -0.243 A  
ENDBRANCH  23  25
ENDBRANCH  10  23
ENDBRANCH   2   3
TORSDOF 8
ENDMDL
MODEL       34
REMARK 921   NORMALIZED FREE ENERGY PREDICTED BY IDOCK:   -6.40 KCAL/MOL
REMARK 922        TOTAL FREE ENERGY PREDICTED BY IDOCK:  -11.02 KCAL/MOL
REMARK 923 INTER-LIGAND FREE ENERGY PREDICTED BY IDOCK:  -10.24 KCAL/MOL
REMARK 924 INTRA-LIGAND FREE ENERGY PREDICTED BY IDOCK:   -0.78 KCAL/MOL
REMARK 927      BINDING AFFINITY PREDICTED BY RF-SCORE:    0.00 PKD
ROOT
HETATM    1  C   UNL     1     -13.901   8.623  71.748  1.00  0.00    -0.425 C  
HETATM    2  O   UNL     1     -12.678   9.339  71.905  1.00  0.00    -0.340 OA 
ENDROOT
BRANCH   2   3
HETATM    3  C   UNL     1     -12.697  10.645  71.490  1.00  0.00    -0.444 A  
HETATM    4  C   UNL     1     -11.863  11.024  70.437  1.00  0.00    -0.367 A  
HETATM    5  N   UNL     1     -14.284  13.790  72.356  1.00  0.00    -0.697 NA 
HETATM    6  C   UNL     1     -11.744  12.379  70.111  1.00  0.00    -0.266 A  
HETATM    7  C   UNL     1     -13.457  12.953  71.724  1.00  0.00    -0.280 A  
HETATM    8  C   UNL     1     -12.535  13.370  70.757  1.00  0.00    -0.418 A  
HETATM    9  C   UNL     1     -13.516  11.615  72.080  1.00  0.00    -0.304 A  
HETATM   10  C   UNL     1     -12.487  14.763  70.532  1.00  0.00    -0.352 A  
HETATM   11  N   UNL     1     -13.329  15.607  71.161  1.00  0.00    -0.565 NA 
HETATM   12  C   UNL     1     -14.188  15.077  72.033  1.00  0.00    -0.555 A  
BRANCH   4  13
HETATM   13  O   UNL     1     -11.066  10.189  69.697  1.00  0.00    -0.236 OA 
BRANCH  13  14
HETATM   14  C   UNL     1     -11.119  10.368  68.270  1.00  0.00    -0.281 C  
BRANCH  14  15
HETATM   15  C   UNL     1     -10.556   9.096  67.635  1.00  0.00    -0.307 C  
BRANCH  15  16
HETATM   16  C   UNL     1      -9.970   8.092  68.635  1.00  0.00    -0.190 C  
BRANCH  16  17
HETATM   17  N   UNL     1     -10.645   6.788  68.713  1.00  0.00    -0.211 NA 
HETATM   18  C   UNL     1      -9.791   5.789  69.406  1.00  0.00    -0.167 C  
HETATM   19  C   UNL     1      -8.610   5.292  68.554  1.00  0.00    -0.094 C  
HETATM   20  C   UNL     1     -11.023   6.216  67.402  1.00  0.00    -0.314 C  
HETATM   21  C   UNL     1      -9.853   5.645  66.580  1.00  0.00    -0.168 C  
HETATM   22  O   UNL     1      -9.072   4.708  67.332  1.00  0.00    -0.115 OA 
ENDBRANCH  16  17
ENDBRANCH  15  16
ENDBRANCH  14  15
ENDBRANCH  13  14
ENDBRANCH   4  13
BRANCH  10  23
HETATM   23  N   UNL     1     -11.480  15.310  69.694  1.00  0.00    -0.282 NA 
HETATM   24  H   UNL     1     -10.689  15.725  70.184  1.00  0.00     0.000 HD 
BRANCH  23  25
HETATM   25  C   UNL     1     -11.407  15.367  68.283  1.00  0.00    -0.348 A  
HETATM   26 CL   UNL     1     -12.618  13.020  65.256  1.00  0.00    -0.550 Cl 
HETATM   27  C   UNL     1     -11.122  15.267  65.480  1.00  0.00    -0.327 A  
HETATM   28  C   UNL     1     -11.872  14.299  66.139  1.00  0.00    -0.402 A  
HETATM   29  C   UNL     1     -10.520  16.288  66.198  1.00  0.00    -0.330 A  
HETATM   30  F   UNL     1     -10.952  15.224  64.150  1.00  0.00    -0.199 F  
HETATM   31  C   UNL     1     -10.657  16.329  67.589  1.00  0.00    -0.311 A  
HETATM   32  C   UNL     1     -12.013  14.346  67.530  1.00  0.00    -0.389 A  
ENDBRANCH  23  25
ENDBRANCH  10  23
ENDBRANCH   2   3
TORSDOF 8
ENDMDL
MODEL       35
REMARK 921   NORMALIZED FREE ENERGY PREDICTED BY IDOCK:   -6.38 KCAL/MOL
REMARK 922        TOTAL FREE ENERGY PREDICTED BY IDOCK:  -11.00 KCAL/MOL
REMARK 923 INTER-LIGAND FREE ENERGY PREDICTED BY IDOCK:   -9.43 KCAL/MOL
REMARK 924 INTRA-LIGAND FREE ENERGY PREDICTED BY IDOCK:   -1.57 KCAL/MOL
REMARK 927      BINDING AFFINITY PREDICTED BY RF-SCORE:    0.00 PKD
ROOT
HETATM    1  C   UNL     1      -7.305   6.919  70.593  1.00  0.00    -0.074 C  
HETATM    2  O   UNL     1      -7.567   8.159  69.940  1.00  0.00    -0.084 OA 
ENDROOT
BRANCH   2   3
HETATM    3  C   UNL     1      -8.820   8.680  70.136  1.00  0.00    -0.141 A  
HETATM    4  C   UNL     1      -9.225   9.759  69.349  1.00  0.00    -0.205 A  
HETATM    5  N   UNL     1     -11.695   8.205  72.295  1.00  0.00    -0.354 NA 
HETATM    6  C   UNL     1     -10.428  10.410  69.647  1.00  0.00    -0.279 A  
HETATM    7  C   UNL     1     -10.931   8.770  71.357  1.00  0.00    -0.289 A  
HETATM    8  C   UNL     1     -11.299   9.929  70.664  1.00  0.00    -0.413 A  
HETATM    9  C   UNL     1      -9.708   8.177  71.094  1.00  0.00    -0.200 A  
HETATM   10  C   UNL     1     -12.520  10.511  71.068  1.00  0.00    -0.400 A  
HETATM   11  N   UNL     1     -13.298   9.934  72.007  1.00  0.00    -0.442 NA 
HETATM   12  C   UNL     1     -12.850   8.809  72.565  1.00  0.00    -0.316 A  
BRANCH   4  13
HETATM   13  O   UNL     1      -8.518  10.316  68.315  1.00  0.00    -0.116 OA 
BRANCH  13  14
HETATM   14  C   UNL     1      -8.107  11.683  68.497  1.00  0.00    -0.145 C  
BRANCH  14  15
HETATM   15  C   UNL     1      -8.082  12.334  67.114  1.00  0.00    -0.173 C  
BRANCH  15  16
HETATM   16  C   UNL     1      -9.433  12.889  66.648  1.00  0.00    -0.255 C  
BRANCH  16  17
HETATM   17  N   UNL     1      -9.911  14.095  67.341  1.00  0.00    -0.238 NA 
HETATM   18  C   UNL     1     -11.117  14.648  66.673  1.00  0.00    -0.334 C  
HETATM   19  C   UNL     1     -10.815  15.354  65.339  1.00  0.00    -0.391 C  
HETATM   20  C   UNL     1      -8.913  15.185  67.429  1.00  0.00    -0.183 C  
HETATM   21  C   UNL     1      -8.666  15.947  66.114  1.00  0.00    -0.293 C  
HETATM   22  O   UNL     1      -9.884  16.425  65.530  1.00  0.00    -0.522 OA 
ENDBRANCH  16  17
ENDBRANCH  15  16
ENDBRANCH  14  15
ENDBRANCH  13  14
ENDBRANCH   4  13
BRANCH  10  23
HETATM   23  N   UNL     1     -12.910  11.773  70.548  1.00  0.00    -0.020 NA 
HETATM   24  H   UNL     1     -13.362  11.742  69.634  1.00  0.00     0.000 HD 
BRANCH  23  25
HETATM   25  C   UNL     1     -12.767  13.066  71.102  1.00  0.00    -0.283 A  
HETATM   26 CL   UNL     1     -10.929  16.464  70.004  1.00  0.00    -0.357 Cl 
HETATM   27  C   UNL     1     -12.230  15.599  72.216  1.00  0.00    -0.439 A  
HETATM   28  C   UNL     1     -11.804  15.301  70.926  1.00  0.00    -0.341 A  
HETATM   29  C   UNL     1     -12.928  14.656  72.954  1.00  0.00    -0.592 A  
HETATM   30  F   UNL     1     -11.964  16.789  72.774  1.00  0.00    -0.564 F  
HETATM   31  C   UNL     1     -13.185  13.397  72.401  1.00  0.00    -0.564 A  
HETATM   32  C   UNL     1     -12.068  14.043  70.373  1.00  0.00    -0.426 A  
ENDBRANCH  23  25
ENDBRANCH  10  23
ENDBRANCH   2   3
TORSDOF 8
ENDMDL
MODEL       36
REMARK 921   NORMALIZED FREE ENERGY PREDICTED BY IDOCK:   -6.38 KCAL/MOL
REMARK 922        TOTAL FREE ENERGY PREDICTED BY IDOCK:  -11.00 KCAL/MOL
REMARK 923 INTER-LIGAND FREE ENERGY PREDICTED BY IDOCK:   -9.80 KCAL/MOL
REMARK 924 INTRA-LIGAND FREE ENERGY PREDICTED BY IDOCK:   -1.20 KCAL/MOL
REMARK 927      BINDING AFFINITY PREDICTED BY RF-SCORE:    0.00 PKD
ROOT
HETATM    1  C   UNL     1     -13.814   8.773  71.723  1.00  0.00    -0.423 C  
HETATM    2  O   UNL     1     -12.602   9.511  71.866  1.00  0.00    -0.364 OA 
ENDROOT
BRANCH   2   3
HETATM    3  C   UNL     1     -12.609  10.771  71.326  1.00  0.00    -0.426 A  
HETATM    4  C   UNL     1     -11.980  10.975  70.096  1.00  0.00    -0.360 A  
HETATM    5  N   UNL     1     -13.748  14.116  72.148  1.00  0.00    -0.447 NA 
HETATM    6  C   UNL     1     -11.830  12.279  69.613  1.00  0.00    -0.393 A  
HETATM    7  C   UNL     1     -13.132  13.152  71.459  1.00  0.00    -0.315 A  
HETATM    8  C   UNL     1     -12.397  13.393  70.292  1.00  0.00    -0.354 A  
HETATM    9  C   UNL     1     -13.216  11.863  71.958  1.00  0.00    -0.461 A  
HETATM   10  C   UNL     1     -12.292  14.749  69.915  1.00  0.00    -0.283 A  
HETATM   11  N   UNL     1     -12.924  15.722  70.604  1.00  0.00    -0.457 NA 
HETATM   12  C   UNL     1     -13.624  15.354  71.677  1.00  0.00    -0.509 A  
BRANCH   4  13
HETATM   13  O   UNL     1     -11.415  10.006  69.308  1.00  0.00    -0.168 OA 
BRANCH  13  14
HETATM   14  C   UNL     1      -9.981  10.042  69.197  1.00  0.00    -0.204 C  
BRANCH  14  15
HETATM   15  C   UNL     1      -9.414   9.437  70.481  1.00  0.00    -0.327 C  
BRANCH  15  16
HETATM   16  C   UNL     1      -9.332   7.905  70.480  1.00  0.00    -0.162 C  
BRANCH  16  17
HETATM   17  N   UNL     1     -10.583   7.191  70.777  1.00  0.00    -0.220 NA 
HETATM   18  C   UNL     1     -10.446   6.371  72.007  1.00  0.00    -0.208 C  
HETATM   19  C   UNL     1      -9.596   5.104  71.813  1.00  0.00    -0.152 C  
HETATM   20  C   UNL     1     -11.046   6.294  69.694  1.00  0.00    -0.412 C  
HETATM   21  C   UNL     1     -10.246   4.986  69.548  1.00  0.00    -0.216 C  
HETATM   22  O   UNL     1     -10.147   4.272  70.786  1.00  0.00    -0.190 OA 
ENDBRANCH  16  17
ENDBRANCH  15  16
ENDBRANCH  14  15
ENDBRANCH  13  14
ENDBRANCH   4  13
BRANCH  10  23
HETATM   23  N   UNL     1     -11.440  15.123  68.844  1.00  0.00    -0.302 NA 
HETATM   24  H   UNL     1     -11.556  14.579  67.989  1.00  0.00     0.000 HD 
BRANCH  23  25
HETATM   25  C   UNL     1     -10.454  16.134  68.780  1.00  0.00    -0.264 A  
HETATM   26 CL   UNL     1     -10.327  19.932  67.479  1.00  0.00    -0.557 Cl 
HETATM   27  C   UNL     1      -8.513  18.143  68.399  1.00  0.00    -0.299 A  
HETATM   28  C   UNL     1      -9.848  18.398  68.101  1.00  0.00    -0.342 A  
HETATM   29  C   UNL     1      -8.135  16.905  68.892  1.00  0.00    -0.219 A  
HETATM   30  F   UNL     1      -7.570  19.077  68.201  1.00  0.00    -0.267 F  
HETATM   31  C   UNL     1      -9.099  15.908  69.072  1.00  0.00    -0.240 A  
HETATM   32  C   UNL     1     -10.812  17.401  68.287  1.00  0.00    -0.256 A  
ENDBRANCH  23  25
ENDBRANCH  10  23
ENDBRANCH   2   3
TORSDOF 8
ENDMDL
MODEL       37
REMARK 921   NORMALIZED FREE ENERGY PREDICTED BY IDOCK:   -6.38 KCAL/MOL
REMARK 922        TOTAL FREE ENERGY PREDICTED BY IDOCK:  -11.00 KCAL/MOL
REMARK 923 INTER-LIGAND FREE ENERGY PREDICTED BY IDOCK:  -10.01 KCAL/MOL
REMARK 924 INTRA-LIGAND FREE ENERGY PREDICTED BY IDOCK:   -0.98 KCAL/MOL
REMARK 927      BINDING AFFINITY PREDICTED BY RF-SCORE:    0.00 PKD
ROOT
HETATM    1  C   UNL     1     -14.091  15.183  71.656  1.00  0.00    -0.549 C  
HETATM    2  O   UNL     1     -13.097  14.886  70.676  1.00  0.00    -0.364 OA 
ENDROOT
BRANCH   2   3
HETATM    3  C   UNL     1     -12.633  13.596  70.676  1.00  0.00    -0.296 A  
HETATM    4  C   UNL     1     -11.615  13.252  69.785  1.00  0.00    -0.227 A  
HETATM    5  N   UNL     1     -13.291  10.429  72.319  1.00  0.00    -0.302 NA 
HETATM    6  C   UNL     1     -11.247  11.909  69.652  1.00  0.00    -0.184 A  
HETATM    7  C   UNL     1     -12.738  11.285  71.456  1.00  0.00    -0.376 A  
HETATM    8  C   UNL     1     -11.810  10.899  70.481  1.00  0.00    -0.457 A  
HETATM    9  C   UNL     1     -13.139  12.609  71.530  1.00  0.00    -0.373 A  
HETATM   10  C   UNL     1     -11.535   9.516  70.424  1.00  0.00    -0.242 A  
HETATM   11  N   UNL     1     -12.084   8.653  71.304  1.00  0.00    -0.292 NA 
HETATM   12  C   UNL     1     -12.925   9.155  72.209  1.00  0.00    -0.420 A  
BRANCH   4  13
HETATM   13  O   UNL     1     -10.953  14.110  68.945  1.00  0.00    -0.244 OA 
BRANCH  13  14
HETATM   14  C   UNL     1      -9.682  13.652  68.450  1.00  0.00    -0.217 C  
BRANCH  14  15
HETATM   15  C   UNL     1      -9.576  14.102  66.994  1.00  0.00    -0.264 C  
BRANCH  15  16
HETATM   16  C   UNL     1     -10.050  13.063  65.971  1.00  0.00    -0.284 C  
BRANCH  16  17
HETATM   17  N   UNL     1     -11.504  12.856  65.883  1.00  0.00    -0.329 NA 
HETATM   18  C   UNL     1     -11.850  12.014  64.710  1.00  0.00    -0.254 C  
HETATM   19  C   UNL     1     -11.725  12.750  63.364  1.00  0.00    -0.488 C  
HETATM   20  C   UNL     1     -12.292  14.104  65.783  1.00  0.00    -0.461 C  
HETATM   21  C   UNL     1     -12.234  14.803  64.412  1.00  0.00    -0.428 C  
HETATM   22  O   UNL     1     -12.561  13.912  63.338  1.00  0.00    -0.853 OA 
ENDBRANCH  16  17
ENDBRANCH  15  16
ENDBRANCH  14  15
ENDBRANCH  13  14
ENDBRANCH   4  13
BRANCH  10  23
HETATM   23  N   UNL     1     -10.735   8.995  69.374  1.00  0.00    -0.306 NA 
HETATM   24  H   UNL     1     -10.161   9.683  68.887  1.00  0.00     0.000 HD 
BRANCH  23  25
HETATM   25  C   UNL     1     -10.613   7.669  68.900  1.00  0.00    -0.159 A  
HETATM   26 CL   UNL     1      -9.459   4.160  70.477  1.00  0.00    -0.226 Cl 
HETATM   27  C   UNL     1     -10.118   5.042  68.003  1.00  0.00    -0.106 A  
HETATM   28  C   UNL     1      -9.967   5.359  69.349  1.00  0.00    -0.210 A  
HETATM   29  C   UNL     1     -10.521   6.014  67.100  1.00  0.00    -0.327 A  
HETATM   30  F   UNL     1      -9.863   3.805  67.551  1.00  0.00    -0.238 F  
HETATM   31  C   UNL     1     -10.757   7.318  67.548  1.00  0.00    -0.326 A  
HETATM   32  C   UNL     1     -10.210   6.662  69.795  1.00  0.00    -0.214 A  
ENDBRANCH  23  25
ENDBRANCH  10  23
ENDBRANCH   2   3
TORSDOF 8
ENDMDL
MODEL       38
REMARK 921   NORMALIZED FREE ENERGY PREDICTED BY IDOCK:   -6.37 KCAL/MOL
REMARK 922        TOTAL FREE ENERGY PREDICTED BY IDOCK:  -10.98 KCAL/MOL
REMARK 923 INTER-LIGAND FREE ENERGY PREDICTED BY IDOCK:   -9.52 KCAL/MOL
REMARK 924 INTRA-LIGAND FREE ENERGY PREDICTED BY IDOCK:   -1.46 KCAL/MOL
REMARK 927      BINDING AFFINITY PREDICTED BY RF-SCORE:    0.00 PKD
ROOT
HETATM    1  C   UNL     1      -6.935   5.642  68.345  1.00  0.00    -0.065 C  
HETATM    2  O   UNL     1      -6.985   6.975  68.851  1.00  0.00    -0.073 OA 
ENDROOT
BRANCH   2   3
HETATM    3  C   UNL     1      -8.201   7.378  69.339  1.00  0.00    -0.131 A  
HETATM    4  C   UNL     1      -9.039   8.126  68.511  1.00  0.00    -0.136 A  
HETATM    5  N   UNL     1     -10.131   7.216  72.406  1.00  0.00    -0.179 NA 
HETATM    6  C   UNL     1     -10.204   8.688  69.044  1.00  0.00    -0.218 A  
HETATM    7  C   UNL     1      -9.819   7.569  71.157  1.00  0.00    -0.173 A  
HETATM    8  C   UNL     1     -10.610   8.425  70.382  1.00  0.00    -0.236 A  
HETATM    9  C   UNL     1      -8.635   7.074  70.635  1.00  0.00    -0.147 A  
HETATM   10  C   UNL     1     -11.746   8.951  71.034  1.00  0.00    -0.289 A  
HETATM   11  N   UNL     1     -12.069   8.584  72.291  1.00  0.00    -0.380 NA 
HETATM   12  C   UNL     1     -11.250   7.731  72.908  1.00  0.00    -0.376 A  
BRANCH   4  13
HETATM   13  O   UNL     1      -8.807   8.437  67.196  1.00  0.00    -0.127 OA 
BRANCH  13  14
HETATM   14  C   UNL     1      -9.974   8.578  66.366  1.00  0.00    -0.244 C  
BRANCH  14  15
HETATM   15  C   UNL     1      -9.719   9.755  65.425  1.00  0.00    -0.383 C  
BRANCH  15  16
HETATM   16  C   UNL     1     -10.671  10.941  65.617  1.00  0.00    -0.108 C  
BRANCH  16  17
HETATM   17  N   UNL     1     -10.305  12.184  64.921  1.00  0.00    -0.281 NA 
HETATM   18  C   UNL     1     -10.822  13.371  65.649  1.00  0.00    -0.283 C  
HETATM   19  C   UNL     1     -12.342  13.567  65.509  1.00  0.00    -0.481 C  
HETATM   20  C   UNL     1     -10.793  12.271  63.527  1.00  0.00    -0.454 C  
HETATM   21  C   UNL     1     -12.301  12.546  63.382  1.00  0.00    -0.477 C  
HETATM   22  O   UNL     1     -12.715  13.694  64.133  1.00  0.00    -0.657 OA 
ENDBRANCH  16  17
ENDBRANCH  15  16
ENDBRANCH  14  15
ENDBRANCH  13  14
ENDBRANCH   4  13
BRANCH  10  23
HETATM   23  N   UNL     1     -12.528   9.951  70.399  1.00  0.00    -0.501 NA 
HETATM   24  H   UNL     1     -13.319   9.602  69.858  1.00  0.00     0.000 HD 
BRANCH  23  25
HETATM   25  C   UNL     1     -12.378  11.357  70.402  1.00  0.00    -0.319 A  
HETATM   26 CL   UNL     1     -13.536  14.354  72.812  1.00  0.00    -0.588 Cl 
HETATM   27  C   UNL     1     -12.334  14.175  70.392  1.00  0.00    -0.359 A  
HETATM   28  C   UNL     1     -12.873  13.491  71.476  1.00  0.00    -0.352 A  
HETATM   29  C   UNL     1     -11.809  13.475  69.318  1.00  0.00    -0.392 A  
HETATM   30  F   UNL     1     -12.326  15.516  70.356  1.00  0.00    -0.340 F  
HETATM   31  C   UNL     1     -11.840  12.076  69.323  1.00  0.00    -0.377 A  
HETATM   32  C   UNL     1     -12.898  12.092  71.482  1.00  0.00    -0.394 A  
ENDBRANCH  23  25
ENDBRANCH  10  23
ENDBRANCH   2   3
TORSDOF 8
ENDMDL
MODEL       39
REMARK 921   NORMALIZED FREE ENERGY PREDICTED BY IDOCK:   -6.36 KCAL/MOL
REMARK 922        TOTAL FREE ENERGY PREDICTED BY IDOCK:  -10.96 KCAL/MOL
REMARK 923 INTER-LIGAND FREE ENERGY PREDICTED BY IDOCK:   -9.50 KCAL/MOL
REMARK 924 INTRA-LIGAND FREE ENERGY PREDICTED BY IDOCK:   -1.46 KCAL/MOL
REMARK 927      BINDING AFFINITY PREDICTED BY RF-SCORE:    0.00 PKD
ROOT
HETATM    1  C   UNL     1      -8.254   9.557  62.586  1.00  0.00    -0.148 C  
HETATM    2  O   UNL     1      -9.127   9.295  63.683  1.00  0.00    -0.136 OA 
ENDROOT
BRANCH   2   3
HETATM    3  C   UNL     1      -9.544  10.396  64.385  1.00  0.00    -0.316 A  
HETATM    4  C   UNL     1      -9.087  10.568  65.693  1.00  0.00    -0.182 A  
HETATM    5  N   UNL     1     -11.733  13.260  63.974  1.00  0.00    -0.417 NA 
HETATM    6  C   UNL     1      -9.632  11.589  66.479  1.00  0.00    -0.225 A  
HETATM    7  C   UNL     1     -10.910  12.409  64.592  1.00  0.00    -0.309 A  
HETATM    8  C   UNL     1     -10.561  12.524  65.943  1.00  0.00    -0.292 A  
HETATM    9  C   UNL     1     -10.411  11.353  63.846  1.00  0.00    -0.444 A  
HETATM   10  C   UNL     1     -11.192  13.576  66.641  1.00  0.00    -0.312 A  
HETATM   11  N   UNL     1     -12.013  14.443  66.015  1.00  0.00    -0.385 NA 
HETATM   12  C   UNL     1     -12.234  14.245  64.715  1.00  0.00    -0.443 A  
BRANCH   4  13
HETATM   13  O   UNL     1      -8.174   9.776  66.340  1.00  0.00    -0.118 OA 
BRANCH  13  14
HETATM   14  C   UNL     1      -8.455   9.491  67.722  1.00  0.00    -0.119 C  
BRANCH  14  15
HETATM   15  C   UNL     1      -9.294   8.214  67.757  1.00  0.00    -0.149 C  
BRANCH  15  16
HETATM   16  C   UNL     1     -10.308   8.150  68.906  1.00  0.00    -0.211 C  
BRANCH  16  17
HETATM   17  N   UNL     1     -10.073   7.110  69.920  1.00  0.00    -0.189 NA 
HETATM   18  C   UNL     1     -11.340   6.420  70.275  1.00  0.00    -0.403 C  
HETATM   19  C   UNL     1     -12.280   7.268  71.149  1.00  0.00    -0.340 C  
HETATM   20  C   UNL     1      -9.470   7.607  71.176  1.00  0.00    -0.154 C  
HETATM   21  C   UNL     1     -10.429   8.389  72.093  1.00  0.00    -0.326 C  
HETATM   22  O   UNL     1     -11.631   7.658  72.365  1.00  0.00    -0.307 OA 
ENDBRANCH  16  17
ENDBRANCH  15  16
ENDBRANCH  14  15
ENDBRANCH  13  14
ENDBRANCH   4  13
BRANCH  10  23
HETATM   23  N   UNL     1     -11.036  13.686  68.048  1.00  0.00    -0.253 NA 
HETATM   24  H   UNL     1     -10.339  14.365  68.353  1.00  0.00     0.000 HD 
BRANCH  23  25
HETATM   25  C   UNL     1     -11.700  12.999  69.090  1.00  0.00    -0.326 A  
HETATM   26 CL   UNL     1     -13.397  14.040  72.578  1.00  0.00    -0.592 Cl 
HETATM   27  C   UNL     1     -12.836  11.707  71.323  1.00  0.00    -0.328 A  
HETATM   28  C   UNL     1     -12.786  13.096  71.273  1.00  0.00    -0.306 A  
HETATM   29  C   UNL     1     -12.337  10.954  70.272  1.00  0.00    -0.412 A  
HETATM   30  F   UNL     1     -13.350  11.071  72.387  1.00  0.00    -0.546 F  
HETATM   31  C   UNL     1     -11.766  11.599  69.169  1.00  0.00    -0.390 A  
HETATM   32  C   UNL     1     -12.221  13.739  70.166  1.00  0.00    -0.425 A  
ENDBRANCH  23  25
ENDBRANCH  10  23
ENDBRANCH   2   3
TORSDOF 8
ENDMDL
MODEL       40
REMARK 921   NORMALIZED FREE ENERGY PREDICTED BY IDOCK:   -6.35 KCAL/MOL
REMARK 922        TOTAL FREE ENERGY PREDICTED BY IDOCK:  -10.94 KCAL/MOL
REMARK 923 INTER-LIGAND FREE ENERGY PREDICTED BY IDOCK:   -9.71 KCAL/MOL
REMARK 924 INTRA-LIGAND FREE ENERGY PREDICTED BY IDOCK:   -1.23 KCAL/MOL
REMARK 927      BINDING AFFINITY PREDICTED BY RF-SCORE:    0.00 PKD
ROOT
HETATM    1  C   UNL     1     -10.906   7.155  67.086  1.00  0.00    -0.333 C  
HETATM    2  O   UNL     1      -9.898   8.083  67.482  1.00  0.00    -0.151 OA 
ENDROOT
BRANCH   2   3
HETATM    3  C   UNL     1     -10.224   9.407  67.341  1.00  0.00    -0.239 A  
HETATM    4  C   UNL     1     -10.776  10.079  68.433  1.00  0.00    -0.234 A  
HETATM    5  N   UNL     1     -10.216  11.992  64.796  1.00  0.00    -0.272 NA 
HETATM    6  C   UNL     1     -11.269  11.377  68.259  1.00  0.00    -0.326 A  
HETATM    7  C   UNL     1     -10.452  11.420  65.979  1.00  0.00    -0.255 A  
HETATM    8  C   UNL     1     -11.123  12.068  67.024  1.00  0.00    -0.351 A  
HETATM    9  C   UNL     1     -10.029  10.112  66.147  1.00  0.00    -0.310 A  
HETATM   10  C   UNL     1     -11.597  13.363  66.724  1.00  0.00    -0.365 A  
HETATM   11  N   UNL     1     -11.347  13.946  65.534  1.00  0.00    -0.304 NA 
HETATM   12  C   UNL     1     -10.664  13.235  64.636  1.00  0.00    -0.400 A  
BRANCH   4  13
HETATM   13  O   UNL     1     -10.955   9.566  69.691  1.00  0.00    -0.236 OA 
BRANCH  13  14
HETATM   14  C   UNL     1     -11.764  10.353  70.584  1.00  0.00    -0.351 C  
BRANCH  14  15
HETATM   15  C   UNL     1     -12.364   9.395  71.612  1.00  0.00    -0.465 C  
BRANCH  15  16
HETATM   16  C   UNL     1     -12.230   7.910  71.251  1.00  0.00    -0.294 C  
BRANCH  16  17
HETATM   17  N   UNL     1     -11.730   7.028  72.316  1.00  0.00    -0.273 NA 
HETATM   18  C   UNL     1     -10.688   7.711  73.124  1.00  0.00    -0.387 C  
HETATM   19  C   UNL     1      -9.337   7.848  72.401  1.00  0.00    -0.186 C  
HETATM   20  C   UNL     1     -11.153   5.753  71.832  1.00  0.00    -0.248 C  
HETATM   21  C   UNL     1      -9.764   5.876  71.178  1.00  0.00    -0.174 C  
HETATM   22  O   UNL     1      -8.830   6.565  72.018  1.00  0.00    -0.133 OA 
ENDBRANCH  16  17
ENDBRANCH  15  16
ENDBRANCH  14  15
ENDBRANCH  13  14
ENDBRANCH   4  13
BRANCH  10  23
HETATM   23  N   UNL     1     -12.427  14.046  67.651  1.00  0.00    -0.445 NA 
HETATM   24  H   UNL     1     -13.399  14.154  67.362  1.00  0.00     0.000 HD 
BRANCH  23  25
HETATM   25  C   UNL     1     -12.113  14.597  68.914  1.00  0.00    -0.216 A  
HETATM   26 CL   UNL     1     -13.321  13.971  72.693  1.00  0.00    -0.616 Cl 
HETATM   27  C   UNL     1     -11.730  15.774  71.447  1.00  0.00    -0.445 A  
HETATM   28  C   UNL     1     -12.535  14.647  71.317  1.00  0.00    -0.339 A  
HETATM   29  C   UNL     1     -11.106  16.316  70.335  1.00  0.00    -0.322 A  
HETATM   30  F   UNL     1     -11.554  16.364  72.640  1.00  0.00    -0.554 F  
HETATM   31  C   UNL     1     -11.306  15.734  69.078  1.00  0.00    -0.354 A  
HETATM   32  C   UNL     1     -12.728  14.063  70.060  1.00  0.00    -0.136 A  
ENDBRANCH  23  25
ENDBRANCH  10  23
ENDBRANCH   2   3
TORSDOF 8
ENDMDL
MODEL       41
REMARK 921   NORMALIZED FREE ENERGY PREDICTED BY IDOCK:   -6.34 KCAL/MOL
REMARK 922        TOTAL FREE ENERGY PREDICTED BY IDOCK:  -10.94 KCAL/MOL
REMARK 923 INTER-LIGAND FREE ENERGY PREDICTED BY IDOCK:   -9.39 KCAL/MOL
REMARK 924 INTRA-LIGAND FREE ENERGY PREDICTED BY IDOCK:   -1.55 KCAL/MOL
REMARK 927      BINDING AFFINITY PREDICTED BY RF-SCORE:    0.00 PKD
ROOT
HETATM    1  C   UNL     1      -9.852   7.835  66.660  1.00  0.00    -0.225 C  
HETATM    2  O   UNL     1      -9.301   8.873  65.853  1.00  0.00    -0.219 OA 
ENDROOT
BRANCH   2   3
HETATM    3  C   UNL     1      -9.671  10.149  66.192  1.00  0.00    -0.218 A  
HETATM    4  C   UNL     1      -8.943  10.816  67.178  1.00  0.00    -0.141 A  
HETATM    5  N   UNL     1     -12.227  12.588  65.370  1.00  0.00    -0.578 NA 
HETATM    6  C   UNL     1      -9.406  12.047  67.656  1.00  0.00    -0.185 A  
HETATM    7  C   UNL     1     -11.184  12.056  66.011  1.00  0.00    -0.335 A  
HETATM    8  C   UNL     1     -10.542  12.685  67.085  1.00  0.00    -0.252 A  
HETATM    9  C   UNL     1     -10.752  10.808  65.594  1.00  0.00    -0.142 A  
HETATM   10  C   UNL     1     -11.114  13.908  67.496  1.00  0.00    -0.286 A  
HETATM   11  N   UNL     1     -12.159  14.452  66.840  1.00  0.00    -0.410 NA 
HETATM   12  C   UNL     1     -12.656  13.768  65.808  1.00  0.00    -0.480 A  
BRANCH   4  13
HETATM   13  O   UNL     1      -7.813  10.352  67.801  1.00  0.00    -0.100 OA 
BRANCH  13  14
HETATM   14  C   UNL     1      -7.798  10.454  69.236  1.00  0.00    -0.147 C  
BRANCH  14  15
HETATM   15  C   UNL     1      -8.293   9.117  69.788  1.00  0.00    -0.136 C  
BRANCH  15  16
HETATM   16  C   UNL     1      -9.386   9.235  70.857  1.00  0.00    -0.245 C  
BRANCH  16  17
HETATM   17  N   UNL     1      -9.579   8.058  71.718  1.00  0.00    -0.165 NA 
HETATM   18  C   UNL     1      -9.781   6.833  70.904  1.00  0.00    -0.178 C  
HETATM   19  C   UNL     1     -11.166   6.756  70.238  1.00  0.00    -0.334 C  
HETATM   20  C   UNL     1     -10.722   8.166  72.652  1.00  0.00    -0.351 C  
HETATM   21  C   UNL     1     -12.109   8.010  72.002  1.00  0.00    -0.331 C  
HETATM   22  O   UNL     1     -12.207   6.813  71.220  1.00  0.00    -0.356 OA 
ENDBRANCH  16  17
ENDBRANCH  15  16
ENDBRANCH  14  15
ENDBRANCH  13  14
ENDBRANCH   4  13
BRANCH  10  23
HETATM   23  N   UNL     1     -10.645  14.550  68.672  1.00  0.00    -0.248 NA 
HETATM   24  H   UNL     1      -9.693  14.913  68.615  1.00  0.00     0.000 HD 
BRANCH  23  25
HETATM   25  C   UNL     1     -11.295  14.762  69.909  1.00  0.00    -0.271 A  
HETATM   26 CL   UNL     1     -13.653  12.577  72.316  1.00  0.00    -0.574 Cl 
HETATM   27  C   UNL     1     -12.812  15.151  72.253  1.00  0.00    -0.343 A  
HETATM   28  C   UNL     1     -12.769  13.898  71.651  1.00  0.00    -0.330 A  
HETATM   29  C   UNL     1     -12.103  16.209  71.708  1.00  0.00    -0.517 A  
HETATM   30  F   UNL     1     -13.548  15.363  73.355  1.00  0.00    -0.525 F  
HETATM   31  C   UNL     1     -11.358  16.015  70.540  1.00  0.00    -0.420 A  
HETATM   32  C   UNL     1     -12.018  13.704  70.487  1.00  0.00    -0.353 A  
ENDBRANCH  23  25
ENDBRANCH  10  23
ENDBRANCH   2   3
TORSDOF 8
ENDMDL
MODEL       42
REMARK 921   NORMALIZED FREE ENERGY PREDICTED BY IDOCK:   -6.33 KCAL/MOL
REMARK 922        TOTAL FREE ENERGY PREDICTED BY IDOCK:  -10.92 KCAL/MOL
REMARK 923 INTER-LIGAND FREE ENERGY PREDICTED BY IDOCK:   -9.24 KCAL/MOL
REMARK 924 INTRA-LIGAND FREE ENERGY PREDICTED BY IDOCK:   -1.68 KCAL/MOL
REMARK 927      BINDING AFFINITY PREDICTED BY RF-SCORE:    0.00 PKD
ROOT
HETATM    1  C   UNL     1     -12.121  14.489  65.598  1.00  0.00    -0.293 C  
HETATM    2  O   UNL     1     -11.088  14.354  66.573  1.00  0.00    -0.317 OA 
ENDROOT
BRANCH   2   3
HETATM    3  C   UNL     1     -11.400  13.587  67.665  1.00  0.00    -0.296 A  
HETATM    4  C   UNL     1     -11.346  12.197  67.544  1.00  0.00    -0.326 A  
HETATM    5  N   UNL     1     -12.523  13.997  71.090  1.00  0.00    -0.354 NA 
HETATM    6  C   UNL     1     -11.822  11.400  68.591  1.00  0.00    -0.377 A  
HETATM    7  C   UNL     1     -12.187  13.361  69.965  1.00  0.00    -0.298 A  
HETATM    8  C   UNL     1     -12.259  11.971  69.819  1.00  0.00    -0.226 A  
HETATM    9  C   UNL     1     -11.774  14.139  68.896  1.00  0.00    -0.369 A  
HETATM   10  C   UNL     1     -12.779  11.274  70.931  1.00  0.00    -0.318 A  
HETATM   11  N   UNL     1     -13.107  11.914  72.071  1.00  0.00    -0.424 NA 
HETATM   12  C   UNL     1     -12.955  13.239  72.094  1.00  0.00    -0.292 A  
BRANCH   4  13
HETATM   13  O   UNL     1     -10.921  11.498  66.444  1.00  0.00    -0.282 OA 
BRANCH  13  14
HETATM   14  C   UNL     1      -9.599  10.935  66.528  1.00  0.00    -0.194 C  
BRANCH  14  15
HETATM   15  C   UNL     1      -9.672   9.526  65.938  1.00  0.00    -0.352 C  
BRANCH  15  16
HETATM   16  C   UNL     1     -10.339   8.489  66.850  1.00  0.00    -0.297 C  
BRANCH  16  17
HETATM   17  N   UNL     1      -9.743   7.144  66.844  1.00  0.00    -0.175 NA 
HETATM   18  C   UNL     1     -10.720   6.129  67.314  1.00  0.00    -0.335 C  
HETATM   19  C   UNL     1     -10.973   6.172  68.831  1.00  0.00    -0.356 C  
HETATM   20  C   UNL     1      -8.528   7.011  67.679  1.00  0.00    -0.123 C  
HETATM   21  C   UNL     1      -8.783   6.973  69.197  1.00  0.00    -0.132 C  
HETATM   22  O   UNL     1      -9.753   5.981  69.556  1.00  0.00    -0.142 OA 
ENDBRANCH  16  17
ENDBRANCH  15  16
ENDBRANCH  14  15
ENDBRANCH  13  14
ENDBRANCH   4  13
BRANCH  10  23
HETATM   23  N   UNL     1     -13.047   9.884  70.834  1.00  0.00    -0.557 NA 
HETATM   24  H   UNL     1     -13.802   9.633  70.195  1.00  0.00     0.000 HD 
BRANCH  23  25
HETATM   25  C   UNL     1     -12.428   8.793  71.486  1.00  0.00    -0.326 A  
HETATM   26 CL   UNL     1      -8.794   8.073  73.038  1.00  0.00    -0.273 Cl 
HETATM   27  C   UNL     1     -11.029   6.610  72.593  1.00  0.00    -0.255 A  
HETATM   28  C   UNL     1     -10.416   7.855  72.499  1.00  0.00    -0.300 A  
HETATM   29  C   UNL     1     -12.332   6.441  72.151  1.00  0.00    -0.231 A  
HETATM   30  F   UNL     1     -10.373   5.552  73.093  1.00  0.00    -0.184 F  
HETATM   31  C   UNL     1     -13.020   7.525  71.595  1.00  0.00    -0.397 A  
HETATM   32  C   UNL     1     -11.108   8.939  71.949  1.00  0.00    -0.442 A  
ENDBRANCH  23  25
ENDBRANCH  10  23
ENDBRANCH   2   3
TORSDOF 8
ENDMDL
MODEL       43
REMARK 921   NORMALIZED FREE ENERGY PREDICTED BY IDOCK:   -6.32 KCAL/MOL
REMARK 922        TOTAL FREE ENERGY PREDICTED BY IDOCK:  -10.90 KCAL/MOL
REMARK 923 INTER-LIGAND FREE ENERGY PREDICTED BY IDOCK:   -9.43 KCAL/MOL
REMARK 924 INTRA-LIGAND FREE ENERGY PREDICTED BY IDOCK:   -1.48 KCAL/MOL
REMARK 927      BINDING AFFINITY PREDICTED BY RF-SCORE:    0.00 PKD
ROOT
HETATM    1  C   UNL     1     -13.449   7.429  71.529  1.00  0.00    -0.372 C  
HETATM    2  O   UNL     1     -12.289   8.192  71.856  1.00  0.00    -0.303 OA 
ENDROOT
BRANCH   2   3
HETATM    3  C   UNL     1     -12.283   9.486  71.404  1.00  0.00    -0.371 A  
HETATM    4  C   UNL     1     -11.407   9.829  70.373  1.00  0.00    -0.297 A  
HETATM    5  N   UNL     1     -13.876  12.665  72.123  1.00  0.00    -0.306 NA 
HETATM    6  C   UNL     1     -11.266  11.174  70.014  1.00  0.00    -0.261 A  
HETATM    7  C   UNL     1     -13.033  11.804  71.546  1.00  0.00    -0.341 A  
HETATM    8  C   UNL     1     -12.072  12.188  70.603  1.00  0.00    -0.344 A  
HETATM    9  C   UNL     1     -13.115  10.478  71.936  1.00  0.00    -0.567 A  
HETATM   10  C   UNL     1     -12.005  13.573  70.340  1.00  0.00    -0.295 A  
HETATM   11  N   UNL     1     -12.864  14.441  70.914  1.00  0.00    -0.340 NA 
HETATM   12  C   UNL     1     -13.758  13.941  71.768  1.00  0.00    -0.377 A  
BRANCH   4  13
HETATM   13  O   UNL     1     -10.590   8.968  69.687  1.00  0.00    -0.219 OA 
BRANCH  13  14
HETATM   14  C   UNL     1      -9.998   9.487  68.482  1.00  0.00    -0.167 C  
BRANCH  14  15
HETATM   15  C   UNL     1     -10.413   8.560  67.340  1.00  0.00    -0.351 C  
BRANCH  15  16
HETATM   16  C   UNL     1      -9.822   8.929  65.974  1.00  0.00    -0.207 C  
BRANCH  16  17
HETATM   17  N   UNL     1      -9.133  10.226  65.897  1.00  0.00    -0.157 NA 
HETATM   18  C   UNL     1      -9.822  11.136  64.946  1.00  0.00    -0.266 C  
HETATM   19  C   UNL     1      -9.603  10.765  63.469  1.00  0.00    -0.320 C  
HETATM   20  C   UNL     1      -7.715  10.141  65.482  1.00  0.00    -0.145 C  
HETATM   21  C   UNL     1      -7.491   9.848  63.987  1.00  0.00    -0.135 C  
HETATM   22  O   UNL     1      -8.209  10.760  63.145  1.00  0.00    -0.116 OA 
ENDBRANCH  16  17
ENDBRANCH  15  16
ENDBRANCH  14  15
ENDBRANCH  13  14
ENDBRANCH   4  13
BRANCH  10  23
HETATM   23  N   UNL     1     -10.964  14.090  69.525  1.00  0.00    -0.418 NA 
HETATM   24  H   UNL     1     -10.038  14.086  69.954  1.00  0.00     0.000 HD 
BRANCH  23  25
HETATM   25  C   UNL     1     -11.014  14.608  68.211  1.00  0.00    -0.252 A  
HETATM   26 CL   UNL     1     -12.481  13.350  64.690  1.00  0.00    -0.405 Cl 
HETATM   27  C   UNL     1     -10.973  15.442  65.519  1.00  0.00    -0.343 A  
HETATM   28  C   UNL     1     -11.662  14.290  65.881  1.00  0.00    -0.372 A  
HETATM   29  C   UNL     1     -10.312  16.189  66.481  1.00  0.00    -0.311 A  
HETATM   30  F   UNL     1     -10.920  15.842  64.239  1.00  0.00    -0.374 F  
HETATM   31  C   UNL     1     -10.327  15.767  67.815  1.00  0.00    -0.275 A  
HETATM   32  C   UNL     1     -11.682  13.873  67.216  1.00  0.00    -0.418 A  
ENDBRANCH  23  25
ENDBRANCH  10  23
ENDBRANCH   2   3
TORSDOF 8
ENDMDL
MODEL       44
REMARK 921   NORMALIZED FREE ENERGY PREDICTED BY IDOCK:   -6.32 KCAL/MOL
REMARK 922        TOTAL FREE ENERGY PREDICTED BY IDOCK:  -10.90 KCAL/MOL
REMARK 923 INTER-LIGAND FREE ENERGY PREDICTED BY IDOCK:   -9.61 KCAL/MOL
REMARK 924 INTRA-LIGAND FREE ENERGY PREDICTED BY IDOCK:   -1.29 KCAL/MOL
REMARK 927      BINDING AFFINITY PREDICTED BY RF-SCORE:    0.00 PKD
ROOT
HETATM    1  C   UNL     1     -13.087   9.020  72.500  1.00  0.00    -0.385 C  
HETATM    2  O   UNL     1     -13.344   9.628  71.235  1.00  0.00    -0.373 OA 
ENDROOT
BRANCH   2   3
HETATM    3  C   UNL     1     -12.967  10.940  71.121  1.00  0.00    -0.352 A  
HETATM    4  C   UNL     1     -12.105  11.301  70.083  1.00  0.00    -0.366 A  
HETATM    5  N   UNL     1     -13.433  14.101  72.839  1.00  0.00    -0.667 NA 
HETATM    6  C   UNL     1     -11.578  12.596  70.051  1.00  0.00    -0.199 A  
HETATM    7  C   UNL     1     -12.945  13.239  71.944  1.00  0.00    -0.311 A  
HETATM    8  C   UNL     1     -11.983  13.587  70.988  1.00  0.00    -0.081 A  
HETATM    9  C   UNL     1     -13.408  11.934  72.003  1.00  0.00    -0.425 A  
HETATM   10  C   UNL     1     -11.506  14.913  71.069  1.00  0.00    -0.261 A  
HETATM   11  N   UNL     1     -12.008  15.788  71.964  1.00  0.00    -0.429 NA 
HETATM   12  C   UNL     1     -12.949  15.340  72.796  1.00  0.00    -0.438 A  
BRANCH   4  13
HETATM   13  O   UNL     1     -11.650  10.475  69.089  1.00  0.00    -0.261 OA 
BRANCH  13  14
HETATM   14  C   UNL     1     -10.221  10.329  68.996  1.00  0.00    -0.210 C  
BRANCH  14  15
HETATM   15  C   UNL     1      -9.888   8.891  69.392  1.00  0.00    -0.183 C  
BRANCH  15  16
HETATM   16  C   UNL     1      -9.804   8.651  70.905  1.00  0.00    -0.205 C  
BRANCH  16  17
HETATM   17  N   UNL     1      -9.179   7.388  71.326  1.00  0.00    -0.150 NA 
HETATM   18  C   UNL     1      -9.965   6.222  70.848  1.00  0.00    -0.186 C  
HETATM   19  C   UNL     1     -11.276   6.003  71.623  1.00  0.00    -0.268 C  
HETATM   20  C   UNL     1      -9.017   7.245  72.790  1.00  0.00    -0.135 C  
HETATM   21  C   UNL     1     -10.316   6.946  73.561  1.00  0.00    -0.338 C  
HETATM   22  O   UNL     1     -11.019   5.821  73.019  1.00  0.00    -0.251 OA 
ENDBRANCH  16  17
ENDBRANCH  15  16
ENDBRANCH  14  15
ENDBRANCH  13  14
ENDBRANCH   4  13
BRANCH  10  23
HETATM   23  N   UNL     1     -10.418  15.325  70.256  1.00  0.00    -0.482 NA 
HETATM   24  H   UNL     1      -9.494  15.127  70.639  1.00  0.00     0.000 HD 
BRANCH  23  25
HETATM   25  C   UNL     1     -10.419  15.966  68.996  1.00  0.00    -0.234 A  
HETATM   26 CL   UNL     1     -10.321  19.774  67.722  1.00  0.00    -0.565 Cl 
HETATM   27  C   UNL     1     -10.644  17.353  66.552  1.00  0.00    -0.184 A  
HETATM   28  C   UNL     1     -10.431  18.054  67.733  1.00  0.00    -0.408 A  
HETATM   29  C   UNL     1     -10.738  15.970  66.570  1.00  0.00    -0.238 A  
HETATM   30  F   UNL     1     -10.779  17.995  65.381  1.00  0.00    -0.417 F  
HETATM   31  C   UNL     1     -10.634  15.286  67.786  1.00  0.00    -0.266 A  
HETATM   32  C   UNL     1     -10.321  17.368  68.948  1.00  0.00    -0.340 A  
ENDBRANCH  23  25
ENDBRANCH  10  23
ENDBRANCH   2   3
TORSDOF 8
ENDMDL
MODEL       45
REMARK 921   NORMALIZED FREE ENERGY PREDICTED BY IDOCK:   -6.29 KCAL/MOL
REMARK 922        TOTAL FREE ENERGY PREDICTED BY IDOCK:  -10.86 KCAL/MOL
REMARK 923 INTER-LIGAND FREE ENERGY PREDICTED BY IDOCK:   -9.55 KCAL/MOL
REMARK 924 INTRA-LIGAND FREE ENERGY PREDICTED BY IDOCK:   -1.31 KCAL/MOL
REMARK 927      BINDING AFFINITY PREDICTED BY RF-SCORE:    0.00 PKD
ROOT
HETATM    1  C   UNL     1     -12.257  16.187  72.822  1.00  0.00    -0.531 C  
HETATM    2  O   UNL     1     -11.919  14.858  72.427  1.00  0.00    -0.341 OA 
ENDROOT
BRANCH   2   3
HETATM    3  C   UNL     1     -11.976  14.607  71.081  1.00  0.00    -0.346 A  
HETATM    4  C   UNL     1     -12.474  13.376  70.651  1.00  0.00    -0.311 A  
HETATM    5  N   UNL     1     -11.090  16.194  67.941  1.00  0.00    -0.325 NA 
HETATM    6  C   UNL     1     -12.383  13.036  69.297  1.00  0.00     0.017 A  
HETATM    7  C   UNL     1     -11.516  15.235  68.767  1.00  0.00    -0.331 A  
HETATM    8  C   UNL     1     -11.893  13.959  68.331  1.00  0.00    -0.409 A  
HETATM    9  C   UNL     1     -11.552  15.532  70.119  1.00  0.00    -0.355 A  
HETATM   10  C   UNL     1     -11.734  13.723  66.949  1.00  0.00    -0.395 A  
HETATM   11  N   UNL     1     -11.316  14.695  66.112  1.00  0.00    -0.349 NA 
HETATM   12  C   UNL     1     -11.024  15.880  66.650  1.00  0.00    -0.136 A  
BRANCH   4  13
HETATM   13  O   UNL     1     -13.006  12.397  71.450  1.00  0.00    -0.361 OA 
BRANCH  13  14
HETATM   14  C   UNL     1     -12.503  11.066  71.234  1.00  0.00    -0.370 C  
BRANCH  14  15
HETATM   15  C   UNL     1     -13.513  10.098  71.849  1.00  0.00    -0.426 C  
BRANCH  15  16
HETATM   16  C   UNL     1     -12.915   8.764  72.313  1.00  0.00    -0.408 C  
BRANCH  16  17
HETATM   17  N   UNL     1     -11.755   8.276  71.552  1.00  0.00    -0.280 NA 
HETATM   18  C   UNL     1     -11.928   6.849  71.178  1.00  0.00    -0.366 C  
HETATM   19  C   UNL     1     -11.750   5.876  72.357  1.00  0.00    -0.253 C  
HETATM   20  C   UNL     1     -10.463   8.395  72.265  1.00  0.00    -0.337 C  
HETATM   21  C   UNL     1     -10.247   7.371  73.395  1.00  0.00    -0.351 C  
HETATM   22  O   UNL     1     -10.455   6.025  72.950  1.00  0.00    -0.199 OA 
ENDBRANCH  16  17
ENDBRANCH  15  16
ENDBRANCH  14  15
ENDBRANCH  13  14
ENDBRANCH   4  13
BRANCH  10  23
HETATM   23  N   UNL     1     -11.932  12.418  66.425  1.00  0.00    -0.607 NA 
HETATM   24  H   UNL     1     -12.883  12.216  66.119  1.00  0.00     0.000 HD 
BRANCH  23  25
HETATM   25  C   UNL     1     -11.012  11.357  66.264  1.00  0.00    -0.247 A  
HETATM   26 CL   UNL     1      -9.944   8.142  68.420  1.00  0.00    -0.198 Cl 
HETATM   27  C   UNL     1      -9.059   9.327  66.152  1.00  0.00    -0.179 A  
HETATM   28  C   UNL     1      -9.987   9.344  67.188  1.00  0.00    -0.204 A  
HETATM   29  C   UNL     1      -9.097  10.302  65.168  1.00  0.00    -0.234 A  
HETATM   30  F   UNL     1      -8.106   8.385  66.094  1.00  0.00    -0.094 F  
HETATM   31  C   UNL     1     -10.062  11.312  65.231  1.00  0.00    -0.318 A  
HETATM   32  C   UNL     1     -10.956  10.352  67.246  1.00  0.00    -0.306 A  
ENDBRANCH  23  25
ENDBRANCH  10  23
ENDBRANCH   2   3
TORSDOF 8
ENDMDL
MODEL       46
REMARK 921   NORMALIZED FREE ENERGY PREDICTED BY IDOCK:   -6.28 KCAL/MOL
REMARK 922        TOTAL FREE ENERGY PREDICTED BY IDOCK:  -10.85 KCAL/MOL
REMARK 923 INTER-LIGAND FREE ENERGY PREDICTED BY IDOCK:   -9.48 KCAL/MOL
REMARK 924 INTRA-LIGAND FREE ENERGY PREDICTED BY IDOCK:   -1.37 KCAL/MOL
REMARK 927      BINDING AFFINITY PREDICTED BY RF-SCORE:    0.00 PKD
ROOT
HETATM    1  C   UNL     1     -12.283  14.333  64.392  1.00  0.00    -0.447 C  
HETATM    2  O   UNL     1     -12.558  14.150  65.779  1.00  0.00    -0.488 OA 
ENDROOT
BRANCH   2   3
HETATM    3  C   UNL     1     -11.943  13.077  66.369  1.00  0.00    -0.402 A  
HETATM    4  C   UNL     1     -11.848  13.043  67.761  1.00  0.00    -0.347 A  
HETATM    5  N   UNL     1     -10.220  10.026  65.427  1.00  0.00    -0.243 NA 
HETATM    6  C   UNL     1     -11.079  12.045  68.371  1.00  0.00    -0.290 A  
HETATM    7  C   UNL     1     -10.693  10.984  66.228  1.00  0.00    -0.212 A  
HETATM    8  C   UNL     1     -10.480  11.002  67.611  1.00  0.00    -0.239 A  
HETATM    9  C   UNL     1     -11.403  12.015  65.634  1.00  0.00    -0.381 A  
HETATM   10  C   UNL     1      -9.668   9.960  68.109  1.00  0.00    -0.144 A  
HETATM   11  N   UNL     1      -9.201   8.985  67.302  1.00  0.00    -0.133 NA 
HETATM   12  C   UNL     1      -9.507   9.065  66.007  1.00  0.00    -0.256 A  
BRANCH   4  13
HETATM   13  O   UNL     1     -12.394  13.951  68.631  1.00  0.00    -0.278 OA 
BRANCH  13  14
HETATM   14  C   UNL     1     -11.539  14.391  69.702  1.00  0.00    -0.292 C  
BRANCH  14  15
HETATM   15  C   UNL     1     -11.434  15.913  69.598  1.00  0.00    -0.346 C  
BRANCH  15  16
HETATM   16  C   UNL     1     -10.269  16.412  68.735  1.00  0.00    -0.258 C  
BRANCH  16  17
HETATM   17  N   UNL     1     -10.629  16.982  67.428  1.00  0.00    -0.317 NA 
HETATM   18  C   UNL     1      -9.938  16.263  66.327  1.00  0.00    -0.317 C  
HETATM   19  C   UNL     1      -8.438  16.591  66.222  1.00  0.00    -0.328 C  
HETATM   20  C   UNL     1     -10.318  18.422  67.283  1.00  0.00    -0.392 C  
HETATM   21  C   UNL     1      -8.824  18.748  67.097  1.00  0.00    -0.278 C  
HETATM   22  O   UNL     1      -8.236  17.995  66.030  1.00  0.00    -0.485 OA 
ENDBRANCH  16  17
ENDBRANCH  15  16
ENDBRANCH  14  15
ENDBRANCH  13  14
ENDBRANCH   4  13
BRANCH  10  23
HETATM   23  N   UNL     1      -9.255   9.971  69.467  1.00  0.00    -0.213 NA 
HETATM   24  H   UNL     1      -8.581  10.697  69.707  1.00  0.00     0.000 HD 
BRANCH  23  25
HETATM   25  C   UNL     1      -9.636   9.129  70.537  1.00  0.00    -0.243 A  
HETATM   26 CL   UNL     1     -12.971   7.146  71.573  1.00  0.00    -0.430 Cl 
HETATM   27  C   UNL     1     -10.571   7.626  72.731  1.00  0.00    -0.325 A  
HETATM   28  C   UNL     1     -11.383   7.812  71.618  1.00  0.00    -0.253 A  
HETATM   29  C   UNL     1      -9.297   8.171  72.762  1.00  0.00    -0.344 A  
HETATM   30  F   UNL     1     -11.005   6.935  73.796  1.00  0.00    -0.322 F  
HETATM   31  C   UNL     1      -8.840   8.923  71.675  1.00  0.00    -0.214 A  
HETATM   32  C   UNL     1     -10.921   8.559  70.529  1.00  0.00    -0.263 A  
ENDBRANCH  23  25
ENDBRANCH  10  23
ENDBRANCH   2   3
TORSDOF 8
ENDMDL
MODEL       47
REMARK 921   NORMALIZED FREE ENERGY PREDICTED BY IDOCK:   -6.25 KCAL/MOL
REMARK 922        TOTAL FREE ENERGY PREDICTED BY IDOCK:  -10.80 KCAL/MOL
REMARK 923 INTER-LIGAND FREE ENERGY PREDICTED BY IDOCK:   -9.98 KCAL/MOL
REMARK 924 INTRA-LIGAND FREE ENERGY PREDICTED BY IDOCK:   -0.83 KCAL/MOL
REMARK 927      BINDING AFFINITY PREDICTED BY RF-SCORE:    0.00 PKD
ROOT
HETATM    1  C   UNL     1     -12.161  13.190  63.246  1.00  0.00    -0.386 C  
HETATM    2  O   UNL     1     -10.948  13.177  63.997  1.00  0.00    -0.392 OA 
ENDROOT
BRANCH   2   3
HETATM    3  C   UNL     1     -10.914  12.306  65.055  1.00  0.00    -0.302 A  
HETATM    4  C   UNL     1     -11.412  12.733  66.287  1.00  0.00    -0.354 A  
HETATM    5  N   UNL     1      -9.766   8.954  65.830  1.00  0.00    -0.236 NA 
HETATM    6  C   UNL     1     -11.232  11.924  67.415  1.00  0.00    -0.366 A  
HETATM    7  C   UNL     1     -10.274  10.169  66.047  1.00  0.00    -0.218 A  
HETATM    8  C   UNL     1     -10.652  10.629  67.314  1.00  0.00    -0.313 A  
HETATM    9  C   UNL     1     -10.399  11.009  64.952  1.00  0.00    -0.378 A  
HETATM   10  C   UNL     1     -10.400   9.735  68.378  1.00  0.00    -0.201 A  
HETATM   11  N   UNL     1      -9.898   8.503  68.158  1.00  0.00    -0.160 NA 
HETATM   12  C   UNL     1      -9.615   8.174  66.897  1.00  0.00    -0.208 A  
BRANCH   4  13
HETATM   13  O   UNL     1     -12.024  13.933  66.540  1.00  0.00    -0.392 OA 
BRANCH  13  14
HETATM   14  C   UNL     1     -11.243  14.899  67.267  1.00  0.00    -0.345 C  
BRANCH  14  15
HETATM   15  C   UNL     1     -10.416  15.673  66.241  1.00  0.00    -0.313 C  
BRANCH  15  16
HETATM   16  C   UNL     1      -9.606  16.837  66.825  1.00  0.00    -0.249 C  
BRANCH  16  17
HETATM   17  N   UNL     1      -9.373  17.978  65.926  1.00  0.00    -0.504 NA 
HETATM   18  C   UNL     1      -8.195  18.768  66.367  1.00  0.00    -0.284 C  
HETATM   19  C   UNL     1      -8.459  19.621  67.621  1.00  0.00    -0.319 C  
HETATM   20  C   UNL     1     -10.517  18.910  65.813  1.00  0.00    -0.290 C  
HETATM   21  C   UNL     1     -10.736  19.821  67.035  1.00  0.00    -0.418 C  
HETATM   22  O   UNL     1      -9.544  20.528  67.402  1.00  0.00    -0.425 OA 
ENDBRANCH  16  17
ENDBRANCH  15  16
ENDBRANCH  14  15
ENDBRANCH  13  14
ENDBRANCH   4  13
BRANCH  10  23
HETATM   23  N   UNL     1     -10.593  10.159  69.719  1.00  0.00    -0.244 NA 
HETATM   24  H   UNL     1     -10.729  11.163  69.839  1.00  0.00     0.000 HD 
BRANCH  23  25
HETATM   25  C   UNL     1     -10.626   9.403  70.913  1.00  0.00    -0.320 A  
HETATM   26 CL   UNL     1      -7.877   7.830  73.382  1.00  0.00    -0.164 Cl 
HETATM   27  C   UNL     1     -10.573   7.708  73.165  1.00  0.00    -0.379 A  
HETATM   28  C   UNL     1      -9.388   8.228  72.657  1.00  0.00    -0.280 A  
HETATM   29  C   UNL     1     -11.784   8.027  72.572  1.00  0.00    -0.446 A  
HETATM   30  F   UNL     1     -10.569   6.879  74.220  1.00  0.00    -0.391 F  
HETATM   31  C   UNL     1     -11.805   8.862  71.449  1.00  0.00    -0.383 A  
HETATM   32  C   UNL     1      -9.412   9.068  71.538  1.00  0.00    -0.316 A  
ENDBRANCH  23  25
ENDBRANCH  10  23
ENDBRANCH   2   3
TORSDOF 8
ENDMDL
MODEL       48
REMARK 921   NORMALIZED FREE ENERGY PREDICTED BY IDOCK:   -6.23 KCAL/MOL
REMARK 922        TOTAL FREE ENERGY PREDICTED BY IDOCK:  -10.77 KCAL/MOL
REMARK 923 INTER-LIGAND FREE ENERGY PREDICTED BY IDOCK:  -10.04 KCAL/MOL
REMARK 924 INTRA-LIGAND FREE ENERGY PREDICTED BY IDOCK:   -0.73 KCAL/MOL
REMARK 927      BINDING AFFINITY PREDICTED BY RF-SCORE:    0.00 PKD
ROOT
HETATM    1  C   UNL     1     -12.817  15.926  73.589  1.00  0.00    -0.599 C  
HETATM    2  O   UNL     1     -12.547  16.210  72.217  1.00  0.00    -0.449 OA 
ENDROOT
BRANCH   2   3
HETATM    3  C   UNL     1     -12.329  15.119  71.417  1.00  0.00    -0.346 A  
HETATM    4  C   UNL     1     -11.764  15.316  70.156  1.00  0.00    -0.312 A  
HETATM    5  N   UNL     1     -12.867  11.532  71.443  1.00  0.00    -0.418 NA 
HETATM    6  C   UNL     1     -11.691  14.242  69.263  1.00  0.00    -0.363 A  
HETATM    7  C   UNL     1     -12.525  12.729  70.961  1.00  0.00    -0.277 A  
HETATM    8  C   UNL     1     -12.079  12.928  69.649  1.00  0.00    -0.290 A  
HETATM    9  C   UNL     1     -12.653  13.815  71.811  1.00  0.00    -0.319 A  
HETATM   10  C   UNL     1     -12.072  11.776  68.833  1.00  0.00    -0.178 A  
HETATM   11  N   UNL     1     -12.405  10.565  69.323  1.00  0.00    -0.196 NA 
HETATM   12  C   UNL     1     -12.777  10.504  70.602  1.00  0.00    -0.355 A  
BRANCH   4  13
HETATM   13  O   UNL     1     -11.313  16.508  69.651  1.00  0.00    -0.246 OA 
BRANCH  13  14
HETATM   14  C   UNL     1     -10.901  16.492  68.272  1.00  0.00    -0.352 C  
BRANCH  14  15
HETATM   15  C   UNL     1     -10.656  17.943  67.859  1.00  0.00    -0.387 C  
BRANCH  15  16
HETATM   16  C   UNL     1      -9.460  18.609  68.551  1.00  0.00    -0.350 C  
BRANCH  16  17
HETATM   17  N   UNL     1      -8.132  18.265  68.020  1.00  0.00    -0.262 NA 
HETATM   18  C   UNL     1      -7.086  19.149  68.595  1.00  0.00    -0.318 C  
HETATM   19  C   UNL     1      -7.106  20.579  68.027  1.00  0.00    -0.238 C  
HETATM   20  C   UNL     1      -8.023  18.348  66.546  1.00  0.00    -0.271 C  
HETATM   21  C   UNL     1      -7.963  19.778  65.979  1.00  0.00    -0.330 C  
HETATM   22  O   UNL     1      -6.941  20.565  66.605  1.00  0.00    -0.244 OA 
ENDBRANCH  16  17
ENDBRANCH  15  16
ENDBRANCH  14  15
ENDBRANCH  13  14
ENDBRANCH   4  13
BRANCH  10  23
HETATM   23  N   UNL     1     -11.793  11.892  67.446  1.00  0.00    -0.611 NA 
HETATM   24  H   UNL     1     -12.320  12.617  66.959  1.00  0.00     0.000 HD 
BRANCH  23  25
HETATM   25  C   UNL     1     -10.897  11.157  66.637  1.00  0.00    -0.253 A  
HETATM   26 CL   UNL     1      -9.491  11.490  62.890  1.00  0.00    -0.384 Cl 
HETATM   27  C   UNL     1      -9.306   9.647  64.866  1.00  0.00    -0.242 A  
HETATM   28  C   UNL     1      -9.812  10.881  64.469  1.00  0.00    -0.300 A  
HETATM   29  C   UNL     1      -9.574   9.161  66.135  1.00  0.00    -0.333 A  
HETATM   30  F   UNL     1      -8.568   8.902  64.029  1.00  0.00    -0.185 F  
HETATM   31  C   UNL     1     -10.371   9.909  67.008  1.00  0.00    -0.303 A  
HETATM   32  C   UNL     1     -10.603  11.630  65.346  1.00  0.00    -0.331 A  
ENDBRANCH  23  25
ENDBRANCH  10  23
ENDBRANCH   2   3
TORSDOF 8
ENDMDL
MODEL       49
REMARK 921   NORMALIZED FREE ENERGY PREDICTED BY IDOCK:   -6.20 KCAL/MOL
REMARK 922        TOTAL FREE ENERGY PREDICTED BY IDOCK:  -10.73 KCAL/MOL
REMARK 923 INTER-LIGAND FREE ENERGY PREDICTED BY IDOCK:   -9.54 KCAL/MOL
REMARK 924 INTRA-LIGAND FREE ENERGY PREDICTED BY IDOCK:   -1.19 KCAL/MOL
REMARK 927      BINDING AFFINITY PREDICTED BY RF-SCORE:    0.00 PKD
ROOT
HETATM    1  C   UNL     1     -11.282   9.287  71.538  1.00  0.00    -0.386 C  
HETATM    2  O   UNL     1     -12.137   9.662  70.460  1.00  0.00    -0.231 OA 
ENDROOT
BRANCH   2   3
HETATM    3  C   UNL     1     -12.238  11.009  70.224  1.00  0.00    -0.363 A  
HETATM    4  C   UNL     1     -11.957  11.486  68.943  1.00  0.00    -0.299 A  
HETATM    5  N   UNL     1     -12.980  14.073  72.019  1.00  0.00    -0.355 NA 
HETATM    6  C   UNL     1     -11.890  12.867  68.727  1.00  0.00    -0.353 A  
HETATM    7  C   UNL     1     -12.611  13.293  70.999  1.00  0.00    -0.324 A  
HETATM    8  C   UNL     1     -12.208  13.796  69.756  1.00  0.00    -0.368 A  
HETATM    9  C   UNL     1     -12.609  11.925  71.216  1.00  0.00    -0.383 A  
HETATM   10  C   UNL     1     -12.155  15.203  69.664  1.00  0.00    -0.304 A  
HETATM   11  N   UNL     1     -12.539  15.991  70.689  1.00  0.00    -0.274 NA 
HETATM   12  C   UNL     1     -12.938  15.386  71.808  1.00  0.00    -0.429 A  
BRANCH   4  13
HETATM   13  O   UNL     1     -11.664  10.722  67.843  1.00  0.00    -0.543 OA 
BRANCH  13  14
HETATM   14  C   UNL     1     -10.289  10.320  67.703  1.00  0.00    -0.220 C  
BRANCH  14  15
HETATM   15  C   UNL     1     -10.291   8.889  67.166  1.00  0.00    -0.351 C  
BRANCH  15  16
HETATM   16  C   UNL     1     -10.055   7.810  68.229  1.00  0.00    -0.192 C  
BRANCH  16  17
HETATM   17  N   UNL     1     -10.960   6.651  68.188  1.00  0.00    -0.260 NA 
HETATM   18  C   UNL     1     -11.254   6.158  69.557  1.00  0.00    -0.411 C  
HETATM   19  C   UNL     1     -10.079   5.404  70.206  1.00  0.00    -0.248 C  
HETATM   20  C   UNL     1     -10.450   5.505  67.402  1.00  0.00    -0.219 C  
HETATM   21  C   UNL     1      -9.329   4.699  68.082  1.00  0.00    -0.135 C  
HETATM   22  O   UNL     1      -9.690   4.283  69.406  1.00  0.00    -0.192 OA 
ENDBRANCH  16  17
ENDBRANCH  15  16
ENDBRANCH  14  15
ENDBRANCH  13  14
ENDBRANCH   4  13
BRANCH  10  23
HETATM   23  N   UNL     1     -11.608  15.817  68.507  1.00  0.00    -0.377 NA 
HETATM   24  H   UNL     1     -12.057  15.559  67.628  1.00  0.00     0.000 HD 
BRANCH  23  25
HETATM   25  C   UNL     1     -10.535  16.730  68.386  1.00  0.00    -0.339 A  
HETATM   26 CL   UNL     1      -6.668  16.764  69.470  1.00  0.00    -0.225 Cl 
HETATM   27  C   UNL     1      -8.391  18.560  68.400  1.00  0.00    -0.332 A  
HETATM   28  C   UNL     1      -8.203  17.262  68.864  1.00  0.00    -0.181 A  
HETATM   29  C   UNL     1      -9.629  18.954  67.921  1.00  0.00    -0.361 A  
HETATM   30  F   UNL     1      -7.390  19.453  68.422  1.00  0.00    -0.294 F  
HETATM   31  C   UNL     1     -10.693  18.046  67.923  1.00  0.00    -0.329 A  
HETATM   32  C   UNL     1      -9.266  16.353  68.860  1.00  0.00    -0.259 A  
ENDBRANCH  23  25
ENDBRANCH  10  23
ENDBRANCH   2   3
TORSDOF 8
ENDMDL
MODEL       50
REMARK 921   NORMALIZED FREE ENERGY PREDICTED BY IDOCK:   -6.09 KCAL/MOL
REMARK 922        TOTAL FREE ENERGY PREDICTED BY IDOCK:  -10.57 KCAL/MOL
REMARK 923 INTER-LIGAND FREE ENERGY PREDICTED BY IDOCK:   -9.01 KCAL/MOL
REMARK 924 INTRA-LIGAND FREE ENERGY PREDICTED BY IDOCK:   -1.57 KCAL/MOL
REMARK 927      BINDING AFFINITY PREDICTED BY RF-SCORE:    0.00 PKD
ROOT
HETATM    1  C   UNL     1      -6.954  16.125  67.330  1.00  0.00    -0.199 C  
HETATM    2  O   UNL     1      -8.259  15.602  67.085  1.00  0.00    -0.175 OA 
ENDROOT
BRANCH   2   3
HETATM    3  C   UNL     1      -8.429  14.273  67.374  1.00  0.00    -0.203 A  
HETATM    4  C   UNL     1      -9.680  13.695  67.151  1.00  0.00    -0.245 A  
HETATM    5  N   UNL     1      -6.553  11.490  68.751  1.00  0.00    -0.064 NA 
HETATM    6  C   UNL     1      -9.920  12.390  67.596  1.00  0.00    -0.200 A  
HETATM    7  C   UNL     1      -7.606  12.157  68.272  1.00  0.00    -0.132 A  
HETATM    8  C   UNL     1      -8.887  11.601  68.173  1.00  0.00    -0.164 A  
HETATM    9  C   UNL     1      -7.402  13.472  67.887  1.00  0.00    -0.149 A  
HETATM   10  C   UNL     1      -9.014  10.288  68.677  1.00  0.00    -0.144 A  
HETATM   11  N   UNL     1      -7.949   9.610  69.150  1.00  0.00    -0.093 NA 
HETATM   12  C   UNL     1      -6.774  10.242  69.155  1.00  0.00    -0.058 A  
BRANCH   4  13
HETATM   13  O   UNL     1     -10.763  14.310  66.579  1.00  0.00    -0.292 OA 
BRANCH  13  14
HETATM   14  C   UNL     1     -11.955  14.364  67.384  1.00  0.00    -0.373 C  
BRANCH  14  15
HETATM   15  C   UNL     1     -11.723  15.425  68.460  1.00  0.00    -0.355 C  
BRANCH  15  16
HETATM   16  C   UNL     1     -11.888  14.918  69.898  1.00  0.00    -0.311 C  
BRANCH  16  17
HETATM   17  N   UNL     1     -12.783  15.703  70.762  1.00  0.00    -0.460 NA 
HETATM   18  C   UNL     1     -12.084  16.128  72.002  1.00  0.00    -0.496 C  
HETATM   19  C   UNL     1     -11.869  14.987  73.011  1.00  0.00    -0.257 C  
HETATM   20  C   UNL     1     -14.017  14.994  71.169  1.00  0.00    -0.374 C  
HETATM   21  C   UNL     1     -13.818  13.904  72.238  1.00  0.00    -0.571 C  
HETATM   22  O   UNL     1     -13.118  14.397  73.387  1.00  0.00    -0.587 OA 
ENDBRANCH  16  17
ENDBRANCH  15  16
ENDBRANCH  14  15
ENDBRANCH  13  14
ENDBRANCH   4  13
BRANCH  10  23
HETATM   23  N   UNL     1     -10.297   9.689  68.775  1.00  0.00    -0.206 NA 
HETATM   24  H   UNL     1     -10.660   9.302  67.904  1.00  0.00     0.000 HD 
BRANCH  23  25
HETATM   25  C   UNL     1     -11.147   9.545  69.895  1.00  0.00    -0.216 A  
HETATM   26 CL   UNL     1     -12.512   6.461  72.076  1.00  0.00    -0.322 Cl 
HETATM   27  C   UNL     1     -13.000   9.123  71.977  1.00  0.00    -0.424 A  
HETATM   28  C   UNL     1     -12.275   8.053  71.463  1.00  0.00    -0.299 A  
HETATM   29  C   UNL     1     -12.809  10.400  71.474  1.00  0.00    -0.569 A  
HETATM   30  F   UNL     1     -13.905   8.940  72.951  1.00  0.00    -0.452 F  
HETATM   31  C   UNL     1     -11.894  10.604  70.435  1.00  0.00    -0.441 A  
HETATM   32  C   UNL     1     -11.356   8.261  70.428  1.00  0.00    -0.177 A  
ENDBRANCH  23  25
ENDBRANCH  10  23
ENDBRANCH   2   3
TORSDOF 8
ENDMDL
MODEL       51
REMARK 921   NORMALIZED FREE ENERGY PREDICTED BY IDOCK:   -6.08 KCAL/MOL
REMARK 922        TOTAL FREE ENERGY PREDICTED BY IDOCK:  -10.56 KCAL/MOL
REMARK 923 INTER-LIGAND FREE ENERGY PREDICTED BY IDOCK:   -9.43 KCAL/MOL
REMARK 924 INTRA-LIGAND FREE ENERGY PREDICTED BY IDOCK:   -1.13 KCAL/MOL
REMARK 927      BINDING AFFINITY PREDICTED BY RF-SCORE:    0.00 PKD
ROOT
HETATM    1  C   UNL     1     -10.178  17.635  68.514  1.00  0.00    -0.386 C  
HETATM    2  O   UNL     1     -11.162  16.734  68.012  1.00  0.00    -0.295 OA 
ENDROOT
BRANCH   2   3
HETATM    3  C   UNL     1     -11.419  15.639  68.796  1.00  0.00    -0.376 A  
HETATM    4  C   UNL     1     -10.918  14.399  68.397  1.00  0.00    -0.248 A  
HETATM    5  N   UNL     1     -13.227  14.780  71.821  1.00  0.00    -0.325 NA 
HETATM    6  C   UNL     1     -11.311  13.248  69.090  1.00  0.00    -0.336 A  
HETATM    7  C   UNL     1     -12.509  14.590  70.712  1.00  0.00    -0.351 A  
HETATM    8  C   UNL     1     -12.122  13.324  70.257  1.00  0.00    -0.405 A  
HETATM    9  C   UNL     1     -12.166  15.713  69.977  1.00  0.00    -0.351 A  
HETATM   10  C   UNL     1     -12.597  12.237  71.021  1.00  0.00    -0.257 A  
HETATM   11  N   UNL     1     -13.312  12.429  72.149  1.00  0.00    -0.498 NA 
HETATM   12  C   UNL     1     -13.583  13.688  72.494  1.00  0.00    -0.570 A  
BRANCH   4  13
HETATM   13  O   UNL     1     -10.103  14.165  67.321  1.00  0.00    -0.251 OA 
BRANCH  13  14
HETATM   14  C   UNL     1      -8.755  13.764  67.627  1.00  0.00    -0.185 C  
BRANCH  14  15
HETATM   15  C   UNL     1      -8.721  12.236  67.597  1.00  0.00    -0.175 C  
BRANCH  15  16
HETATM   16  C   UNL     1      -8.648  11.629  66.190  1.00  0.00    -0.053 C  
BRANCH  16  17
HETATM   17  N   UNL     1      -9.785  10.786  65.790  1.00  0.00    -0.216 NA 
HETATM   18  C   UNL     1      -9.580  10.231  64.428  1.00  0.00    -0.316 C  
HETATM   19  C   UNL     1      -9.763  11.267  63.305  1.00  0.00    -0.382 C  
HETATM   20  C   UNL     1     -11.092  11.480  65.795  1.00  0.00    -0.210 C  
HETATM   21  C   UNL     1     -11.312  12.460  64.628  1.00  0.00    -0.315 C  
HETATM   22  O   UNL     1     -11.072  11.846  63.355  1.00  0.00    -0.400 OA 
ENDBRANCH  16  17
ENDBRANCH  15  16
ENDBRANCH  14  15
ENDBRANCH  13  14
ENDBRANCH   4  13
BRANCH  10  23
HETATM   23  N   UNL     1     -12.401  10.908  70.562  1.00  0.00    -0.346 NA 
HETATM   24  H   UNL     1     -13.181  10.514  70.036  1.00  0.00     0.000 HD 
BRANCH  23  25
HETATM   25  C   UNL     1     -11.290  10.048  70.722  1.00  0.00    -0.360 A  
HETATM   26 CL   UNL     1     -10.020   7.510  73.563  1.00  0.00    -0.367 Cl 
HETATM   27  C   UNL     1      -9.010   8.475  71.243  1.00  0.00    -0.192 A  
HETATM   28  C   UNL     1     -10.081   8.465  72.131  1.00  0.00    -0.306 A  
HETATM   29  C   UNL     1      -9.064   9.251  70.097  1.00  0.00    -0.248 A  
HETATM   30  F   UNL     1      -7.905   7.754  71.485  1.00  0.00    -0.079 F  
HETATM   31  C   UNL     1     -10.193  10.037  69.846  1.00  0.00    -0.304 A  
HETATM   32  C   UNL     1     -11.213   9.247  71.874  1.00  0.00    -0.331 A  
ENDBRANCH  23  25
ENDBRANCH  10  23
ENDBRANCH   2   3
TORSDOF 8
ENDMDL
MODEL       52
REMARK 921   NORMALIZED FREE ENERGY PREDICTED BY IDOCK:   -6.07 KCAL/MOL
REMARK 922        TOTAL FREE ENERGY PREDICTED BY IDOCK:  -10.55 KCAL/MOL
REMARK 923 INTER-LIGAND FREE ENERGY PREDICTED BY IDOCK:   -9.26 KCAL/MOL
REMARK 924 INTRA-LIGAND FREE ENERGY PREDICTED BY IDOCK:   -1.29 KCAL/MOL
REMARK 927      BINDING AFFINITY PREDICTED BY RF-SCORE:    0.00 PKD
ROOT
HETATM    1  C   UNL     1      -7.930   7.585  64.428  1.00  0.00    -0.117 C  
HETATM    2  O   UNL     1      -7.608   8.968  64.291  1.00  0.00    -0.109 OA 
ENDROOT
BRANCH   2   3
HETATM    3  C   UNL     1      -8.590   9.846  64.670  1.00  0.00    -0.182 A  
HETATM    4  C   UNL     1      -8.695  10.187  66.020  1.00  0.00    -0.140 A  
HETATM    5  N   UNL     1     -11.346  11.698  63.211  1.00  0.00    -0.286 NA 
HETATM    6  C   UNL     1      -9.790  10.945  66.450  1.00  0.00    -0.249 A  
HETATM    7  C   UNL     1     -10.545  11.217  64.165  1.00  0.00    -0.368 A  
HETATM    8  C   UNL     1     -10.741  11.466  65.528  1.00  0.00    -0.313 A  
HETATM    9  C   UNL     1      -9.493  10.411  63.762  1.00  0.00    -0.353 A  
HETATM   10  C   UNL     1     -11.892  12.220  65.844  1.00  0.00    -0.354 A  
HETATM   11  N   UNL     1     -12.694  12.717  64.881  1.00  0.00    -0.778 NA 
HETATM   12  C   UNL     1     -12.375  12.437  63.616  1.00  0.00    -0.548 A  
BRANCH   4  13
HETATM   13  O   UNL     1      -7.846   9.794  67.021  1.00  0.00    -0.101 OA 
BRANCH  13  14
HETATM   14  C   UNL     1      -8.449   9.583  68.311  1.00  0.00    -0.119 C  
BRANCH  14  15
HETATM   15  C   UNL     1      -8.934   8.134  68.350  1.00  0.00    -0.136 C  
BRANCH  15  16
HETATM   16  C   UNL     1     -10.288   7.935  69.042  1.00  0.00    -0.214 C  
BRANCH  16  17
HETATM   17  N   UNL     1     -10.311   6.977  70.157  1.00  0.00    -0.194 NA 
HETATM   18  C   UNL     1     -11.706   6.657  70.553  1.00  0.00    -0.394 C  
HETATM   19  C   UNL     1     -12.405   7.792  71.321  1.00  0.00    -0.293 C  
HETATM   20  C   UNL     1      -9.598   7.435  71.371  1.00  0.00    -0.159 C  
HETATM   21  C   UNL     1     -10.332   8.515  72.186  1.00  0.00    -0.339 C  
HETATM   22  O   UNL     1     -11.675   8.131  72.505  1.00  0.00    -0.378 OA 
ENDBRANCH  16  17
ENDBRANCH  15  16
ENDBRANCH  14  15
ENDBRANCH  13  14
ENDBRANCH   4  13
BRANCH  10  23
HETATM   23  N   UNL     1     -12.274  12.394  67.200  1.00  0.00    -0.418 NA 
HETATM   24  H   UNL     1     -12.766  11.603  67.615  1.00  0.00     0.000 HD 
BRANCH  23  25
HETATM   25  C   UNL     1     -12.077  13.497  68.063  1.00  0.00    -0.262 A  
HETATM   26 CL   UNL     1     -10.720  17.253  67.644  1.00  0.00    -0.343 Cl 
HETATM   27  C   UNL     1     -11.435  15.679  69.728  1.00  0.00    -0.342 A  
HETATM   28  C   UNL     1     -11.299  15.791  68.348  1.00  0.00    -0.372 A  
HETATM   29  C   UNL     1     -11.895  14.497  70.288  1.00  0.00    -0.373 A  
HETATM   30  F   UNL     1     -11.111  16.696  70.540  1.00  0.00    -0.366 F  
HETATM   31  C   UNL     1     -12.204  13.414  69.458  1.00  0.00    -0.260 A  
HETATM   32  C   UNL     1     -11.615  14.709  67.521  1.00  0.00    -0.396 A  
ENDBRANCH  23  25
ENDBRANCH  10  23
ENDBRANCH   2   3
TORSDOF 8
ENDMDL
MODEL       53
REMARK 921   NORMALIZED FREE ENERGY PREDICTED BY IDOCK:   -6.05 KCAL/MOL
REMARK 922        TOTAL FREE ENERGY PREDICTED BY IDOCK:  -10.52 KCAL/MOL
REMARK 923 INTER-LIGAND FREE ENERGY PREDICTED BY IDOCK:   -9.44 KCAL/MOL
REMARK 924 INTRA-LIGAND FREE ENERGY PREDICTED BY IDOCK:   -1.08 KCAL/MOL
REMARK 927      BINDING AFFINITY PREDICTED BY RF-SCORE:    0.00 PKD
ROOT
HETATM    1  C   UNL     1     -12.247  14.456  69.758  1.00  0.00    -0.321 C  
HETATM    2  O   UNL     1     -11.289  13.529  69.251  1.00  0.00    -0.259 OA 
ENDROOT
BRANCH   2   3
HETATM    3  C   UNL     1     -11.428  12.235  69.683  1.00  0.00    -0.215 A  
HETATM    4  C   UNL     1     -10.657  11.242  69.079  1.00  0.00    -0.208 A  
HETATM    5  N   UNL     1     -13.399  10.318  72.049  1.00  0.00    -0.423 NA 
HETATM    6  C   UNL     1     -10.906   9.900  69.386  1.00  0.00    -0.265 A  
HETATM    7  C   UNL     1     -12.527  10.549  71.065  1.00  0.00    -0.400 A  
HETATM    8  C   UNL     1     -11.854   9.530  70.381  1.00  0.00    -0.181 A  
HETATM    9  C   UNL     1     -12.315  11.869  70.702  1.00  0.00    -0.405 A  
HETATM   10  C   UNL     1     -12.205   8.216  70.760  1.00  0.00    -0.002 A  
HETATM   11  N   UNL     1     -13.077   7.982  71.762  1.00  0.00    -0.334 NA 
HETATM   12  C   UNL     1     -13.621   9.043  72.359  1.00  0.00    -0.477 A  
BRANCH   4  13
HETATM   13  O   UNL     1      -9.685  11.438  68.131  1.00  0.00    -0.179 OA 
BRANCH  13  14
HETATM   14  C   UNL     1      -9.661  10.490  67.049  1.00  0.00    -0.173 C  
BRANCH  14  15
HETATM   15  C   UNL     1      -9.639  11.292  65.748  1.00  0.00    -0.256 C  
BRANCH  15  16
HETATM   16  C   UNL     1     -10.267  12.687  65.851  1.00  0.00    -0.274 C  
BRANCH  16  17
HETATM   17  N   UNL     1     -11.737  12.737  65.848  1.00  0.00    -0.391 NA 
HETATM   18  C   UNL     1     -12.287  12.100  64.624  1.00  0.00    -0.272 C  
HETATM   19  C   UNL     1     -12.109  12.949  63.353  1.00  0.00    -0.530 C  
HETATM   20  C   UNL     1     -12.302  14.103  65.930  1.00  0.00    -0.463 C  
HETATM   21  C   UNL     1     -12.197  14.929  64.635  1.00  0.00    -0.341 C  
HETATM   22  O   UNL     1     -12.732  14.229  63.504  1.00  0.00    -0.767 OA 
ENDBRANCH  16  17
ENDBRANCH  15  16
ENDBRANCH  14  15
ENDBRANCH  13  14
ENDBRANCH   4  13
BRANCH  10  23
HETATM   23  N   UNL     1     -11.706   7.110  70.024  1.00  0.00    -0.553 NA 
HETATM   24  H   UNL     1     -11.906   7.130  69.024  1.00  0.00     0.000 HD 
BRANCH  23  25
HETATM   25  C   UNL     1     -10.974   5.984  70.466  1.00  0.00    -0.319 A  
HETATM   26 CL   UNL     1      -8.986   2.984  68.683  1.00  0.00    -0.170 Cl 
HETATM   27  C   UNL     1      -9.687   3.594  71.227  1.00  0.00    -0.169 A  
HETATM   28  C   UNL     1      -9.716   3.974  69.889  1.00  0.00    -0.193 A  
HETATM   29  C   UNL     1     -10.282   4.393  72.190  1.00  0.00    -0.247 A  
HETATM   30  F   UNL     1      -9.102   2.448  71.607  1.00  0.00    -0.107 F  
HETATM   31  C   UNL     1     -10.927   5.574  71.807  1.00  0.00    -0.249 A  
HETATM   32  C   UNL     1     -10.356   5.159  69.510  1.00  0.00    -0.292 A  
ENDBRANCH  23  25
ENDBRANCH  10  23
ENDBRANCH   2   3
TORSDOF 8
ENDMDL
MODEL       54
REMARK 921   NORMALIZED FREE ENERGY PREDICTED BY IDOCK:   -6.03 KCAL/MOL
REMARK 922        TOTAL FREE ENERGY PREDICTED BY IDOCK:  -10.48 KCAL/MOL
REMARK 923 INTER-LIGAND FREE ENERGY PREDICTED BY IDOCK:   -9.39 KCAL/MOL
REMARK 924 INTRA-LIGAND FREE ENERGY PREDICTED BY IDOCK:   -1.09 KCAL/MOL
REMARK 927      BINDING AFFINITY PREDICTED BY RF-SCORE:    0.00 PKD
ROOT
HETATM    1  C   UNL     1     -13.216  15.801  73.131  1.00  0.00    -0.591 C  
HETATM    2  O   UNL     1     -13.609  15.446  71.807  1.00  0.00    -0.433 OA 
ENDROOT
BRANCH   2   3
HETATM    3  C   UNL     1     -13.128  14.247  71.347  1.00  0.00    -0.351 A  
HETATM    4  C   UNL     1     -12.367  14.236  70.177  1.00  0.00    -0.353 A  
HETATM    5  N   UNL     1     -13.259  10.721  72.188  1.00  0.00    -0.402 NA 
HETATM    6  C   UNL     1     -12.013  13.011  69.603  1.00  0.00    -0.367 A  
HETATM    7  C   UNL     1     -12.970  11.815  71.479  1.00  0.00    -0.341 A  
HETATM    8  C   UNL     1     -12.316  11.776  70.242  1.00  0.00    -0.320 A  
HETATM    9  C   UNL     1     -13.371  13.033  72.001  1.00  0.00    -0.588 A  
HETATM   10  C   UNL     1     -12.032  10.483  69.751  1.00  0.00    -0.238 A  
HETATM   11  N   UNL     1     -12.312   9.379  70.472  1.00  0.00    -0.033 NA 
HETATM   12  C   UNL     1     -12.903   9.555  71.655  1.00  0.00    -0.393 A  
BRANCH   4  13
HETATM   13  O   UNL     1     -11.967  15.336  69.464  1.00  0.00    -0.320 OA 
BRANCH  13  14
HETATM   14  C   UNL     1     -11.785  15.138  68.050  1.00  0.00    -0.285 C  
BRANCH  14  15
HETATM   15  C   UNL     1     -10.419  15.720  67.686  1.00  0.00    -0.282 C  
BRANCH  15  16
HETATM   16  C   UNL     1     -10.461  17.161  67.163  1.00  0.00    -0.291 C  
BRANCH  16  17
HETATM   17  N   UNL     1     -10.208  18.217  68.156  1.00  0.00    -0.370 NA 
HETATM   18  C   UNL     1     -10.629  19.543  67.639  1.00  0.00    -0.440 C  
HETATM   19  C   UNL     1      -9.683  20.117  66.569  1.00  0.00    -0.426 C  
HETATM   20  C   UNL     1      -8.794  18.333  68.577  1.00  0.00    -0.304 C  
HETATM   21  C   UNL     1      -7.857  18.980  67.540  1.00  0.00    -0.240 C  
HETATM   22  O   UNL     1      -8.352  20.244  67.082  1.00  0.00    -0.324 OA 
ENDBRANCH  16  17
ENDBRANCH  15  16
ENDBRANCH  14  15
ENDBRANCH  13  14
ENDBRANCH   4  13
BRANCH  10  23
HETATM   23  N   UNL     1     -11.518  10.322  68.438  1.00  0.00    -0.557 NA 
HETATM   24  H   UNL     1     -12.199  10.450  67.689  1.00  0.00     0.000 HD 
BRANCH  23  25
HETATM   25  C   UNL     1     -10.208  10.011  68.008  1.00  0.00    -0.181 A  
HETATM   26 CL   UNL     1      -8.537   7.124  65.771  1.00  0.00    -0.155 Cl 
HETATM   27  C   UNL     1      -7.616   9.172  67.284  1.00  0.00    -0.088 A  
HETATM   28  C   UNL     1      -8.728   8.493  66.799  1.00  0.00    -0.122 A  
HETATM   29  C   UNL     1      -7.777  10.268  68.116  1.00  0.00    -0.092 A  
HETATM   30  F   UNL     1      -6.373   8.775  66.972  1.00  0.00    -0.055 F  
HETATM   31  C   UNL     1      -9.065  10.676  68.480  1.00  0.00    -0.159 A  
HETATM   32  C   UNL     1     -10.015   8.907  67.160  1.00  0.00    -0.289 A  
ENDBRANCH  23  25
ENDBRANCH  10  23
ENDBRANCH   2   3
TORSDOF 8
ENDMDL
MODEL       55
REMARK 921   NORMALIZED FREE ENERGY PREDICTED BY IDOCK:   -6.02 KCAL/MOL
REMARK 922        TOTAL FREE ENERGY PREDICTED BY IDOCK:  -10.47 KCAL/MOL
REMARK 923 INTER-LIGAND FREE ENERGY PREDICTED BY IDOCK:   -9.70 KCAL/MOL
REMARK 924 INTRA-LIGAND FREE ENERGY PREDICTED BY IDOCK:   -0.77 KCAL/MOL
REMARK 927      BINDING AFFINITY PREDICTED BY RF-SCORE:    0.00 PKD
ROOT
HETATM    1  C   UNL     1     -13.513  15.665  72.581  1.00  0.00    -0.566 C  
HETATM    2  O   UNL     1     -13.271  15.416  71.198  1.00  0.00    -0.462 OA 
ENDROOT
BRANCH   2   3
HETATM    3  C   UNL     1     -12.799  14.165  70.894  1.00  0.00    -0.334 A  
HETATM    4  C   UNL     1     -12.033  14.003  69.739  1.00  0.00    -0.334 A  
HETATM    5  N   UNL     1     -12.968  10.772  72.166  1.00  0.00    -0.339 NA 
HETATM    6  C   UNL     1     -11.687  12.712  69.324  1.00  0.00    -0.379 A  
HETATM    7  C   UNL     1     -12.665  11.767  71.328  1.00  0.00    -0.316 A  
HETATM    8  C   UNL     1     -12.005  11.569  70.109  1.00  0.00    -0.452 A  
HETATM    9  C   UNL     1     -13.057  13.045  71.692  1.00  0.00    -0.440 A  
HETATM   10  C   UNL     1     -11.730  10.223  69.785  1.00  0.00    -0.191 A  
HETATM   11  N   UNL     1     -12.025   9.220  70.636  1.00  0.00    -0.210 NA 
HETATM   12  C   UNL     1     -12.620   9.546  71.784  1.00  0.00    -0.405 A  
BRANCH   4  13
HETATM   13  O   UNL     1     -11.619  15.002  68.897  1.00  0.00    -0.294 OA 
BRANCH  13  14
HETATM   14  C   UNL     1     -11.314  14.603  67.548  1.00  0.00    -0.348 C  
BRANCH  14  15
HETATM   15  C   UNL     1     -10.175  15.497  67.060  1.00  0.00    -0.271 C  
BRANCH  15  16
HETATM   16  C   UNL     1     -10.631  16.783  66.359  1.00  0.00    -0.192 C  
BRANCH  16  17
HETATM   17  N   UNL     1      -9.598  17.811  66.157  1.00  0.00    -0.502 NA 
HETATM   18  C   UNL     1      -8.513  17.677  67.162  1.00  0.00    -0.226 C  
HETATM   19  C   UNL     1      -8.914  18.146  68.571  1.00  0.00    -0.296 C  
HETATM   20  C   UNL     1     -10.099  19.202  66.227  1.00  0.00    -0.431 C  
HETATM   21  C   UNL     1     -10.428  19.703  67.646  1.00  0.00    -0.446 C  
HETATM   22  O   UNL     1      -9.333  19.515  68.552  1.00  0.00    -0.354 OA 
ENDBRANCH  16  17
ENDBRANCH  15  16
ENDBRANCH  14  15
ENDBRANCH  13  14
ENDBRANCH   4  13
BRANCH  10  23
HETATM   23  N   UNL     1     -11.212   9.895  68.505  1.00  0.00    -0.491 NA 
HETATM   24  H   UNL     1     -11.517  10.504  67.746  1.00  0.00     0.000 HD 
BRANCH  23  25
HETATM   25  C   UNL     1     -10.337   8.853  68.121  1.00  0.00    -0.212 A  
HETATM   26 CL   UNL     1     -10.750   5.281  66.332  1.00  0.00    -0.352 Cl 
HETATM   27  C   UNL     1      -8.720   6.624  67.518  1.00  0.00    -0.118 A  
HETATM   28  C   UNL     1     -10.060   6.633  67.146  1.00  0.00    -0.174 A  
HETATM   29  C   UNL     1      -8.173   7.713  68.178  1.00  0.00    -0.124 A  
HETATM   30  F   UNL     1      -7.939   5.563  67.263  1.00  0.00    -0.098 F  
HETATM   31  C   UNL     1      -8.981   8.814  68.483  1.00  0.00    -0.138 A  
HETATM   32  C   UNL     1     -10.864   7.738  67.446  1.00  0.00    -0.207 A  
ENDBRANCH  23  25
ENDBRANCH  10  23
ENDBRANCH   2   3
TORSDOF 8
ENDMDL
MODEL       56
REMARK 921   NORMALIZED FREE ENERGY PREDICTED BY IDOCK:   -6.00 KCAL/MOL
REMARK 922        TOTAL FREE ENERGY PREDICTED BY IDOCK:  -10.44 KCAL/MOL
REMARK 923 INTER-LIGAND FREE ENERGY PREDICTED BY IDOCK:   -9.57 KCAL/MOL
REMARK 924 INTRA-LIGAND FREE ENERGY PREDICTED BY IDOCK:   -0.87 KCAL/MOL
REMARK 927      BINDING AFFINITY PREDICTED BY RF-SCORE:    0.00 PKD
ROOT
HETATM    1  C   UNL     1     -12.280  12.734  63.273  1.00  0.00    -0.410 C  
HETATM    2  O   UNL     1     -10.972  12.844  63.831  1.00  0.00    -0.388 OA 
ENDROOT
BRANCH   2   3
HETATM    3  C   UNL     1     -10.689  11.978  64.855  1.00  0.00    -0.301 A  
HETATM    4  C   UNL     1     -11.027  12.350  66.157  1.00  0.00    -0.286 A  
HETATM    5  N   UNL     1      -9.112   8.754  65.382  1.00  0.00    -0.176 NA 
HETATM    6  C   UNL     1     -10.596  11.559  67.228  1.00  0.00    -0.266 A  
HETATM    7  C   UNL     1      -9.697   9.912  65.696  1.00  0.00    -0.279 A  
HETATM    8  C   UNL     1      -9.914  10.328  67.015  1.00  0.00    -0.249 A  
HETATM    9  C   UNL     1     -10.072  10.738  64.650  1.00  0.00    -0.410 A  
HETATM   10  C   UNL     1      -9.413   9.462  68.011  1.00  0.00    -0.133 A  
HETATM   11  N   UNL     1      -8.834   8.286  67.694  1.00  0.00    -0.136 NA 
HETATM   12  C   UNL     1      -8.721   7.990  66.398  1.00  0.00    -0.151 A  
BRANCH   4  13
HETATM   13  O   UNL     1     -11.706  13.483  66.523  1.00  0.00    -0.335 OA 
BRANCH  13  14
HETATM   14  C   UNL     1     -12.078  13.574  67.911  1.00  0.00    -0.269 C  
BRANCH  14  15
HETATM   15  C   UNL     1     -10.950  14.312  68.632  1.00  0.00    -0.268 C  
BRANCH  15  16
HETATM   16  C   UNL     1     -11.035  15.841  68.547  1.00  0.00    -0.312 C  
BRANCH  16  17
HETATM   17  N   UNL     1      -9.752  16.559  68.513  1.00  0.00    -0.231 NA 
HETATM   18  C   UNL     1      -9.911  17.899  67.891  1.00  0.00    -0.309 C  
HETATM   19  C   UNL     1     -10.093  17.852  66.364  1.00  0.00    -0.369 C  
HETATM   20  C   UNL     1      -8.677  15.854  67.781  1.00  0.00    -0.170 C  
HETATM   21  C   UNL     1      -8.813  15.873  66.248  1.00  0.00    -0.351 C  
HETATM   22  O   UNL     1      -8.983  17.202  65.737  1.00  0.00    -0.523 OA 
ENDBRANCH  16  17
ENDBRANCH  15  16
ENDBRANCH  14  15
ENDBRANCH  13  14
ENDBRANCH   4  13
BRANCH  10  23
HETATM   23  N   UNL     1      -9.435   9.861  69.373  1.00  0.00    -0.200 NA 
HETATM   24  H   UNL     1      -8.595  10.341  69.695  1.00  0.00     0.000 HD 
BRANCH  23  25
HETATM   25  C   UNL     1     -10.443   9.694  70.350  1.00  0.00    -0.293 A  
HETATM   26 CL   UNL     1     -11.022   7.239  73.476  1.00  0.00    -0.314 Cl 
HETATM   27  C   UNL     1     -12.489   9.128  72.205  1.00  0.00    -0.366 A  
HETATM   28  C   UNL     1     -11.279   8.447  72.274  1.00  0.00    -0.376 A  
HETATM   29  C   UNL     1     -12.690  10.093  71.231  1.00  0.00    -0.509 A  
HETATM   30  F   UNL     1     -13.485   8.857  73.062  1.00  0.00    -0.437 F  
HETATM   31  C   UNL     1     -11.675  10.365  70.307  1.00  0.00    -0.406 A  
HETATM   32  C   UNL     1     -10.263   8.725  71.353  1.00  0.00    -0.350 A  
ENDBRANCH  23  25
ENDBRANCH  10  23
ENDBRANCH   2   3
TORSDOF 8
ENDMDL
MODEL       57
REMARK 921   NORMALIZED FREE ENERGY PREDICTED BY IDOCK:   -5.97 KCAL/MOL
REMARK 922        TOTAL FREE ENERGY PREDICTED BY IDOCK:  -10.40 KCAL/MOL
REMARK 923 INTER-LIGAND FREE ENERGY PREDICTED BY IDOCK:   -9.03 KCAL/MOL
REMARK 924 INTRA-LIGAND FREE ENERGY PREDICTED BY IDOCK:   -1.38 KCAL/MOL
REMARK 927      BINDING AFFINITY PREDICTED BY RF-SCORE:    0.00 PKD
ROOT
HETATM    1  C   UNL     1     -10.496  18.469  65.861  1.00  0.00    -0.347 C  
HETATM    2  O   UNL     1     -10.497  17.271  65.087  1.00  0.00    -0.656 OA 
ENDROOT
BRANCH   2   3
HETATM    3  C   UNL     1     -10.083  16.141  65.743  1.00  0.00    -0.363 A  
HETATM    4  C   UNL     1     -10.848  14.980  65.623  1.00  0.00    -0.349 A  
HETATM    5  N   UNL     1      -7.445  15.069  67.990  1.00  0.00    -0.112 NA 
HETATM    6  C   UNL     1     -10.537  13.870  66.416  1.00  0.00    -0.280 A  
HETATM    7  C   UNL     1      -8.568  14.990  67.272  1.00  0.00    -0.206 A  
HETATM    8  C   UNL     1      -9.393  13.860  67.262  1.00  0.00    -0.231 A  
HETATM    9  C   UNL     1      -8.927  16.104  66.531  1.00  0.00    -0.322 A  
HETATM   10  C   UNL     1      -8.993  12.813  68.121  1.00  0.00    -0.199 A  
HETATM   11  N   UNL     1      -7.852  12.888  68.836  1.00  0.00     0.056 NA 
HETATM   12  C   UNL     1      -7.135  14.007  68.728  1.00  0.00    -0.108 A  
BRANCH   4  13
HETATM   13  O   UNL     1     -11.955  14.820  64.829  1.00  0.00    -0.411 OA 
BRANCH  13  14
HETATM   14  C   UNL     1     -12.441  13.473  64.689  1.00  0.00    -0.323 C  
BRANCH  14  15
HETATM   15  C   UNL     1     -11.964  12.961  63.330  1.00  0.00    -0.612 C  
BRANCH  15  16
HETATM   16  C   UNL     1     -10.569  12.325  63.344  1.00  0.00    -0.385 C  
BRANCH  16  17
HETATM   17  N   UNL     1     -10.525  10.864  63.505  1.00  0.00    -0.285 NA 
HETATM   18  C   UNL     1     -10.101  10.494  64.879  1.00  0.00    -0.333 C  
HETATM   19  C   UNL     1      -8.601  10.716  65.143  1.00  0.00    -0.167 C  
HETATM   20  C   UNL     1      -9.620  10.173  62.559  1.00  0.00    -0.138 C  
HETATM   21  C   UNL     1      -8.119  10.326  62.866  1.00  0.00    -0.153 C  
HETATM   22  O   UNL     1      -7.805   9.968  64.218  1.00  0.00    -0.138 OA 
ENDBRANCH  16  17
ENDBRANCH  15  16
ENDBRANCH  14  15
ENDBRANCH  13  14
ENDBRANCH   4  13
BRANCH  10  23
HETATM   23  N   UNL     1      -9.839  11.690  68.311  1.00  0.00    -0.194 NA 
HETATM   24  H   UNL     1      -9.848  11.021  67.541  1.00  0.00     0.000 HD 
BRANCH  23  25
HETATM   25  C   UNL     1     -10.672  11.357  69.404  1.00  0.00    -0.104 A  
HETATM   26 CL   UNL     1     -11.222   8.106  71.697  1.00  0.00    -0.296 Cl 
HETATM   27  C   UNL     1     -12.436  10.513  71.434  1.00  0.00    -0.411 A  
HETATM   28  C   UNL     1     -11.413   9.673  71.007  1.00  0.00    -0.371 A  
HETATM   29  C   UNL     1     -12.587  11.769  70.869  1.00  0.00    -0.384 A  
HETATM   30  F   UNL     1     -13.302  10.121  72.381  1.00  0.00    -0.500 F  
HETATM   31  C   UNL     1     -11.714  12.181  69.856  1.00  0.00    -0.361 A  
HETATM   32  C   UNL     1     -10.537  10.090  69.998  1.00  0.00    -0.344 A  
ENDBRANCH  23  25
ENDBRANCH  10  23
ENDBRANCH   2   3
TORSDOF 8
ENDMDL
MODEL       58
REMARK 921   NORMALIZED FREE ENERGY PREDICTED BY IDOCK:   -5.95 KCAL/MOL
REMARK 922        TOTAL FREE ENERGY PREDICTED BY IDOCK:  -10.37 KCAL/MOL
REMARK 923 INTER-LIGAND FREE ENERGY PREDICTED BY IDOCK:   -8.88 KCAL/MOL
REMARK 924 INTRA-LIGAND FREE ENERGY PREDICTED BY IDOCK:   -1.48 KCAL/MOL
REMARK 927      BINDING AFFINITY PREDICTED BY RF-SCORE:    0.00 PKD
ROOT
HETATM    1  C   UNL     1      -7.099   9.221  63.880  1.00  0.00    -0.095 C  
HETATM    2  O   UNL     1      -7.921  10.335  64.224  1.00  0.00    -0.160 OA 
ENDROOT
BRANCH   2   3
HETATM    3  C   UNL     1      -8.626  10.213  65.393  1.00  0.00    -0.155 A  
HETATM    4  C   UNL     1      -9.989  10.514  65.387  1.00  0.00    -0.289 A  
HETATM    5  N   UNL     1      -8.061   9.375  68.877  1.00  0.00    -0.101 NA 
HETATM    6  C   UNL     1     -10.686  10.559  66.599  1.00  0.00    -0.222 A  
HETATM    7  C   UNL     1      -8.728   9.780  67.794  1.00  0.00    -0.129 A  
HETATM    8  C   UNL     1     -10.063  10.200  67.827  1.00  0.00    -0.216 A  
HETATM    9  C   UNL     1      -8.035   9.804  66.594  1.00  0.00    -0.112 A  
HETATM   10  C   UNL     1     -10.654  10.229  69.109  1.00  0.00    -0.230 A  
HETATM   11  N   UNL     1      -9.985   9.808  70.201  1.00  0.00    -0.255 NA 
HETATM   12  C   UNL     1      -8.728   9.396  70.028  1.00  0.00    -0.210 A  
BRANCH   4  13
HETATM   13  O   UNL     1     -10.738  10.845  64.287  1.00  0.00    -0.353 OA 
BRANCH  13  14
HETATM   14  C   UNL     1     -10.606  12.200  63.820  1.00  0.00    -0.439 C  
BRANCH  14  15
HETATM   15  C   UNL     1     -11.835  12.967  64.310  1.00  0.00    -0.457 C  
BRANCH  15  16
HETATM   16  C   UNL     1     -11.542  14.012  65.393  1.00  0.00    -0.328 C  
BRANCH  16  17
HETATM   17  N   UNL     1     -10.197  14.607  65.371  1.00  0.00    -0.365 NA 
HETATM   18  C   UNL     1      -9.371  14.090  66.492  1.00  0.00    -0.255 C  
HETATM   19  C   UNL     1      -9.764  14.666  67.864  1.00  0.00    -0.216 C  
HETATM   20  C   UNL     1     -10.180  16.084  65.452  1.00  0.00    -0.302 C  
HETATM   21  C   UNL     1     -10.496  16.663  66.843  1.00  0.00    -0.271 C  
HETATM   22  O   UNL     1      -9.667  16.094  67.865  1.00  0.00    -0.222 OA 
ENDBRANCH  16  17
ENDBRANCH  15  16
ENDBRANCH  14  15
ENDBRANCH  13  14
ENDBRANCH   4  13
BRANCH  10  23
HETATM   23  N   UNL     1     -11.946  10.789  69.280  1.00  0.00    -0.480 NA 
HETATM   24  H   UNL     1     -12.656  10.442  68.635  1.00  0.00     0.000 HD 
BRANCH  23  25
HETATM   25  C   UNL     1     -12.400  11.754  70.209  1.00  0.00    -0.240 A  
HETATM   26 CL   UNL     1     -12.034  15.733  70.612  1.00  0.00    -0.402 Cl 
HETATM   27  C   UNL     1     -13.060  13.725  72.113  1.00  0.00    -0.406 A  
HETATM   28  C   UNL     1     -12.432  14.086  70.925  1.00  0.00    -0.369 A  
HETATM   29  C   UNL     1     -13.372  12.398  72.360  1.00  0.00    -0.280 A  
HETATM   30  F   UNL     1     -13.360  14.644  73.043  1.00  0.00    -0.483 F  
HETATM   31  C   UNL     1     -13.035  11.421  71.416  1.00  0.00    -0.468 A  
HETATM   32  C   UNL     1     -12.102  13.109  69.980  1.00  0.00    -0.375 A  
ENDBRANCH  23  25
ENDBRANCH  10  23
ENDBRANCH   2   3
TORSDOF 8
ENDMDL
MODEL       59
REMARK 921   NORMALIZED FREE ENERGY PREDICTED BY IDOCK:   -5.95 KCAL/MOL
REMARK 922        TOTAL FREE ENERGY PREDICTED BY IDOCK:  -10.36 KCAL/MOL
REMARK 923 INTER-LIGAND FREE ENERGY PREDICTED BY IDOCK:   -9.02 KCAL/MOL
REMARK 924 INTRA-LIGAND FREE ENERGY PREDICTED BY IDOCK:   -1.35 KCAL/MOL
REMARK 927      BINDING AFFINITY PREDICTED BY RF-SCORE:    0.00 PKD
ROOT
HETATM    1  C   UNL     1     -10.675  19.060  65.892  1.00  0.00    -0.327 C  
HETATM    2  O   UNL     1      -9.890  17.909  65.587  1.00  0.00    -0.512 OA 
ENDROOT
BRANCH   2   3
HETATM    3  C   UNL     1     -10.530  16.703  65.716  1.00  0.00    -0.311 A  
HETATM    4  C   UNL     1     -10.576  16.102  66.974  1.00  0.00    -0.292 A  
HETATM    5  N   UNL     1     -12.240  14.257  63.655  1.00  0.00    -0.621 NA 
HETATM    6  C   UNL     1     -11.073  14.800  67.093  1.00  0.00    -0.333 A  
HETATM    7  C   UNL     1     -11.692  14.785  64.751  1.00  0.00    -0.422 A  
HETATM    8  C   UNL     1     -11.633  14.115  65.979  1.00  0.00    -0.364 A  
HETATM    9  C   UNL     1     -11.136  16.049  64.637  1.00  0.00    -0.346 A  
HETATM   10  C   UNL     1     -12.142  12.798  65.971  1.00  0.00    -0.395 A  
HETATM   11  N   UNL     1     -12.707  12.269  64.867  1.00  0.00    -0.576 NA 
HETATM   12  C   UNL     1     -12.734  13.027  63.770  1.00  0.00    -0.069 A  
BRANCH   4  13
HETATM   13  O   UNL     1     -10.110  16.642  68.145  1.00  0.00    -0.249 OA 
BRANCH  13  14
HETATM   14  C   UNL     1      -8.973  15.985  68.734  1.00  0.00    -0.226 C  
BRANCH  14  15
HETATM   15  C   UNL     1      -7.846  17.016  68.809  1.00  0.00    -0.253 C  
BRANCH  15  16
HETATM   16  C   UNL     1      -7.054  17.187  67.507  1.00  0.00    -0.154 C  
BRANCH  16  17
HETATM   17  N   UNL     1      -6.012  18.226  67.515  1.00  0.00    -0.161 NA 
HETATM   18  C   UNL     1      -6.550  19.512  68.026  1.00  0.00    -0.237 C  
HETATM   19  C   UNL     1      -7.471  20.236  67.028  1.00  0.00    -0.292 C  
HETATM   20  C   UNL     1      -5.405  18.492  66.192  1.00  0.00    -0.150 C  
HETATM   21  C   UNL     1      -6.294  19.286  65.217  1.00  0.00    -0.279 C  
HETATM   22  O   UNL     1      -6.785  20.500  65.800  1.00  0.00    -0.241 OA 
ENDBRANCH  16  17
ENDBRANCH  15  16
ENDBRANCH  14  15
ENDBRANCH  13  14
ENDBRANCH   4  13
BRANCH  10  23
HETATM   23  N   UNL     1     -11.987  11.972  67.115  1.00  0.00    -0.598 NA 
HETATM   24  H   UNL     1     -12.785  11.959  67.749  1.00  0.00     0.000 HD 
BRANCH  23  25
HETATM   25  C   UNL     1     -10.895  11.164  67.508  1.00  0.00    -0.254 A  
HETATM   26 CL   UNL     1      -9.835   9.217  70.857  1.00  0.00    -0.332 Cl 
HETATM   27  C   UNL     1      -8.666   9.731  68.469  1.00  0.00    -0.120 A  
HETATM   28  C   UNL     1      -9.793   9.883  69.268  1.00  0.00    -0.207 A  
HETATM   29  C   UNL     1      -8.637  10.275  67.195  1.00  0.00    -0.126 A  
HETATM   30  F   UNL     1      -7.585   9.075  68.916  1.00  0.00    -0.077 F  
HETATM   31  C   UNL     1      -9.743  10.993  66.725  1.00  0.00    -0.222 A  
HETATM   32  C   UNL     1     -10.900  10.596  68.794  1.00  0.00    -0.269 A  
ENDBRANCH  23  25
ENDBRANCH  10  23
ENDBRANCH   2   3
TORSDOF 8
ENDMDL
MODEL       60
REMARK 921   NORMALIZED FREE ENERGY PREDICTED BY IDOCK:   -5.93 KCAL/MOL
REMARK 922        TOTAL FREE ENERGY PREDICTED BY IDOCK:  -10.33 KCAL/MOL
REMARK 923 INTER-LIGAND FREE ENERGY PREDICTED BY IDOCK:   -9.21 KCAL/MOL
REMARK 924 INTRA-LIGAND FREE ENERGY PREDICTED BY IDOCK:   -1.12 KCAL/MOL
REMARK 927      BINDING AFFINITY PREDICTED BY RF-SCORE:    0.00 PKD
ROOT
HETATM    1  C   UNL     1      -8.030   6.283  64.395  1.00  0.00    -0.113 C  
HETATM    2  O   UNL     1      -8.411   6.780  65.676  1.00  0.00    -0.143 OA 
ENDROOT
BRANCH   2   3
HETATM    3  C   UNL     1      -8.951   8.040  65.686  1.00  0.00    -0.054 A  
HETATM    4  C   UNL     1      -9.642   8.462  66.822  1.00  0.00    -0.219 A  
HETATM    5  N   UNL     1      -9.302  10.906  63.489  1.00  0.00    -0.247 NA 
HETATM    6  C   UNL     1     -10.342   9.673  66.788  1.00  0.00    -0.292 A  
HETATM    7  C   UNL     1      -9.475  10.151  64.577  1.00  0.00    -0.303 A  
HETATM    8  C   UNL     1     -10.276  10.536  65.658  1.00  0.00    -0.315 A  
HETATM    9  C   UNL     1      -8.841   8.919  64.602  1.00  0.00    -0.098 A  
HETATM   10  C   UNL     1     -10.953  11.765  65.499  1.00  0.00    -0.290 A  
HETATM   11  N   UNL     1     -10.769  12.533  64.406  1.00  0.00    -0.325 NA 
HETATM   12  C   UNL     1      -9.948  12.068  63.463  1.00  0.00    -0.368 A  
BRANCH   4  13
HETATM   13  O   UNL     1      -9.771   7.764  67.995  1.00  0.00    -0.148 OA 
BRANCH  13  14
HETATM   14  C   UNL     1     -10.605   6.593  67.944  1.00  0.00    -0.247 C  
BRANCH  14  15
HETATM   15  C   UNL     1     -11.247   6.436  69.322  1.00  0.00    -0.440 C  
BRANCH  15  16
HETATM   16  C   UNL     1     -11.066   7.644  70.249  1.00  0.00    -0.244 C  
BRANCH  16  17
HETATM   17  N   UNL     1     -11.457   7.447  71.653  1.00  0.00    -0.256 NA 
HETATM   18  C   UNL     1     -12.752   6.726  71.747  1.00  0.00    -0.296 C  
HETATM   19  C   UNL     1     -13.969   7.592  71.376  1.00  0.00    -0.356 C  
HETATM   20  C   UNL     1     -11.588   8.698  72.432  1.00  0.00    -0.315 C  
HETATM   21  C   UNL     1     -12.847   9.529  72.121  1.00  0.00    -0.389 C  
HETATM   22  O   UNL     1     -14.045   8.749  72.215  1.00  0.00    -0.439 OA 
ENDBRANCH  16  17
ENDBRANCH  15  16
ENDBRANCH  14  15
ENDBRANCH  13  14
ENDBRANCH   4  13
BRANCH  10  23
HETATM   23  N   UNL     1     -11.915  12.174  66.459  1.00  0.00    -0.631 NA 
HETATM   24  H   UNL     1     -12.810  11.689  66.407  1.00  0.00     0.000 HD 
BRANCH  23  25
HETATM   25  C   UNL     1     -11.821  13.149  67.478  1.00  0.00    -0.360 A  
HETATM   26 CL   UNL     1     -12.584  13.255  71.420  1.00  0.00    -0.407 Cl 
HETATM   27  C   UNL     1     -11.886  15.073  69.537  1.00  0.00    -0.330 A  
HETATM   28  C   UNL     1     -12.171  13.741  69.819  1.00  0.00    -0.310 A  
HETATM   29  C   UNL     1     -11.561  15.457  68.246  1.00  0.00    -0.361 A  
HETATM   30  F   UNL     1     -11.936  16.009  70.498  1.00  0.00    -0.345 F  
HETATM   31  C   UNL     1     -11.538  14.501  67.226  1.00  0.00    -0.405 A  
HETATM   32  C   UNL     1     -12.140  12.786  68.798  1.00  0.00    -0.165 A  
ENDBRANCH  23  25
ENDBRANCH  10  23
ENDBRANCH   2   3
TORSDOF 8
ENDMDL
MODEL       61
REMARK 921   NORMALIZED FREE ENERGY PREDICTED BY IDOCK:   -5.90 KCAL/MOL
REMARK 922        TOTAL FREE ENERGY PREDICTED BY IDOCK:  -10.30 KCAL/MOL
REMARK 923 INTER-LIGAND FREE ENERGY PREDICTED BY IDOCK:   -8.76 KCAL/MOL
REMARK 924 INTRA-LIGAND FREE ENERGY PREDICTED BY IDOCK:   -1.54 KCAL/MOL
REMARK 927      BINDING AFFINITY PREDICTED BY RF-SCORE:    0.00 PKD
ROOT
HETATM    1  C   UNL     1     -11.614  14.630  65.828  1.00  0.00    -0.328 C  
HETATM    2  O   UNL     1     -10.727  14.597  66.944  1.00  0.00    -0.285 OA 
ENDROOT
BRANCH   2   3
HETATM    3  C   UNL     1     -11.092  13.762  67.968  1.00  0.00    -0.261 A  
HETATM    4  C   UNL     1     -10.762  12.409  67.877  1.00  0.00    -0.220 A  
HETATM    5  N   UNL     1     -12.894  13.884  71.114  1.00  0.00    -0.349 NA 
HETATM    6  C   UNL     1     -11.271  11.515  68.826  1.00  0.00    -0.309 A  
HETATM    7  C   UNL     1     -12.241  13.345  70.081  1.00  0.00    -0.315 A  
HETATM    8  C   UNL     1     -12.028  11.969  69.942  1.00  0.00    -0.391 A  
HETATM    9  C   UNL     1     -11.786  14.209  69.099  1.00  0.00    -0.368 A  
HETATM   10  C   UNL     1     -12.610  11.164  70.945  1.00  0.00    -0.386 A  
HETATM   11  N   UNL     1     -13.259  11.708  71.995  1.00  0.00    -0.457 NA 
HETATM   12  C   UNL     1     -13.360  13.037  72.029  1.00  0.00    -0.492 A  
BRANCH   4  13
HETATM   13  O   UNL     1     -10.017  11.824  66.886  1.00  0.00    -0.196 OA 
BRANCH  13  14
HETATM   14  C   UNL     1     -10.722  10.920  66.017  1.00  0.00    -0.140 C  
BRANCH  14  15
HETATM   15  C   UNL     1      -9.673  10.180  65.188  1.00  0.00    -0.370 C  
BRANCH  15  16
HETATM   16  C   UNL     1      -9.316   8.784  65.712  1.00  0.00    -0.191 C  
BRANCH  16  17
HETATM   17  N   UNL     1      -9.776   8.467  67.073  1.00  0.00    -0.186 NA 
HETATM   18  C   UNL     1      -8.625   8.210  67.976  1.00  0.00    -0.129 C  
HETATM   19  C   UNL     1      -7.940   6.853  67.732  1.00  0.00    -0.114 C  
HETATM   20  C   UNL     1     -10.676   7.295  67.156  1.00  0.00    -0.343 C  
HETATM   21  C   UNL     1      -9.982   5.930  66.992  1.00  0.00    -0.166 C  
HETATM   22  O   UNL     1      -8.872   5.778  67.886  1.00  0.00    -0.111 OA 
ENDBRANCH  16  17
ENDBRANCH  15  16
ENDBRANCH  14  15
ENDBRANCH  13  14
ENDBRANCH   4  13
BRANCH  10  23
HETATM   23  N   UNL     1     -12.595   9.751  70.817  1.00  0.00    -0.489 NA 
HETATM   24  H   UNL     1     -13.373   9.357  70.288  1.00  0.00     0.000 HD 
BRANCH  23  25
HETATM   25  C   UNL     1     -11.666   8.806  71.311  1.00  0.00    -0.298 A  
HETATM   26 CL   UNL     1     -11.894   5.103  72.850  1.00  0.00    -0.255 Cl 
HETATM   27  C   UNL     1      -9.932   6.941  72.520  1.00  0.00    -0.169 A  
HETATM   28  C   UNL     1     -11.273   6.625  72.332  1.00  0.00    -0.267 A  
HETATM   29  C   UNL     1      -9.442   8.170  72.107  1.00  0.00    -0.291 A  
HETATM   30  F   UNL     1      -9.096   6.078  73.117  1.00  0.00    -0.131 F  
HETATM   31  C   UNL     1     -10.308   9.096  71.515  1.00  0.00    -0.414 A  
HETATM   32  C   UNL     1     -12.136   7.550  71.733  1.00  0.00    -0.340 A  
ENDBRANCH  23  25
ENDBRANCH  10  23
ENDBRANCH   2   3
TORSDOF 8
ENDMDL
MODEL       62
REMARK 921   NORMALIZED FREE ENERGY PREDICTED BY IDOCK:   -5.88 KCAL/MOL
REMARK 922        TOTAL FREE ENERGY PREDICTED BY IDOCK:  -10.26 KCAL/MOL
REMARK 923 INTER-LIGAND FREE ENERGY PREDICTED BY IDOCK:   -8.82 KCAL/MOL
REMARK 924 INTRA-LIGAND FREE ENERGY PREDICTED BY IDOCK:   -1.44 KCAL/MOL
REMARK 927      BINDING AFFINITY PREDICTED BY RF-SCORE:    0.00 PKD
ROOT
HETATM    1  C   UNL     1     -10.234  19.183  66.054  1.00  0.00    -0.424 C  
HETATM    2  O   UNL     1      -9.464  18.033  65.710  1.00  0.00    -0.495 OA 
ENDROOT
BRANCH   2   3
HETATM    3  C   UNL     1     -10.053  16.824  65.976  1.00  0.00    -0.332 A  
HETATM    4  C   UNL     1      -9.791  16.209  67.201  1.00  0.00    -0.241 A  
HETATM    5  N   UNL     1     -12.212  14.395  64.364  1.00  0.00    -0.574 NA 
HETATM    6  C   UNL     1     -10.244  14.903  67.422  1.00  0.00    -0.234 A  
HETATM    7  C   UNL     1     -11.414  14.913  65.301  1.00  0.00    -0.336 A  
HETATM    8  C   UNL     1     -11.058  14.229  66.469  1.00  0.00    -0.323 A  
HETATM    9  C   UNL     1     -10.903  16.180  65.069  1.00  0.00    -0.380 A  
HETATM   10  C   UNL     1     -11.552  12.911  66.570  1.00  0.00    -0.371 A  
HETATM   11  N   UNL     1     -12.368  12.391  65.631  1.00  0.00    -0.621 NA 
HETATM   12  C   UNL     1     -12.662  13.162  64.582  1.00  0.00    -0.261 A  
BRANCH   4  13
HETATM   13  O   UNL     1      -9.055  16.738  68.230  1.00  0.00    -0.215 OA 
BRANCH  13  14
HETATM   14  C   UNL     1      -7.634  16.521  68.164  1.00  0.00    -0.161 C  
BRANCH  14  15
HETATM   15  C   UNL     1      -7.280  15.512  69.256  1.00  0.00    -0.196 C  
BRANCH  15  16
HETATM   16  C   UNL     1      -6.189  14.508  68.865  1.00  0.00    -0.087 C  
BRANCH  16  17
HETATM   17  N   UNL     1      -6.453  13.101  69.205  1.00  0.00    -0.103 NA 
HETATM   18  C   UNL     1      -5.311  12.237  68.810  1.00  0.00    -0.050 C  
HETATM   19  C   UNL     1      -5.209  12.005  67.292  1.00  0.00    -0.113 C  
HETATM   20  C   UNL     1      -7.672  12.540  68.580  1.00  0.00    -0.063 C  
HETATM   21  C   UNL     1      -7.549  12.232  67.077  1.00  0.00    -0.071 C  
HETATM   22  O   UNL     1      -6.410  11.412  66.785  1.00  0.00    -0.123 OA 
ENDBRANCH  16  17
ENDBRANCH  15  16
ENDBRANCH  14  15
ENDBRANCH  13  14
ENDBRANCH   4  13
BRANCH  10  23
HETATM   23  N   UNL     1     -11.123  12.072  67.632  1.00  0.00    -0.247 NA 
HETATM   24  H   UNL     1     -10.332  11.467  67.411  1.00  0.00     0.000 HD 
BRANCH  23  25
HETATM   25  C   UNL     1     -11.623  11.949  68.949  1.00  0.00    -0.311 A  
HETATM   26 CL   UNL     1     -12.786   8.903  71.295  1.00  0.00    -0.323 Cl 
HETATM   27  C   UNL     1     -12.833  11.606  71.471  1.00  0.00    -0.364 A  
HETATM   28  C   UNL     1     -12.476  10.495  70.713  1.00  0.00    -0.378 A  
HETATM   29  C   UNL     1     -12.587  12.883  70.994  1.00  0.00    -0.376 A  
HETATM   30  F   UNL     1     -13.433  11.465  72.663  1.00  0.00    -0.324 F  
HETATM   31  C   UNL     1     -11.994  13.049  69.737  1.00  0.00    -0.377 A  
HETATM   32  C   UNL     1     -11.877  10.664  69.460  1.00  0.00    -0.345 A  
ENDBRANCH  23  25
ENDBRANCH  10  23
ENDBRANCH   2   3
TORSDOF 8
ENDMDL
MODEL       63
REMARK 921   NORMALIZED FREE ENERGY PREDICTED BY IDOCK:   -5.88 KCAL/MOL
REMARK 922        TOTAL FREE ENERGY PREDICTED BY IDOCK:  -10.26 KCAL/MOL
REMARK 923 INTER-LIGAND FREE ENERGY PREDICTED BY IDOCK:   -8.76 KCAL/MOL
REMARK 924 INTRA-LIGAND FREE ENERGY PREDICTED BY IDOCK:   -1.50 KCAL/MOL
REMARK 927      BINDING AFFINITY PREDICTED BY RF-SCORE:    0.00 PKD
ROOT
HETATM    1  C   UNL     1     -11.610  15.590  68.805  1.00  0.00    -0.378 C  
HETATM    2  O   UNL     1     -12.388  14.394  68.802  1.00  0.00    -0.217 OA 
ENDROOT
BRANCH   2   3
HETATM    3  C   UNL     1     -11.908  13.377  68.018  1.00  0.00    -0.357 A  
HETATM    4  C   UNL     1     -11.318  12.275  68.640  1.00  0.00    -0.291 A  
HETATM    5  N   UNL     1     -11.536  12.543  64.507  1.00  0.00    -0.322 NA 
HETATM    6  C   UNL     1     -10.674  11.311  67.857  1.00  0.00    -0.250 A  
HETATM    7  C   UNL     1     -11.405  12.418  65.830  1.00  0.00    -0.356 A  
HETATM    8  C   UNL     1     -10.700  11.371  66.435  1.00  0.00    -0.325 A  
HETATM    9  C   UNL     1     -11.982  13.399  66.620  1.00  0.00    -0.452 A  
HETATM   10  C   UNL     1     -10.071  10.474  65.545  1.00  0.00    -0.283 A  
HETATM   11  N   UNL     1     -10.212  10.594  64.209  1.00  0.00    -0.353 NA 
HETATM   12  C   UNL     1     -10.942  11.615  63.761  1.00  0.00    -0.422 A  
BRANCH   4  13
HETATM   13  O   UNL     1     -11.241  12.056  69.991  1.00  0.00    -0.065 OA 
BRANCH  13  14
HETATM   14  C   UNL     1     -12.488  11.786  70.658  1.00  0.00    -0.274 C  
BRANCH  14  15
HETATM   15  C   UNL     1     -12.476  10.309  71.053  1.00  0.00    -0.484 C  
BRANCH  15  16
HETATM   16  C   UNL     1     -11.077   9.696  71.181  1.00  0.00    -0.374 C  
BRANCH  16  17
HETATM   17  N   UNL     1     -10.961   8.529  72.069  1.00  0.00    -0.316 NA 
HETATM   18  C   UNL     1      -9.689   7.801  71.825  1.00  0.00    -0.164 C  
HETATM   19  C   UNL     1      -9.684   6.991  70.516  1.00  0.00    -0.176 C  
HETATM   20  C   UNL     1     -12.064   7.552  71.941  1.00  0.00    -0.305 C  
HETATM   21  C   UNL     1     -12.019   6.683  70.670  1.00  0.00    -0.343 C  
HETATM   22  O   UNL     1     -10.751   6.036  70.503  1.00  0.00    -0.244 OA 
ENDBRANCH  16  17
ENDBRANCH  15  16
ENDBRANCH  14  15
ENDBRANCH  13  14
ENDBRANCH   4  13
BRANCH  10  23
HETATM   23  N   UNL     1      -9.198   9.473  66.047  1.00  0.00    -0.180 NA 
HETATM   24  H   UNL     1      -8.245   9.784  66.231  1.00  0.00     0.000 HD 
BRANCH  23  25
HETATM   25  C   UNL     1      -9.449   8.111  66.330  1.00  0.00    -0.218 A  
HETATM   26 CL   UNL     1      -7.590   4.636  65.557  1.00  0.00    -0.081 Cl 
HETATM   27  C   UNL     1      -9.964   5.357  66.642  1.00  0.00    -0.195 A  
HETATM   28  C   UNL     1      -8.764   5.782  66.082  1.00  0.00    -0.139 A  
HETATM   29  C   UNL     1     -10.906   6.285  67.057  1.00  0.00    -0.458 A  
HETATM   30  F   UNL     1     -10.239   4.051  66.777  1.00  0.00    -0.225 F  
HETATM   31  C   UNL     1     -10.651   7.651  66.892  1.00  0.00    -0.359 A  
HETATM   32  C   UNL     1      -8.508   7.149  65.925  1.00  0.00    -0.151 A  
ENDBRANCH  23  25
ENDBRANCH  10  23
ENDBRANCH   2   3
TORSDOF 8
ENDMDL
MODEL       64
REMARK 921   NORMALIZED FREE ENERGY PREDICTED BY IDOCK:   -5.88 KCAL/MOL
REMARK 922        TOTAL FREE ENERGY PREDICTED BY IDOCK:  -10.26 KCAL/MOL
REMARK 923 INTER-LIGAND FREE ENERGY PREDICTED BY IDOCK:   -9.05 KCAL/MOL
REMARK 924 INTRA-LIGAND FREE ENERGY PREDICTED BY IDOCK:   -1.21 KCAL/MOL
REMARK 927      BINDING AFFINITY PREDICTED BY RF-SCORE:    0.00 PKD
ROOT
HETATM    1  C   UNL     1     -11.157   9.071  71.794  1.00  0.00    -0.374 C  
HETATM    2  O   UNL     1     -12.400   9.457  71.210  1.00  0.00    -0.313 OA 
ENDROOT
BRANCH   2   3
HETATM    3  C   UNL     1     -12.543  10.795  70.950  1.00  0.00    -0.401 A  
HETATM    4  C   UNL     1     -12.122  11.283  69.712  1.00  0.00    -0.325 A  
HETATM    5  N   UNL     1     -13.677  13.819  72.601  1.00  0.00    -0.722 NA 
HETATM    6  C   UNL     1     -12.103  12.665  69.492  1.00  0.00    -0.253 A  
HETATM    7  C   UNL     1     -13.137  13.058  71.646  1.00  0.00    -0.347 A  
HETATM    8  C   UNL     1     -12.603  13.578  70.461  1.00  0.00    -0.311 A  
HETATM    9  C   UNL     1     -13.089  11.692  71.875  1.00  0.00    -0.490 A  
HETATM   10  C   UNL     1     -12.615  14.986  70.362  1.00  0.00    -0.350 A  
HETATM   11  N   UNL     1     -13.171  15.754  71.321  1.00  0.00    -0.511 NA 
HETATM   12  C   UNL     1     -13.680  15.131  72.385  1.00  0.00    -0.496 A  
BRANCH   4  13
HETATM   13  O   UNL     1     -11.647  10.534  68.667  1.00  0.00    -0.258 OA 
BRANCH  13  14
HETATM   14  C   UNL     1     -10.417  10.989  68.073  1.00  0.00    -0.189 C  
BRANCH  14  15
HETATM   15  C   UNL     1      -9.352   9.936  68.379  1.00  0.00    -0.135 C  
BRANCH  15  16
HETATM   16  C   UNL     1      -9.068   8.965  67.227  1.00  0.00    -0.134 C  
BRANCH  16  17
HETATM   17  N   UNL     1      -7.721   9.033  66.640  1.00  0.00    -0.096 NA 
HETATM   18  C   UNL     1      -7.582  10.228  65.769  1.00  0.00    -0.143 C  
HETATM   19  C   UNL     1      -8.321  10.101  64.425  1.00  0.00    -0.171 C  
HETATM   20  C   UNL     1      -7.345   7.850  65.835  1.00  0.00    -0.076 C  
HETATM   21  C   UNL     1      -8.022   7.760  64.455  1.00  0.00    -0.135 C  
HETATM   22  O   UNL     1      -7.855   8.962  63.693  1.00  0.00    -0.126 OA 
ENDBRANCH  16  17
ENDBRANCH  15  16
ENDBRANCH  14  15
ENDBRANCH  13  14
ENDBRANCH   4  13
BRANCH  10  23
HETATM   23  N   UNL     1     -11.955  15.625  69.280  1.00  0.00    -0.489 NA 
HETATM   24  H   UNL     1     -12.516  15.733  68.435  1.00  0.00     0.000 HD 
BRANCH  23  25
HETATM   25  C   UNL     1     -10.640  16.136  69.195  1.00  0.00    -0.276 A  
HETATM   26 CL   UNL     1      -8.983  19.591  67.990  1.00  0.00    -0.368 Cl 
HETATM   27  C   UNL     1      -8.052  17.170  68.771  1.00  0.00    -0.252 A  
HETATM   28  C   UNL     1      -9.167  17.971  68.546  1.00  0.00    -0.288 A  
HETATM   29  C   UNL     1      -8.208  15.866  69.212  1.00  0.00    -0.227 A  
HETATM   30  F   UNL     1      -6.812  17.635  68.551  1.00  0.00    -0.189 F  
HETATM   31  C   UNL     1      -9.495  15.354  69.413  1.00  0.00    -0.267 A  
HETATM   32  C   UNL     1     -10.452  17.458  68.754  1.00  0.00    -0.333 A  
ENDBRANCH  23  25
ENDBRANCH  10  23
ENDBRANCH   2   3
TORSDOF 8
ENDMDL
MODEL       65
REMARK 921   NORMALIZED FREE ENERGY PREDICTED BY IDOCK:   -5.86 KCAL/MOL
REMARK 922        TOTAL FREE ENERGY PREDICTED BY IDOCK:  -10.24 KCAL/MOL
REMARK 923 INTER-LIGAND FREE ENERGY PREDICTED BY IDOCK:   -9.35 KCAL/MOL
REMARK 924 INTRA-LIGAND FREE ENERGY PREDICTED BY IDOCK:   -0.89 KCAL/MOL
REMARK 927      BINDING AFFINITY PREDICTED BY RF-SCORE:    0.00 PKD
ROOT
HETATM    1  C   UNL     1     -12.349  14.853  64.479  1.00  0.00    -0.315 C  
HETATM    2  O   UNL     1     -12.867  13.596  64.909  1.00  0.00    -0.688 OA 
ENDROOT
BRANCH   2   3
HETATM    3  C   UNL     1     -11.959  12.571  64.975  1.00  0.00    -0.427 A  
HETATM    4  C   UNL     1     -11.658  12.024  66.223  1.00  0.00    -0.310 A  
HETATM    5  N   UNL     1      -9.782  10.671  62.781  1.00  0.00    -0.290 NA 
HETATM    6  C   UNL     1     -10.614  11.099  66.331  1.00  0.00    -0.315 A  
HETATM    7  C   UNL     1     -10.327  11.089  63.926  1.00  0.00    -0.372 A  
HETATM    8  C   UNL     1      -9.924  10.621  65.182  1.00  0.00    -0.366 A  
HETATM    9  C   UNL     1     -11.317  12.054  63.843  1.00  0.00    -0.503 A  
HETATM   10  C   UNL     1      -8.846   9.710  65.169  1.00  0.00    -0.180 A  
HETATM   11  N   UNL     1      -8.304   9.278  64.012  1.00  0.00    -0.168 NA 
HETATM   12  C   UNL     1      -8.805   9.775  62.880  1.00  0.00    -0.250 A  
BRANCH   4  13
HETATM   13  O   UNL     1     -12.253  12.353  67.414  1.00  0.00    -0.459 OA 
BRANCH  13  14
HETATM   14  C   UNL     1     -11.383  12.894  68.425  1.00  0.00    -0.294 C  
BRANCH  14  15
HETATM   15  C   UNL     1     -12.272  13.554  69.478  1.00  0.00    -0.289 C  
BRANCH  15  16
HETATM   16  C   UNL     1     -11.597  14.687  70.260  1.00  0.00    -0.280 C  
BRANCH  16  17
HETATM   17  N   UNL     1     -12.498  15.640  70.927  1.00  0.00    -0.437 NA 
HETATM   18  C   UNL     1     -11.863  16.206  72.145  1.00  0.00    -0.536 C  
HETATM   19  C   UNL     1     -11.796  15.218  73.322  1.00  0.00    -0.364 C  
HETATM   20  C   UNL     1     -13.801  15.067  71.331  1.00  0.00    -0.479 C  
HETATM   21  C   UNL     1     -13.751  14.139  72.559  1.00  0.00    -0.522 C  
HETATM   22  O   UNL     1     -13.105  14.759  73.678  1.00  0.00    -0.527 OA 
ENDBRANCH  16  17
ENDBRANCH  15  16
ENDBRANCH  14  15
ENDBRANCH  13  14
ENDBRANCH   4  13
BRANCH  10  23
HETATM   23  N   UNL     1      -8.252   9.296  66.390  1.00  0.00    -0.110 NA 
HETATM   24  H   UNL     1      -8.160   8.287  66.505  1.00  0.00     0.000 HD 
BRANCH  23  25
HETATM   25  C   UNL     1      -7.769  10.069  67.471  1.00  0.00    -0.091 A  
HETATM   26 CL   UNL     1      -5.298  13.211  67.864  1.00  0.00    -0.107 Cl 
HETATM   27  C   UNL     1      -6.571  11.530  69.563  1.00  0.00    -0.120 A  
HETATM   28  C   UNL     1      -6.335  11.888  68.240  1.00  0.00    -0.051 A  
HETATM   29  C   UNL     1      -7.401  10.460  69.857  1.00  0.00    -0.149 A  
HETATM   30  F   UNL     1      -5.990  12.195  70.573  1.00  0.00    -0.154 F  
HETATM   31  C   UNL     1      -7.987   9.733  68.816  1.00  0.00    -0.087 A  
HETATM   32  C   UNL     1      -6.928  11.163  67.200  1.00  0.00    -0.112 A  
ENDBRANCH  23  25
ENDBRANCH  10  23
ENDBRANCH   2   3
TORSDOF 8
ENDMDL
MODEL       66
REMARK 921   NORMALIZED FREE ENERGY PREDICTED BY IDOCK:   -5.86 KCAL/MOL
REMARK 922        TOTAL FREE ENERGY PREDICTED BY IDOCK:  -10.23 KCAL/MOL
REMARK 923 INTER-LIGAND FREE ENERGY PREDICTED BY IDOCK:   -8.84 KCAL/MOL
REMARK 924 INTRA-LIGAND FREE ENERGY PREDICTED BY IDOCK:   -1.39 KCAL/MOL
REMARK 927      BINDING AFFINITY PREDICTED BY RF-SCORE:    0.00 PKD
ROOT
HETATM    1  C   UNL     1     -12.522  14.423  70.141  1.00  0.00    -0.339 C  
HETATM    2  O   UNL     1     -12.161  13.393  69.223  1.00  0.00    -0.311 OA 
ENDROOT
BRANCH   2   3
HETATM    3  C   UNL     1     -11.894  12.169  69.780  1.00  0.00    -0.327 A  
HETATM    4  C   UNL     1     -10.703  11.526  69.441  1.00  0.00    -0.068 A  
HETATM    5  N   UNL     1     -13.447   9.753  71.997  1.00  0.00    -0.420 NA 
HETATM    6  C   UNL     1     -10.493  10.209  69.864  1.00  0.00    -0.322 A  
HETATM    7  C   UNL     1     -12.543  10.258  71.153  1.00  0.00    -0.400 A  
HETATM    8  C   UNL     1     -11.416   9.548  70.722  1.00  0.00    -0.378 A  
HETATM    9  C   UNL     1     -12.769  11.537  70.672  1.00  0.00    -0.259 A  
HETATM   10  C   UNL     1     -11.323   8.221  71.194  1.00  0.00    -0.263 A  
HETATM   11  N   UNL     1     -12.228   7.715  72.056  1.00  0.00    -0.299 NA 
HETATM   12  C   UNL     1     -13.237   8.509  72.418  1.00  0.00    -0.282 A  
BRANCH   4  13
HETATM   13  O   UNL     1      -9.704  12.038  68.654  1.00  0.00    -0.183 OA 
BRANCH  13  14
HETATM   14  C   UNL     1      -9.306  11.226  67.534  1.00  0.00    -0.162 C  
BRANCH  14  15
HETATM   15  C   UNL     1      -9.086  12.169  66.351  1.00  0.00    -0.177 C  
BRANCH  15  16
HETATM   16  C   UNL     1     -10.193  12.127  65.291  1.00  0.00    -0.274 C  
BRANCH  16  17
HETATM   17  N   UNL     1     -11.509  12.636  65.709  1.00  0.00    -0.339 NA 
HETATM   18  C   UNL     1     -12.534  12.376  64.666  1.00  0.00    -0.420 C  
HETATM   19  C   UNL     1     -12.406  13.291  63.435  1.00  0.00    -0.324 C  
HETATM   20  C   UNL     1     -11.536  14.085  66.008  1.00  0.00    -0.338 C  
HETATM   21  C   UNL     1     -11.489  15.004  64.773  1.00  0.00    -0.403 C  
HETATM   22  O   UNL     1     -12.498  14.669  63.812  1.00  0.00    -0.799 OA 
ENDBRANCH  16  17
ENDBRANCH  15  16
ENDBRANCH  14  15
ENDBRANCH  13  14
ENDBRANCH   4  13
BRANCH  10  23
HETATM   23  N   UNL     1     -10.310   7.361  70.694  1.00  0.00    -0.210 NA 
HETATM   24  H   UNL     1      -9.664   7.001  71.397  1.00  0.00     0.000 HD 
BRANCH  23  25
HETATM   25  C   UNL     1     -10.059   6.928  69.372  1.00  0.00    -0.167 A  
HETATM   26 CL   UNL     1      -6.914   7.023  66.876  1.00  0.00    -0.068 Cl 
HETATM   27  C   UNL     1      -9.519   6.310  66.675  1.00  0.00    -0.152 A  
HETATM   28  C   UNL     1      -8.504   6.787  67.497  1.00  0.00    -0.121 A  
HETATM   29  C   UNL     1     -10.797   6.129  67.181  1.00  0.00    -0.442 A  
HETATM   30  F   UNL     1      -9.290   6.033  65.382  1.00  0.00    -0.080 F  
HETATM   31  C   UNL     1     -11.063   6.445  68.517  1.00  0.00    -0.385 A  
HETATM   32  C   UNL     1      -8.771   7.096  68.835  1.00  0.00    -0.128 A  
ENDBRANCH  23  25
ENDBRANCH  10  23
ENDBRANCH   2   3
TORSDOF 8
ENDMDL
MODEL       67
REMARK 921   NORMALIZED FREE ENERGY PREDICTED BY IDOCK:   -5.85 KCAL/MOL
REMARK 922        TOTAL FREE ENERGY PREDICTED BY IDOCK:  -10.22 KCAL/MOL
REMARK 923 INTER-LIGAND FREE ENERGY PREDICTED BY IDOCK:   -9.14 KCAL/MOL
REMARK 924 INTRA-LIGAND FREE ENERGY PREDICTED BY IDOCK:   -1.08 KCAL/MOL
REMARK 927      BINDING AFFINITY PREDICTED BY RF-SCORE:    0.00 PKD
ROOT
HETATM    1  C   UNL     1     -10.134   6.953  70.719  1.00  0.00    -0.194 C  
HETATM    2  O   UNL     1     -10.900   7.922  70.006  1.00  0.00    -0.247 OA 
ENDROOT
BRANCH   2   3
HETATM    3  C   UNL     1     -10.306   8.436  68.883  1.00  0.00    -0.215 A  
HETATM    4  C   UNL     1     -10.273   9.822  68.719  1.00  0.00    -0.194 A  
HETATM    5  N   UNL     1      -8.709   7.284  65.836  1.00  0.00    -0.149 NA 
HETATM    6  C   UNL     1      -9.826  10.357  67.506  1.00  0.00    -0.202 A  
HETATM    7  C   UNL     1      -9.228   8.149  66.712  1.00  0.00    -0.164 A  
HETATM    8  C   UNL     1      -9.302   9.527  66.476  1.00  0.00    -0.220 A  
HETATM    9  C   UNL     1      -9.735   7.630  67.891  1.00  0.00    -0.174 A  
HETATM   10  C   UNL     1      -8.845   9.947  65.209  1.00  0.00    -0.181 A  
HETATM   11  N   UNL     1      -8.310   9.076  64.329  1.00  0.00    -0.168 NA 
HETATM   12  C   UNL     1      -8.263   7.793  64.691  1.00  0.00    -0.076 A  
BRANCH   4  13
HETATM   13  O   UNL     1     -10.708  10.753  69.626  1.00  0.00    -0.240 OA 
BRANCH  13  14
HETATM   14  C   UNL     1     -10.664  12.124  69.192  1.00  0.00    -0.061 C  
BRANCH  14  15
HETATM   15  C   UNL     1     -12.064  12.705  69.394  1.00  0.00    -0.236 C  
BRANCH  15  16
HETATM   16  C   UNL     1     -12.338  13.224  70.810  1.00  0.00    -0.344 C  
BRANCH  16  17
HETATM   17  N   UNL     1     -13.327  14.308  70.922  1.00  0.00    -0.284 NA 
HETATM   18  C   UNL     1     -12.722  15.617  70.566  1.00  0.00    -0.346 C  
HETATM   19  C   UNL     1     -11.773  16.171  71.644  1.00  0.00    -0.484 C  
HETATM   20  C   UNL     1     -13.930  14.448  72.267  1.00  0.00    -0.513 C  
HETATM   21  C   UNL     1     -13.010  15.076  73.329  1.00  0.00    -0.525 C  
HETATM   22  O   UNL     1     -12.455  16.324  72.893  1.00  0.00    -0.459 OA 
ENDBRANCH  16  17
ENDBRANCH  15  16
ENDBRANCH  14  15
ENDBRANCH  13  14
ENDBRANCH   4  13
BRANCH  10  23
HETATM   23  N   UNL     1      -9.023  11.295  64.803  1.00  0.00    -0.387 NA 
HETATM   24  H   UNL     1      -8.211  11.723  64.358  1.00  0.00     0.000 HD 
BRANCH  23  25
HETATM   25  C   UNL     1     -10.154  12.136  64.921  1.00  0.00    -0.254 A  
HETATM   26 CL   UNL     1     -11.136  15.313  67.173  1.00  0.00    -0.336 Cl 
HETATM   27  C   UNL     1     -12.430  13.729  65.398  1.00  0.00    -0.500 A  
HETATM   28  C   UNL     1     -11.235  14.008  66.052  1.00  0.00    -0.310 A  
HETATM   29  C   UNL     1     -12.503  12.674  64.503  1.00  0.00    -0.525 A  
HETATM   30  F   UNL     1     -13.532  14.459  65.629  1.00  0.00    -0.431 F  
HETATM   31  C   UNL     1     -11.374  11.880  64.275  1.00  0.00    -0.425 A  
HETATM   32  C   UNL     1     -10.105  13.217  65.818  1.00  0.00    -0.293 A  
ENDBRANCH  23  25
ENDBRANCH  10  23
ENDBRANCH   2   3
TORSDOF 8
ENDMDL
MODEL       68
REMARK 921   NORMALIZED FREE ENERGY PREDICTED BY IDOCK:   -5.84 KCAL/MOL
REMARK 922        TOTAL FREE ENERGY PREDICTED BY IDOCK:  -10.21 KCAL/MOL
REMARK 923 INTER-LIGAND FREE ENERGY PREDICTED BY IDOCK:   -8.91 KCAL/MOL
REMARK 924 INTRA-LIGAND FREE ENERGY PREDICTED BY IDOCK:   -1.30 KCAL/MOL
REMARK 927      BINDING AFFINITY PREDICTED BY RF-SCORE:    0.00 PKD
ROOT
HETATM    1  C   UNL     1      -8.971   6.196  65.989  1.00  0.00    -0.145 C  
HETATM    2  O   UNL     1      -8.460   7.309  66.720  1.00  0.00    -0.115 OA 
ENDROOT
BRANCH   2   3
HETATM    3  C   UNL     1      -8.979   8.531  66.378  1.00  0.00    -0.165 A  
HETATM    4  C   UNL     1      -9.670   9.258  67.348  1.00  0.00    -0.161 A  
HETATM    5  N   UNL     1      -9.268  10.689  63.476  1.00  0.00    -0.236 NA 
HETATM    6  C   UNL     1     -10.349  10.424  66.975  1.00  0.00    -0.295 A  
HETATM    7  C   UNL     1      -9.460  10.264  64.727  1.00  0.00    -0.283 A  
HETATM    8  C   UNL     1     -10.262  10.942  65.653  1.00  0.00    -0.323 A  
HETATM    9  C   UNL     1      -8.848   9.077  65.096  1.00  0.00    -0.224 A  
HETATM   10  C   UNL     1     -10.918  12.090  65.155  1.00  0.00    -0.310 A  
HETATM   11  N   UNL     1     -10.714  12.525  63.895  1.00  0.00    -0.410 NA 
HETATM   12  C   UNL     1      -9.895  11.808  63.125  1.00  0.00    -0.336 A  
BRANCH   4  13
HETATM   13  O   UNL     1      -9.817   8.911  68.666  1.00  0.00    -0.159 OA 
BRANCH  13  14
HETATM   14  C   UNL     1      -9.727   9.989  69.615  1.00  0.00    -0.229 C  
BRANCH  14  15
HETATM   15  C   UNL     1     -10.875   9.811  70.609  1.00  0.00    -0.396 C  
BRANCH  15  16
HETATM   16  C   UNL     1     -10.536   8.937  71.822  1.00  0.00    -0.360 C  
BRANCH  16  17
HETATM   17  N   UNL     1     -11.520   7.899  72.167  1.00  0.00    -0.301 NA 
HETATM   18  C   UNL     1     -10.912   6.860  73.036  1.00  0.00    -0.274 C  
HETATM   19  C   UNL     1      -9.956   5.913  72.290  1.00  0.00    -0.169 C  
HETATM   20  C   UNL     1     -12.115   7.210  71.000  1.00  0.00    -0.350 C  
HETATM   21  C   UNL     1     -11.187   6.202  70.297  1.00  0.00    -0.369 C  
HETATM   22  O   UNL     1     -10.630   5.252  71.214  1.00  0.00    -0.224 OA 
ENDBRANCH  16  17
ENDBRANCH  15  16
ENDBRANCH  14  15
ENDBRANCH  13  14
ENDBRANCH   4  13
BRANCH  10  23
HETATM   23  N   UNL     1     -11.878  12.760  65.957  1.00  0.00    -0.420 NA 
HETATM   24  H   UNL     1     -12.846  12.644  65.658  1.00  0.00     0.000 HD 
BRANCH  23  25
HETATM   25  C   UNL     1     -11.699  13.563  67.106  1.00  0.00    -0.379 A  
HETATM   26 CL   UNL     1     -12.470  13.164  71.027  1.00  0.00    -0.448 Cl 
HETATM   27  C   UNL     1     -11.594  15.164  69.424  1.00  0.00    -0.323 A  
HETATM   28  C   UNL     1     -12.004  13.837  69.511  1.00  0.00    -0.345 A  
HETATM   29  C   UNL     1     -11.228  15.700  68.201  1.00  0.00    -0.345 A  
HETATM   30  F   UNL     1     -11.562  15.950  70.511  1.00  0.00    -0.282 F  
HETATM   31  C   UNL     1     -11.289  14.905  67.051  1.00  0.00    -0.345 A  
HETATM   32  C   UNL     1     -12.058  13.042  68.361  1.00  0.00    -0.193 A  
ENDBRANCH  23  25
ENDBRANCH  10  23
ENDBRANCH   2   3
TORSDOF 8
ENDMDL
MODEL       69
REMARK 921   NORMALIZED FREE ENERGY PREDICTED BY IDOCK:   -5.84 KCAL/MOL
REMARK 922        TOTAL FREE ENERGY PREDICTED BY IDOCK:  -10.20 KCAL/MOL
REMARK 923 INTER-LIGAND FREE ENERGY PREDICTED BY IDOCK:   -8.35 KCAL/MOL
REMARK 924 INTRA-LIGAND FREE ENERGY PREDICTED BY IDOCK:   -1.86 KCAL/MOL
REMARK 927      BINDING AFFINITY PREDICTED BY RF-SCORE:    0.00 PKD
ROOT
HETATM    1  C   UNL     1      -9.992  18.496  66.342  1.00  0.00    -0.379 C  
HETATM    2  O   UNL     1      -9.231  17.508  65.650  1.00  0.00    -0.441 OA 
ENDROOT
BRANCH   2   3
HETATM    3  C   UNL     1      -9.720  16.230  65.715  1.00  0.00    -0.264 A  
HETATM    4  C   UNL     1      -8.934  15.243  66.312  1.00  0.00    -0.279 A  
HETATM    5  N   UNL     1     -12.631  14.336  64.666  1.00  0.00    -0.665 NA 
HETATM    6  C   UNL     1      -9.340  13.906  66.237  1.00  0.00    -0.180 A  
HETATM    7  C   UNL     1     -11.419  14.560  65.181  1.00  0.00    -0.368 A  
HETATM    8  C   UNL     1     -10.589  13.541  65.661  1.00  0.00    -0.284 A  
HETATM    9  C   UNL     1     -10.973  15.872  65.204  1.00  0.00    -0.389 A  
HETATM   10  C   UNL     1     -11.094  12.231  65.509  1.00  0.00    -0.307 A  
HETATM   11  N   UNL     1     -12.322  12.005  65.001  1.00  0.00    -0.367 NA 
HETATM   12  C   UNL     1     -13.029  13.068  64.614  1.00  0.00    -0.085 A  
BRANCH   4  13
HETATM   13  O   UNL     1      -7.728  15.437  66.934  1.00  0.00    -0.212 OA 
BRANCH  13  14
HETATM   14  C   UNL     1      -7.681  15.110  68.335  1.00  0.00    -0.118 C  
BRANCH  14  15
HETATM   15  C   UNL     1      -8.376  16.246  69.086  1.00  0.00    -0.211 C  
BRANCH  15  16
HETATM   16  C   UNL     1      -9.408  15.785  70.122  1.00  0.00     0.500 C  
BRANCH  16  17
HETATM   17  N   UNL     1     -10.748  16.382  70.010  1.00  0.00    -0.299 NA 
HETATM   18  C   UNL     1     -11.607  15.975  71.152  1.00  0.00    -0.443 C  
HETATM   19  C   UNL     1     -12.089  14.515  71.071  1.00  0.00    -0.344 C  
HETATM   20  C   UNL     1     -11.469  16.035  68.766  1.00  0.00    -0.375 C  
HETATM   21  C   UNL     1     -12.023  14.599  68.714  1.00  0.00    -0.266 C  
HETATM   22  O   UNL     1     -12.821  14.286  69.862  1.00  0.00    -0.180 OA 
ENDBRANCH  16  17
ENDBRANCH  15  16
ENDBRANCH  14  15
ENDBRANCH  13  14
ENDBRANCH   4  13
BRANCH  10  23
HETATM   23  N   UNL     1     -10.270  11.116  65.813  1.00  0.00    -0.249 NA 
HETATM   24  H   UNL     1      -9.482  10.976  65.181  1.00  0.00     0.000 HD 
BRANCH  23  25
HETATM   25  C   UNL     1     -10.376  10.169  66.858  1.00  0.00    -0.236 A  
HETATM   26 CL   UNL     1     -11.165  10.323  70.793  1.00  0.00    -0.411 Cl 
HETATM   27  C   UNL     1     -10.388   8.399  69.052  1.00  0.00    -0.218 A  
HETATM   28  C   UNL     1     -10.739   9.733  69.231  1.00  0.00    -0.224 A  
HETATM   29  C   UNL     1     -10.040   7.934  67.794  1.00  0.00    -0.246 A  
HETATM   30  F   UNL     1     -10.363   7.546  70.087  1.00  0.00    -0.201 F  
HETATM   31  C   UNL     1     -10.027   8.817  66.709  1.00  0.00    -0.338 A  
HETATM   32  C   UNL     1     -10.731  10.613  68.143  1.00  0.00    -0.267 A  
ENDBRANCH  23  25
ENDBRANCH  10  23
ENDBRANCH   2   3
TORSDOF 8
ENDMDL
MODEL       70
REMARK 921   NORMALIZED FREE ENERGY PREDICTED BY IDOCK:   -5.83 KCAL/MOL
REMARK 922        TOTAL FREE ENERGY PREDICTED BY IDOCK:  -10.19 KCAL/MOL
REMARK 923 INTER-LIGAND FREE ENERGY PREDICTED BY IDOCK:   -8.51 KCAL/MOL
REMARK 924 INTRA-LIGAND FREE ENERGY PREDICTED BY IDOCK:   -1.68 KCAL/MOL
REMARK 927      BINDING AFFINITY PREDICTED BY RF-SCORE:    0.00 PKD
ROOT
HETATM    1  C   UNL     1     -12.301  14.568  64.214  1.00  0.00    -0.369 C  
HETATM    2  O   UNL     1     -11.102  14.064  64.799  1.00  0.00    -0.354 OA 
ENDROOT
BRANCH   2   3
HETATM    3  C   UNL     1     -11.242  13.485  66.033  1.00  0.00    -0.295 A  
HETATM    4  C   UNL     1     -11.053  12.107  66.149  1.00  0.00    -0.312 A  
HETATM    5  N   UNL     1     -12.119  14.410  69.429  1.00  0.00    -0.311 NA 
HETATM    6  C   UNL     1     -11.356  11.474  67.360  1.00  0.00    -0.367 A  
HETATM    7  C   UNL     1     -11.810  13.612  68.404  1.00  0.00    -0.372 A  
HETATM    8  C   UNL     1     -11.748  12.218  68.508  1.00  0.00    -0.381 A  
HETATM    9  C   UNL     1     -11.570  14.216  67.180  1.00  0.00    -0.400 A  
HETATM   10  C   UNL     1     -12.099  11.692  69.770  1.00  0.00    -0.289 A  
HETATM   11  N   UNL     1     -12.399  12.497  70.809  1.00  0.00    -0.357 NA 
HETATM   12  C   UNL     1     -12.385  13.812  70.587  1.00  0.00    -0.375 A  
BRANCH   4  13
HETATM   13  O   UNL     1     -10.648  11.260  65.150  1.00  0.00    -0.290 OA 
BRANCH  13  14
HETATM   14  C   UNL     1     -10.066  10.014  65.577  1.00  0.00    -0.255 C  
BRANCH  14  15
HETATM   15  C   UNL     1      -8.604  10.024  65.132  1.00  0.00    -0.170 C  
BRANCH  15  16
HETATM   16  C   UNL     1      -7.590   9.970  66.281  1.00  0.00    -0.106 C  
BRANCH  16  17
HETATM   17  N   UNL     1      -7.910  10.780  67.467  1.00  0.00    -0.108 NA 
HETATM   18  C   UNL     1      -7.421  12.173  67.305  1.00  0.00    -0.152 C  
HETATM   19  C   UNL     1      -5.895  12.310  67.442  1.00  0.00    -0.143 C  
HETATM   20  C   UNL     1      -7.352  10.256  68.733  1.00  0.00    -0.086 C  
HETATM   21  C   UNL     1      -5.836  10.463  68.909  1.00  0.00    -0.040 C  
HETATM   22  O   UNL     1      -5.452  11.830  68.716  1.00  0.00    -0.049 OA 
ENDBRANCH  16  17
ENDBRANCH  15  16
ENDBRANCH  14  15
ENDBRANCH  13  14
ENDBRANCH   4  13
BRANCH  10  23
HETATM   23  N   UNL     1     -12.227  10.288  69.942  1.00  0.00    -0.497 NA 
HETATM   24  H   UNL     1     -12.717   9.804  69.189  1.00  0.00     0.000 HD 
BRANCH  23  25
HETATM   25  C   UNL     1     -11.780   9.460  70.996  1.00  0.00    -0.323 A  
HETATM   26 CL   UNL     1      -8.203   8.379  72.468  1.00  0.00    -0.218 Cl 
HETATM   27  C   UNL     1     -10.775   7.662  72.921  1.00  0.00    -0.371 A  
HETATM   28  C   UNL     1      -9.903   8.474  72.204  1.00  0.00    -0.318 A  
HETATM   29  C   UNL     1     -12.140   7.740  72.698  1.00  0.00    -0.191 A  
HETATM   30  F   UNL     1     -10.315   6.782  73.823  1.00  0.00    -0.256 F  
HETATM   31  C   UNL     1     -12.635   8.627  71.736  1.00  0.00    -0.396 A  
HETATM   32  C   UNL     1     -10.400   9.366  71.247  1.00  0.00    -0.363 A  
ENDBRANCH  23  25
ENDBRANCH  10  23
ENDBRANCH   2   3
TORSDOF 8
ENDMDL
MODEL       71
REMARK 921   NORMALIZED FREE ENERGY PREDICTED BY IDOCK:   -5.83 KCAL/MOL
REMARK 922        TOTAL FREE ENERGY PREDICTED BY IDOCK:  -10.19 KCAL/MOL
REMARK 923 INTER-LIGAND FREE ENERGY PREDICTED BY IDOCK:   -8.79 KCAL/MOL
REMARK 924 INTRA-LIGAND FREE ENERGY PREDICTED BY IDOCK:   -1.41 KCAL/MOL
REMARK 927      BINDING AFFINITY PREDICTED BY RF-SCORE:    0.00 PKD
ROOT
HETATM    1  C   UNL     1     -13.991  15.061  71.330  1.00  0.00    -0.479 C  
HETATM    2  O   UNL     1     -12.919  15.066  70.389  1.00  0.00    -0.319 OA 
ENDROOT
BRANCH   2   3
HETATM    3  C   UNL     1     -12.419  13.835  70.053  1.00  0.00    -0.240 A  
HETATM    4  C   UNL     1     -11.914  13.648  68.766  1.00  0.00    -0.359 A  
HETATM    5  N   UNL     1     -12.008  10.537  71.506  1.00  0.00    -0.242 NA 
HETATM    6  C   UNL     1     -11.557  12.360  68.351  1.00  0.00    -0.373 A  
HETATM    7  C   UNL     1     -11.984  11.489  70.571  1.00  0.00    -0.344 A  
HETATM    8  C   UNL     1     -11.594  11.255  69.247  1.00  0.00    -0.390 A  
HETATM    9  C   UNL     1     -12.397  12.758  70.946  1.00  0.00    -0.356 A  
HETATM   10  C   UNL     1     -11.281   9.913  68.940  1.00  0.00    -0.079 A  
HETATM   11  N   UNL     1     -11.293   8.953  69.887  1.00  0.00    -0.068 NA 
HETATM   12  C   UNL     1     -11.647   9.316  71.120  1.00  0.00    -0.327 A  
BRANCH   4  13
HETATM   13  O   UNL     1     -11.784  14.613  67.801  1.00  0.00    -0.347 OA 
BRANCH  13  14
HETATM   14  C   UNL     1     -12.050  14.193  66.450  1.00  0.00    -0.451 C  
BRANCH  14  15
HETATM   15  C   UNL     1     -11.134  15.007  65.536  1.00  0.00    -0.358 C  
BRANCH  15  16
HETATM   16  C   UNL     1      -9.908  15.606  66.236  1.00  0.00    -0.295 C  
BRANCH  16  17
HETATM   17  N   UNL     1      -9.508  16.953  65.801  1.00  0.00    -0.531 NA 
HETATM   18  C   UNL     1      -8.186  17.322  66.367  1.00  0.00    -0.282 C  
HETATM   19  C   UNL     1      -8.230  17.660  67.868  1.00  0.00    -0.234 C  
HETATM   20  C   UNL     1     -10.463  18.022  66.168  1.00  0.00    -0.331 C  
HETATM   21  C   UNL     1     -10.454  18.419  67.655  1.00  0.00    -0.419 C  
HETATM   22  O   UNL     1      -9.137  18.738  68.121  1.00  0.00    -0.290 OA 
ENDBRANCH  16  17
ENDBRANCH  15  16
ENDBRANCH  14  15
ENDBRANCH  13  14
ENDBRANCH   4  13
BRANCH  10  23
HETATM   23  N   UNL     1     -11.031   9.534  67.595  1.00  0.00    -0.471 NA 
HETATM   24  H   UNL     1     -11.850   9.219  67.076  1.00  0.00     0.000 HD 
BRANCH  23  25
HETATM   25  C   UNL     1      -9.820   9.529  66.866  1.00  0.00    -0.204 A  
HETATM   26 CL   UNL     1      -5.937  10.034  67.759  1.00  0.00    -0.049 Cl 
HETATM   27  C   UNL     1      -7.376   9.761  65.481  1.00  0.00    -0.112 A  
HETATM   28  C   UNL     1      -7.396   9.811  66.870  1.00  0.00    -0.091 A  
HETATM   29  C   UNL     1      -8.554   9.588  64.773  1.00  0.00    -0.196 A  
HETATM   30  F   UNL     1      -6.226   9.895  64.801  1.00  0.00    -0.079 F  
HETATM   31  C   UNL     1      -9.766   9.482  65.463  1.00  0.00    -0.344 A  
HETATM   32  C   UNL     1      -8.609   9.698  67.559  1.00  0.00    -0.126 A  
ENDBRANCH  23  25
ENDBRANCH  10  23
ENDBRANCH   2   3
TORSDOF 8
ENDMDL
MODEL       72
REMARK 921   NORMALIZED FREE ENERGY PREDICTED BY IDOCK:   -5.82 KCAL/MOL
REMARK 922        TOTAL FREE ENERGY PREDICTED BY IDOCK:  -10.17 KCAL/MOL
REMARK 923 INTER-LIGAND FREE ENERGY PREDICTED BY IDOCK:   -8.90 KCAL/MOL
REMARK 924 INTRA-LIGAND FREE ENERGY PREDICTED BY IDOCK:   -1.28 KCAL/MOL
REMARK 927      BINDING AFFINITY PREDICTED BY RF-SCORE:    0.00 PKD
ROOT
HETATM    1  C   UNL     1     -10.697  19.134  65.911  1.00  0.00    -0.351 C  
HETATM    2  O   UNL     1      -9.912  17.959  65.717  1.00  0.00    -0.551 OA 
ENDROOT
BRANCH   2   3
HETATM    3  C   UNL     1     -10.491  16.785  66.122  1.00  0.00    -0.277 A  
HETATM    4  C   UNL     1     -10.820  16.632  67.470  1.00  0.00    -0.221 A  
HETATM    5  N   UNL     1     -11.474  13.577  64.742  1.00  0.00    -0.333 NA 
HETATM    6  C   UNL     1     -11.254  15.384  67.931  1.00  0.00    -0.329 A  
HETATM    7  C   UNL     1     -11.255  14.510  65.672  1.00  0.00    -0.335 A  
HETATM    8  C   UNL     1     -11.471  14.297  67.038  1.00  0.00    -0.377 A  
HETATM    9  C   UNL     1     -10.764  15.732  65.241  1.00  0.00    -0.446 A  
HETATM   10  C   UNL     1     -11.883  12.993  67.387  1.00  0.00    -0.357 A  
HETATM   11  N   UNL     1     -12.116  12.054  66.447  1.00  0.00    -0.537 NA 
HETATM   12  C   UNL     1     -11.908  12.397  65.176  1.00  0.00    -0.388 A  
BRANCH   4  13
HETATM   13  O   UNL     1     -10.700  17.588  68.444  1.00  0.00    -0.356 OA 
BRANCH  13  14
HETATM   14  C   UNL     1      -9.662  17.370  69.417  1.00  0.00     0.104 C  
BRANCH  14  15
HETATM   15  C   UNL     1      -8.326  17.501  68.686  1.00  0.00    -0.258 C  
BRANCH  15  16
HETATM   16  C   UNL     1      -7.242  16.526  69.164  1.00  0.00    -0.226 C  
BRANCH  16  17
HETATM   17  N   UNL     1      -6.639  15.672  68.130  1.00  0.00    -0.118 NA 
HETATM   18  C   UNL     1      -7.666  14.817  67.482  1.00  0.00    -0.194 C  
HETATM   19  C   UNL     1      -8.151  13.656  68.368  1.00  0.00    -0.146 C  
HETATM   20  C   UNL     1      -5.566  14.780  68.624  1.00  0.00    -0.093 C  
HETATM   21  C   UNL     1      -6.052  13.571  69.445  1.00  0.00    -0.103 C  
HETATM   22  O   UNL     1      -7.056  12.817  68.753  1.00  0.00    -0.094 OA 
ENDBRANCH  16  17
ENDBRANCH  15  16
ENDBRANCH  14  15
ENDBRANCH  13  14
ENDBRANCH   4  13
BRANCH  10  23
HETATM   23  N   UNL     1     -11.975  12.621  68.754  1.00  0.00    -0.289 NA 
HETATM   24  H   UNL     1     -12.393  13.322  69.364  1.00  0.00     0.000 HD 
BRANCH  23  25
HETATM   25  C   UNL     1     -11.575  11.427  69.397  1.00  0.00    -0.323 A  
HETATM   26 CL   UNL     1     -12.981   9.201  72.430  1.00  0.00    -0.478 Cl 
HETATM   27  C   UNL     1     -10.751   9.185  70.894  1.00  0.00    -0.275 A  
HETATM   28  C   UNL     1     -11.971   9.794  71.167  1.00  0.00    -0.376 A  
HETATM   29  C   UNL     1      -9.941   9.672  69.881  1.00  0.00    -0.273 A  
HETATM   30  F   UNL     1     -10.329   8.133  71.611  1.00  0.00    -0.227 F  
HETATM   31  C   UNL     1     -10.350  10.790  69.146  1.00  0.00    -0.238 A  
HETATM   32  C   UNL     1     -12.381  10.909  70.426  1.00  0.00    -0.436 A  
ENDBRANCH  23  25
ENDBRANCH  10  23
ENDBRANCH   2   3
TORSDOF 8
ENDMDL
MODEL       73
REMARK 921   NORMALIZED FREE ENERGY PREDICTED BY IDOCK:   -5.82 KCAL/MOL
REMARK 922        TOTAL FREE ENERGY PREDICTED BY IDOCK:  -10.17 KCAL/MOL
REMARK 923 INTER-LIGAND FREE ENERGY PREDICTED BY IDOCK:   -8.77 KCAL/MOL
REMARK 924 INTRA-LIGAND FREE ENERGY PREDICTED BY IDOCK:   -1.40 KCAL/MOL
REMARK 927      BINDING AFFINITY PREDICTED BY RF-SCORE:    0.00 PKD
ROOT
HETATM    1  C   UNL     1     -13.040   7.317  71.568  1.00  0.00    -0.384 C  
HETATM    2  O   UNL     1     -11.898   8.156  71.734  1.00  0.00    -0.272 OA 
ENDROOT
BRANCH   2   3
HETATM    3  C   UNL     1     -12.030   9.437  71.263  1.00  0.00    -0.353 A  
HETATM    4  C   UNL     1     -11.381   9.782  70.076  1.00  0.00    -0.220 A  
HETATM    5  N   UNL     1     -13.582  12.576  72.209  1.00  0.00    -0.476 NA 
HETATM    6  C   UNL     1     -11.364  11.121  69.670  1.00  0.00    -0.366 A  
HETATM    7  C   UNL     1     -12.832  11.730  71.499  1.00  0.00    -0.345 A  
HETATM    8  C   UNL     1     -12.084  12.121  70.382  1.00  0.00    -0.395 A  
HETATM    9  C   UNL     1     -12.785  10.413  71.924  1.00  0.00    -0.459 A  
HETATM   10  C   UNL     1     -12.123  13.501  70.083  1.00  0.00    -0.354 A  
HETATM   11  N   UNL     1     -12.891  14.353  70.793  1.00  0.00    -0.351 NA 
HETATM   12  C   UNL     1     -13.585  13.846  71.812  1.00  0.00    -0.385 A  
BRANCH   4  13
HETATM   13  O   UNL     1     -10.676   8.932  69.264  1.00  0.00    -0.224 OA 
BRANCH  13  14
HETATM   14  C   UNL     1     -10.840   9.133  67.849  1.00  0.00    -0.083 C  
BRANCH  14  15
HETATM   15  C   UNL     1      -9.481   8.874  67.197  1.00  0.00    -0.202 C  
BRANCH  15  16
HETATM   16  C   UNL     1      -8.384   9.866  67.599  1.00  0.00    -0.114 C  
BRANCH  16  17
HETATM   17  N   UNL     1      -8.142  10.977  66.666  1.00  0.00    -0.150 NA 
HETATM   18  C   UNL     1      -6.738  10.967  66.182  1.00  0.00    -0.068 C  
HETATM   19  C   UNL     1      -5.719  11.436  67.235  1.00  0.00    -0.079 C  
HETATM   20  C   UNL     1      -8.408  12.319  67.232  1.00  0.00    -0.182 C  
HETATM   21  C   UNL     1      -7.348  12.826  68.227  1.00  0.00    -0.117 C  
HETATM   22  O   UNL     1      -6.023  12.761  67.685  1.00  0.00    -0.123 OA 
ENDBRANCH  16  17
ENDBRANCH  15  16
ENDBRANCH  14  15
ENDBRANCH  13  14
ENDBRANCH   4  13
BRANCH  10  23
HETATM   23  N   UNL     1     -11.278  14.031  69.074  1.00  0.00    -0.265 NA 
HETATM   24  H   UNL     1     -10.420  14.465  69.414  1.00  0.00     0.000 HD 
BRANCH  23  25
HETATM   25  C   UNL     1     -11.443  14.050  67.670  1.00  0.00    -0.334 A  
HETATM   26 CL   UNL     1     -10.764  16.713  64.742  1.00  0.00    -0.156 Cl 
HETATM   27  C   UNL     1     -11.939  14.278  64.904  1.00  0.00    -0.425 A  
HETATM   28  C   UNL     1     -11.274  15.297  65.579  1.00  0.00    -0.277 A  
HETATM   29  C   UNL     1     -12.351  13.145  65.586  1.00  0.00    -0.519 A  
HETATM   30  F   UNL     1     -12.207  14.379  63.593  1.00  0.00    -0.442 F  
HETATM   31  C   UNL     1     -12.111  13.039  66.960  1.00  0.00    -0.330 A  
HETATM   32  C   UNL     1     -11.029  15.185  66.952  1.00  0.00    -0.323 A  
ENDBRANCH  23  25
ENDBRANCH  10  23
ENDBRANCH   2   3
TORSDOF 8
ENDMDL
MODEL       74
REMARK 921   NORMALIZED FREE ENERGY PREDICTED BY IDOCK:   -5.81 KCAL/MOL
REMARK 922        TOTAL FREE ENERGY PREDICTED BY IDOCK:  -10.16 KCAL/MOL
REMARK 923 INTER-LIGAND FREE ENERGY PREDICTED BY IDOCK:   -8.58 KCAL/MOL
REMARK 924 INTRA-LIGAND FREE ENERGY PREDICTED BY IDOCK:   -1.58 KCAL/MOL
REMARK 927      BINDING AFFINITY PREDICTED BY RF-SCORE:    0.00 PKD
ROOT
HETATM    1  C   UNL     1     -12.131  12.873  63.442  1.00  0.00    -0.530 C  
HETATM    2  O   UNL     1     -10.985  13.136  64.250  1.00  0.00    -0.368 OA 
ENDROOT
BRANCH   2   3
HETATM    3  C   UNL     1     -11.097  12.785  65.570  1.00  0.00    -0.285 A  
HETATM    4  C   UNL     1     -10.837  11.463  65.935  1.00  0.00    -0.234 A  
HETATM    5  N   UNL     1     -12.027  14.269  68.747  1.00  0.00    -0.327 NA 
HETATM    6  C   UNL     1     -11.108  11.048  67.243  1.00  0.00    -0.359 A  
HETATM    7  C   UNL     1     -11.676  13.314  67.882  1.00  0.00    -0.357 A  
HETATM    8  C   UNL     1     -11.542  11.968  68.239  1.00  0.00    -0.394 A  
HETATM    9  C   UNL     1     -11.465  13.696  66.567  1.00  0.00    -0.357 A  
HETATM   10  C   UNL     1     -11.867  11.664  69.578  1.00  0.00    -0.348 A  
HETATM   11  N   UNL     1     -12.211  12.629  70.455  1.00  0.00    -0.353 NA 
HETATM   12  C   UNL     1     -12.265  13.880  69.997  1.00  0.00    -0.344 A  
BRANCH   4  13
HETATM   13  O   UNL     1     -10.386  10.470  65.105  1.00  0.00    -0.304 OA 
BRANCH  13  14
HETATM   14  C   UNL     1      -8.957  10.319  65.020  1.00  0.00    -0.196 C  
BRANCH  14  15
HETATM   15  C   UNL     1      -8.657   8.822  65.091  1.00  0.00    -0.209 C  
BRANCH  15  16
HETATM   16  C   UNL     1      -9.187   8.126  66.350  1.00  0.00    -0.199 C  
BRANCH  16  17
HETATM   17  N   UNL     1      -9.955   6.890  66.133  1.00  0.00     0.120 NA 
HETATM   18  C   UNL     1     -11.003   6.727  67.172  1.00  0.00    -0.388 C  
HETATM   19  C   UNL     1     -10.449   6.316  68.548  1.00  0.00    -0.229 C  
HETATM   20  C   UNL     1      -9.137   5.656  66.128  1.00  0.00    -0.152 C  
HETATM   21  C   UNL     1      -8.647   5.197  67.514  1.00  0.00    -0.104 C  
HETATM   22  O   UNL     1      -9.720   5.087  68.457  1.00  0.00    -0.138 OA 
ENDBRANCH  16  17
ENDBRANCH  15  16
ENDBRANCH  14  15
ENDBRANCH  13  14
ENDBRANCH   4  13
BRANCH  10  23
HETATM   23  N   UNL     1     -11.923  10.311  70.005  1.00  0.00    -0.426 NA 
HETATM   24  H   UNL     1     -12.824   9.853  69.872  1.00  0.00     0.000 HD 
BRANCH  23  25
HETATM   25  C   UNL     1     -10.919   9.502  70.585  1.00  0.00    -0.306 A  
HETATM   26 CL   UNL     1     -10.767   6.853  73.600  1.00  0.00    -0.360 Cl 
HETATM   27  C   UNL     1      -8.955   8.019  71.959  1.00  0.00    -0.156 A  
HETATM   28  C   UNL     1     -10.294   7.895  72.312  1.00  0.00    -0.253 A  
HETATM   29  C   UNL     1      -8.582   8.864  70.927  1.00  0.00    -0.242 A  
HETATM   30  F   UNL     1      -8.001   7.342  72.617  1.00  0.00    -0.094 F  
HETATM   31  C   UNL     1      -9.559   9.605  70.253  1.00  0.00    -0.307 A  
HETATM   32  C   UNL     1     -11.270   8.632  71.632  1.00  0.00    -0.379 A  
ENDBRANCH  23  25
ENDBRANCH  10  23
ENDBRANCH   2   3
TORSDOF 8
ENDMDL
MODEL       75
REMARK 921   NORMALIZED FREE ENERGY PREDICTED BY IDOCK:   -5.81 KCAL/MOL
REMARK 922        TOTAL FREE ENERGY PREDICTED BY IDOCK:  -10.16 KCAL/MOL
REMARK 923 INTER-LIGAND FREE ENERGY PREDICTED BY IDOCK:   -8.93 KCAL/MOL
REMARK 924 INTRA-LIGAND FREE ENERGY PREDICTED BY IDOCK:   -1.23 KCAL/MOL
REMARK 927      BINDING AFFINITY PREDICTED BY RF-SCORE:    0.00 PKD
ROOT
HETATM    1  C   UNL     1      -8.747   6.311  65.595  1.00  0.00    -0.114 C  
HETATM    2  O   UNL     1      -8.388   7.412  66.428  1.00  0.00    -0.116 OA 
ENDROOT
BRANCH   2   3
HETATM    3  C   UNL     1      -9.004   8.601  66.136  1.00  0.00    -0.180 A  
HETATM    4  C   UNL     1      -9.640   9.294  67.168  1.00  0.00    -0.159 A  
HETATM    5  N   UNL     1      -9.688  10.723  63.275  1.00  0.00    -0.328 NA 
HETATM    6  C   UNL     1     -10.415  10.418  66.861  1.00  0.00    -0.300 A  
HETATM    7  C   UNL     1      -9.736  10.295  64.539  1.00  0.00    -0.329 A  
HETATM    8  C   UNL     1     -10.483  10.933  65.536  1.00  0.00    -0.286 A  
HETATM    9  C   UNL     1      -9.027   9.147  64.847  1.00  0.00    -0.201 A  
HETATM   10  C   UNL     1     -11.246  12.040  65.103  1.00  0.00    -0.315 A  
HETATM   11  N   UNL     1     -11.188  12.479  63.830  1.00  0.00    -0.427 NA 
HETATM   12  C   UNL     1     -10.407  11.804  62.985  1.00  0.00    -0.187 A  
BRANCH   4  13
HETATM   13  O   UNL     1      -9.641   8.947  68.494  1.00  0.00    -0.153 OA 
BRANCH  13  14
HETATM   14  C   UNL     1      -9.633  10.039  69.431  1.00  0.00    -0.222 C  
BRANCH  14  15
HETATM   15  C   UNL     1     -10.869   9.882  70.317  1.00  0.00    -0.367 C  
BRANCH  15  16
HETATM   16  C   UNL     1     -10.602   9.201  71.665  1.00  0.00    -0.357 C  
BRANCH  16  17
HETATM   17  N   UNL     1     -11.610   8.225  72.108  1.00  0.00    -0.337 NA 
HETATM   18  C   UNL     1     -11.047   7.311  73.134  1.00  0.00    -0.292 C  
HETATM   19  C   UNL     1     -10.072   6.267  72.562  1.00  0.00    -0.177 C  
HETATM   20  C   UNL     1     -12.166   7.387  71.022  1.00  0.00    -0.282 C  
HETATM   21  C   UNL     1     -11.221   6.288  70.501  1.00  0.00    -0.354 C  
HETATM   22  O   UNL     1     -10.710   5.468  71.560  1.00  0.00    -0.243 OA 
ENDBRANCH  16  17
ENDBRANCH  15  16
ENDBRANCH  14  15
ENDBRANCH  13  14
ENDBRANCH   4  13
BRANCH  10  23
HETATM   23  N   UNL     1     -12.161  12.660  65.993  1.00  0.00    -0.597 NA 
HETATM   24  H   UNL     1     -13.145  12.478  65.796  1.00  0.00     0.000 HD 
BRANCH  23  25
HETATM   25  C   UNL     1     -11.918  13.492  67.110  1.00  0.00    -0.381 A  
HETATM   26 CL   UNL     1     -10.799  17.312  67.646  1.00  0.00    -0.297 Cl 
HETATM   27  C   UNL     1     -11.192  15.170  69.256  1.00  0.00    -0.278 A  
HETATM   28  C   UNL     1     -11.222  15.671  67.959  1.00  0.00    -0.339 A  
HETATM   29  C   UNL     1     -11.527  13.847  69.498  1.00  0.00    -0.332 A  
HETATM   30  F   UNL     1     -10.825  15.944  70.288  1.00  0.00    -0.268 F  
HETATM   31  C   UNL     1     -11.879  13.016  68.430  1.00  0.00    -0.370 A  
HETATM   32  C   UNL     1     -11.581  14.839  66.892  1.00  0.00    -0.337 A  
ENDBRANCH  23  25
ENDBRANCH  10  23
ENDBRANCH   2   3
TORSDOF 8
ENDMDL
MODEL       76
REMARK 921   NORMALIZED FREE ENERGY PREDICTED BY IDOCK:   -5.79 KCAL/MOL
REMARK 922        TOTAL FREE ENERGY PREDICTED BY IDOCK:  -10.13 KCAL/MOL
REMARK 923 INTER-LIGAND FREE ENERGY PREDICTED BY IDOCK:   -8.21 KCAL/MOL
REMARK 924 INTRA-LIGAND FREE ENERGY PREDICTED BY IDOCK:   -1.93 KCAL/MOL
REMARK 927      BINDING AFFINITY PREDICTED BY RF-SCORE:    0.00 PKD
ROOT
HETATM    1  C   UNL     1     -12.073  14.161  65.742  1.00  0.00    -0.420 C  
HETATM    2  O   UNL     1     -10.970  13.794  66.568  1.00  0.00    -0.296 OA 
ENDROOT
BRANCH   2   3
HETATM    3  C   UNL     1     -11.282  13.055  67.679  1.00  0.00    -0.280 A  
HETATM    4  C   UNL     1     -11.058  11.677  67.650  1.00  0.00    -0.255 A  
HETATM    5  N   UNL     1     -12.725  13.508  70.976  1.00  0.00    -0.340 NA 
HETATM    6  C   UNL     1     -11.525  10.885  68.705  1.00  0.00    -0.380 A  
HETATM    7  C   UNL     1     -12.225  12.859  69.922  1.00  0.00    -0.188 A  
HETATM    8  C   UNL     1     -12.125  11.464  69.858  1.00  0.00    -0.404 A  
HETATM    9  C   UNL     1     -11.818  13.623  68.841  1.00  0.00    -0.402 A  
HETATM   10  C   UNL     1     -12.652  10.770  70.969  1.00  0.00    -0.420 A  
HETATM   11  N   UNL     1     -13.145  11.426  72.039  1.00  0.00    -0.441 NA 
HETATM   12  C   UNL     1     -13.149  12.758  71.990  1.00  0.00    -0.369 A  
BRANCH   4  13
HETATM   13  O   UNL     1     -10.466  10.977  66.631  1.00  0.00    -0.238 OA 
BRANCH  13  14
HETATM   14  C   UNL     1     -10.536   9.543  66.729  1.00  0.00    -0.193 C  
BRANCH  14  15
HETATM   15  C   UNL     1      -9.100   9.018  66.687  1.00  0.00    -0.196 C  
BRANCH  15  16
HETATM   16  C   UNL     1      -8.244   9.410  67.897  1.00  0.00    -0.115 C  
BRANCH  16  17
HETATM   17  N   UNL     1      -8.498   8.664  69.139  1.00  0.00    -0.123 NA 
HETATM   18  C   UNL     1      -8.356   9.545  70.326  1.00  0.00    -0.195 C  
HETATM   19  C   UNL     1      -6.895   9.896  70.661  1.00  0.00    -0.080 C  
HETATM   20  C   UNL     1      -7.611   7.497  69.342  1.00  0.00    -0.092 C  
HETATM   21  C   UNL     1      -6.169   7.841  69.756  1.00  0.00    -0.030 C  
HETATM   22  O   UNL     1      -6.127   8.711  70.895  1.00  0.00    -0.033 OA 
ENDBRANCH  16  17
ENDBRANCH  15  16
ENDBRANCH  14  15
ENDBRANCH  13  14
ENDBRANCH   4  13
BRANCH  10  23
HETATM   23  N   UNL     1     -12.749   9.354  70.938  1.00  0.00    -0.510 NA 
HETATM   24  H   UNL     1     -13.637   8.990  70.592  1.00  0.00     0.000 HD 
BRANCH  23  25
HETATM   25  C   UNL     1     -11.804   8.372  71.314  1.00  0.00    -0.289 A  
HETATM   26 CL   UNL     1     -10.392   4.985  69.681  1.00  0.00    -0.316 Cl 
HETATM   27  C   UNL     1     -10.112   6.245  72.062  1.00  0.00    -0.183 A  
HETATM   28  C   UNL     1     -10.688   6.265  70.796  1.00  0.00    -0.256 A  
HETATM   29  C   UNL     1     -10.360   7.274  72.956  1.00  0.00    -0.334 A  
HETATM   30  F   UNL     1      -9.324   5.230  72.447  1.00  0.00    -0.141 F  
HETATM   31  C   UNL     1     -11.207   8.324  72.584  1.00  0.00    -0.410 A  
HETATM   32  C   UNL     1     -11.530   7.319  70.424  1.00  0.00    -0.279 A  
ENDBRANCH  23  25
ENDBRANCH  10  23
ENDBRANCH   2   3
TORSDOF 8
ENDMDL
MODEL       77
REMARK 921   NORMALIZED FREE ENERGY PREDICTED BY IDOCK:   -5.74 KCAL/MOL
REMARK 922        TOTAL FREE ENERGY PREDICTED BY IDOCK:  -10.06 KCAL/MOL
REMARK 923 INTER-LIGAND FREE ENERGY PREDICTED BY IDOCK:   -8.34 KCAL/MOL
REMARK 924 INTRA-LIGAND FREE ENERGY PREDICTED BY IDOCK:   -1.72 KCAL/MOL
REMARK 927      BINDING AFFINITY PREDICTED BY RF-SCORE:    0.00 PKD
ROOT
HETATM    1  C   UNL     1      -9.717   5.385  73.552  1.00  0.00    -0.148 C  
HETATM    2  O   UNL     1      -8.947   6.516  73.148  1.00  0.00    -0.129 OA 
ENDROOT
BRANCH   2   3
HETATM    3  C   UNL     1      -9.621   7.464  72.424  1.00  0.00    -0.153 A  
HETATM    4  C   UNL     1      -8.944   8.131  71.401  1.00  0.00    -0.150 A  
HETATM    5  N   UNL     1     -12.882   9.051  72.322  1.00  0.00    -0.403 NA 
HETATM    6  C   UNL     1      -9.560   9.215  70.766  1.00  0.00    -0.338 A  
HETATM    7  C   UNL     1     -11.605   8.823  72.003  1.00  0.00    -0.366 A  
HETATM    8  C   UNL     1     -10.901   9.585  71.064  1.00  0.00    -0.423 A  
HETATM    9  C   UNL     1     -10.959   7.795  72.669  1.00  0.00    -0.422 A  
HETATM   10  C   UNL     1     -11.617  10.668  70.508  1.00  0.00    -0.350 A  
HETATM   11  N   UNL     1     -12.910  10.891  70.820  1.00  0.00    -0.318 NA 
HETATM   12  C   UNL     1     -13.476  10.068  71.703  1.00  0.00    -0.309 A  
BRANCH   4  13
HETATM   13  O   UNL     1      -7.667   7.872  70.975  1.00  0.00    -0.079 OA 
BRANCH  13  14
HETATM   14  C   UNL     1      -7.234   8.594  69.808  1.00  0.00    -0.051 C  
BRANCH  14  15
HETATM   15  C   UNL     1      -6.847   7.556  68.754  1.00  0.00    -0.065 C  
BRANCH  15  16
HETATM   16  C   UNL     1      -7.999   7.118  67.841  1.00  0.00    -0.115 C  
BRANCH  16  17
HETATM   17  N   UNL     1      -8.848   6.029  68.348  1.00  0.00    -0.113 NA 
HETATM   18  C   UNL     1      -8.720   4.818  67.499  1.00  0.00    -0.103 C  
HETATM   19  C   UNL     1      -9.432   4.939  66.140  1.00  0.00    -0.161 C  
HETATM   20  C   UNL     1     -10.287   6.365  68.429  1.00  0.00    -0.194 C  
HETATM   21  C   UNL     1     -11.022   6.410  67.077  1.00  0.00    -0.389 C  
HETATM   22  O   UNL     1     -10.826   5.211  66.317  1.00  0.00    -0.296 OA 
ENDBRANCH  16  17
ENDBRANCH  15  16
ENDBRANCH  14  15
ENDBRANCH  13  14
ENDBRANCH   4  13
BRANCH  10  23
HETATM   23  N   UNL     1     -10.952  11.600  69.669  1.00  0.00    -0.466 NA 
HETATM   24  H   UNL     1     -10.384  12.292  70.157  1.00  0.00     0.000 HD 
BRANCH  23  25
HETATM   25  C   UNL     1     -10.957  11.716  68.260  1.00  0.00    -0.226 A  
HETATM   26 CL   UNL     1     -12.868  14.021  65.583  1.00  0.00    -0.528 Cl 
HETATM   27  C   UNL     1     -11.214  11.880  65.457  1.00  0.00    -0.299 A  
HETATM   28  C   UNL     1     -11.874  12.794  66.272  1.00  0.00    -0.423 A  
HETATM   29  C   UNL     1     -10.422  10.892  66.019  1.00  0.00    -0.287 A  
HETATM   30  F   UNL     1     -11.343  11.925  64.123  1.00  0.00    -0.362 F  
HETATM   31  C   UNL     1     -10.304  10.809  67.411  1.00  0.00    -0.251 A  
HETATM   32  C   UNL     1     -11.749  12.713  67.663  1.00  0.00    -0.420 A  
ENDBRANCH  23  25
ENDBRANCH  10  23
ENDBRANCH   2   3
TORSDOF 8
ENDMDL
MODEL       78
REMARK 921   NORMALIZED FREE ENERGY PREDICTED BY IDOCK:   -5.73 KCAL/MOL
REMARK 922        TOTAL FREE ENERGY PREDICTED BY IDOCK:  -10.04 KCAL/MOL
REMARK 923 INTER-LIGAND FREE ENERGY PREDICTED BY IDOCK:   -8.42 KCAL/MOL
REMARK 924 INTRA-LIGAND FREE ENERGY PREDICTED BY IDOCK:   -1.62 KCAL/MOL
REMARK 927      BINDING AFFINITY PREDICTED BY RF-SCORE:    0.00 PKD
ROOT
HETATM    1  C   UNL     1     -10.279  18.921  66.379  1.00  0.00    -0.426 C  
HETATM    2  O   UNL     1      -9.564  17.735  66.039  1.00  0.00    -0.499 OA 
ENDROOT
BRANCH   2   3
HETATM    3  C   UNL     1     -10.286  16.572  66.089  1.00  0.00    -0.334 A  
HETATM    4  C   UNL     1     -10.601  16.034  67.338  1.00  0.00    -0.316 A  
HETATM    5  N   UNL     1     -11.727  14.122  63.835  1.00  0.00    -0.191 NA 
HETATM    6  C   UNL     1     -11.188  14.766  67.409  1.00  0.00    -0.346 A  
HETATM    7  C   UNL     1     -11.361  14.672  64.995  1.00  0.00    -0.390 A  
HETATM    8  C   UNL     1     -11.571  14.058  66.235  1.00  0.00    -0.379 A  
HETATM    9  C   UNL     1     -10.720  15.899  64.941  1.00  0.00    -0.365 A  
HETATM   10  C   UNL     1     -12.146  12.771  66.180  1.00  0.00    -0.364 A  
HETATM   11  N   UNL     1     -12.527  12.219  65.010  1.00  0.00    -0.537 NA 
HETATM   12  C   UNL     1     -12.305  12.926  63.901  1.00  0.00    -0.396 A  
BRANCH   4  13
HETATM   13  O   UNL     1     -10.329  16.604  68.555  1.00  0.00    -0.266 OA 
BRANCH  13  14
HETATM   14  C   UNL     1      -9.487  15.838  69.436  1.00  0.00    -0.275 C  
BRANCH  14  15
HETATM   15  C   UNL     1      -8.048  16.019  68.953  1.00  0.00    -0.218 C  
BRANCH  15  16
HETATM   16  C   UNL     1      -7.018  15.151  69.686  1.00  0.00    -0.192 C  
BRANCH  16  17
HETATM   17  N   UNL     1      -6.046  14.444  68.837  1.00  0.00    -0.084 NA 
HETATM   18  C   UNL     1      -6.732  13.713  67.742  1.00  0.00    -0.170 C  
HETATM   19  C   UNL     1      -7.466  12.445  68.212  1.00  0.00    -0.124 C  
HETATM   20  C   UNL     1      -5.199  13.469  69.560  1.00  0.00    -0.084 C  
HETATM   21  C   UNL     1      -5.909  12.164  69.963  1.00  0.00    -0.152 C  
HETATM   22  O   UNL     1      -6.561  11.538  68.850  1.00  0.00    -0.061 OA 
ENDBRANCH  16  17
ENDBRANCH  15  16
ENDBRANCH  14  15
ENDBRANCH  13  14
ENDBRANCH   4  13
BRANCH  10  23
HETATM   23  N   UNL     1     -12.255  11.992  67.363  1.00  0.00    -0.379 NA 
HETATM   24  H   UNL     1     -13.140  12.086  67.861  1.00  0.00     0.000 HD 
BRANCH  23  25
HETATM   25  C   UNL     1     -11.324  11.108  67.954  1.00  0.00    -0.309 A  
HETATM   26 CL   UNL     1      -9.032   8.076  66.657  1.00  0.00    -0.164 Cl 
HETATM   27  C   UNL     1      -9.626   9.153  69.070  1.00  0.00    -0.156 A  
HETATM   28  C   UNL     1      -9.815   9.208  67.693  1.00  0.00    -0.172 A  
HETATM   29  C   UNL     1     -10.264  10.064  69.896  1.00  0.00    -0.304 A  
HETATM   30  F   UNL     1      -8.842   8.216  69.623  1.00  0.00    -0.136 F  
HETATM   31  C   UNL     1     -11.113  11.027  69.340  1.00  0.00    -0.320 A  
HETATM   32  C   UNL     1     -10.659  10.177  67.138  1.00  0.00    -0.308 A  
ENDBRANCH  23  25
ENDBRANCH  10  23
ENDBRANCH   2   3
TORSDOF 8
ENDMDL
MODEL       79
REMARK 921   NORMALIZED FREE ENERGY PREDICTED BY IDOCK:   -5.72 KCAL/MOL
REMARK 922        TOTAL FREE ENERGY PREDICTED BY IDOCK:  -10.03 KCAL/MOL
REMARK 923 INTER-LIGAND FREE ENERGY PREDICTED BY IDOCK:   -8.85 KCAL/MOL
REMARK 924 INTRA-LIGAND FREE ENERGY PREDICTED BY IDOCK:   -1.18 KCAL/MOL
REMARK 927      BINDING AFFINITY PREDICTED BY RF-SCORE:    0.00 PKD
ROOT
HETATM    1  C   UNL     1     -14.299   8.070  71.866  1.00  0.00    -0.457 C  
HETATM    2  O   UNL     1     -12.987   8.610  72.014  1.00  0.00    -0.336 OA 
ENDROOT
BRANCH   2   3
HETATM    3  C   UNL     1     -12.832   9.911  71.611  1.00  0.00    -0.436 A  
HETATM    4  C   UNL     1     -11.947  10.188  70.568  1.00  0.00    -0.311 A  
HETATM    5  N   UNL     1     -14.005  13.228  72.497  1.00  0.00    -0.723 NA 
HETATM    6  C   UNL     1     -11.649  11.519  70.258  1.00  0.00    -0.305 A  
HETATM    7  C   UNL     1     -13.289  12.296  71.863  1.00  0.00    -0.329 A  
HETATM    8  C   UNL     1     -12.311  12.599  70.907  1.00  0.00    -0.352 A  
HETATM    9  C   UNL     1     -13.523  10.975  72.204  1.00  0.00    -0.200 A  
HETATM   10  C   UNL     1     -12.080  13.975  70.696  1.00  0.00    -0.354 A  
HETATM   11  N   UNL     1     -12.811  14.916  71.327  1.00  0.00    -0.322 NA 
HETATM   12  C   UNL     1     -13.739  14.495  72.187  1.00  0.00    -0.450 A  
BRANCH   4  13
HETATM   13  O   UNL     1     -11.258   9.263  69.827  1.00  0.00    -0.196 OA 
BRANCH  13  14
HETATM   14  C   UNL     1     -10.232   9.785  68.963  1.00  0.00    -0.203 C  
BRANCH  14  15
HETATM   15  C   UNL     1      -8.899   9.221  69.456  1.00  0.00    -0.151 C  
BRANCH  15  16
HETATM   16  C   UNL     1      -8.474   7.912  68.780  1.00  0.00    -0.128 C  
BRANCH  16  17
HETATM   17  N   UNL     1      -7.052   7.803  68.419  1.00  0.00    -0.075 NA 
HETATM   18  C   UNL     1      -6.620   8.967  67.605  1.00  0.00    -0.061 C  
HETATM   19  C   UNL     1      -7.142   8.936  66.158  1.00  0.00    -0.085 C  
HETATM   20  C   UNL     1      -6.707   6.579  67.662  1.00  0.00    -0.067 C  
HETATM   21  C   UNL     1      -7.158   6.577  66.189  1.00  0.00    -0.067 C  
HETATM   22  O   UNL     1      -6.715   7.745  65.488  1.00  0.00    -0.045 OA 
ENDBRANCH  16  17
ENDBRANCH  15  16
ENDBRANCH  14  15
ENDBRANCH  13  14
ENDBRANCH   4  13
BRANCH  10  23
HETATM   23  N   UNL     1     -11.003  14.394  69.872  1.00  0.00    -0.451 NA 
HETATM   24  H   UNL     1     -10.090  14.405  70.326  1.00  0.00     0.000 HD 
BRANCH  23  25
HETATM   25  C   UNL     1     -11.003  14.798  68.517  1.00  0.00    -0.258 A  
HETATM   26 CL   UNL     1     -12.824  13.558  65.159  1.00  0.00    -0.442 Cl 
HETATM   27  C   UNL     1     -10.906  15.374  65.759  1.00  0.00    -0.343 A  
HETATM   28  C   UNL     1     -11.792  14.416  66.240  1.00  0.00    -0.379 A  
HETATM   29  C   UNL     1     -10.075  16.055  66.634  1.00  0.00    -0.287 A  
HETATM   30  F   UNL     1     -10.826  15.645  64.447  1.00  0.00    -0.380 F  
HETATM   31  C   UNL     1     -10.120  15.760  68.001  1.00  0.00    -0.228 A  
HETATM   32  C   UNL     1     -11.840  14.127  67.608  1.00  0.00    -0.427 A  
ENDBRANCH  23  25
ENDBRANCH  10  23
ENDBRANCH   2   3
TORSDOF 8
ENDMDL
MODEL       80
REMARK 921   NORMALIZED FREE ENERGY PREDICTED BY IDOCK:   -5.68 KCAL/MOL
REMARK 922        TOTAL FREE ENERGY PREDICTED BY IDOCK:   -9.96 KCAL/MOL
REMARK 923 INTER-LIGAND FREE ENERGY PREDICTED BY IDOCK:   -8.44 KCAL/MOL
REMARK 924 INTRA-LIGAND FREE ENERGY PREDICTED BY IDOCK:   -1.52 KCAL/MOL
REMARK 927      BINDING AFFINITY PREDICTED BY RF-SCORE:    0.00 PKD
ROOT
HETATM    1  C   UNL     1      -7.687   7.887  73.944  1.00  0.00    -0.169 C  
HETATM    2  O   UNL     1      -7.561   8.205  72.559  1.00  0.00    -0.106 OA 
ENDROOT
BRANCH   2   3
HETATM    3  C   UNL     1      -8.720   8.579  71.929  1.00  0.00    -0.203 A  
HETATM    4  C   UNL     1      -8.636   9.137  70.653  1.00  0.00    -0.226 A  
HETATM    5  N   UNL     1     -12.289   8.699  72.568  1.00  0.00    -0.367 NA 
HETATM    6  C   UNL     1      -9.786   9.677  70.066  1.00  0.00    -0.280 A  
HETATM    7  C   UNL     1     -11.140   8.898  71.917  1.00  0.00    -0.372 A  
HETATM    8  C   UNL     1     -11.059   9.574  70.694  1.00  0.00    -0.364 A  
HETATM    9  C   UNL     1      -9.983   8.426  72.514  1.00  0.00    -0.356 A  
HETATM   10  C   UNL     1     -12.278  10.097  70.212  1.00  0.00    -0.173 A  
HETATM   11  N   UNL     1     -13.440   9.886  70.863  1.00  0.00    -0.251 NA 
HETATM   12  C   UNL     1     -13.387   9.193  72.001  1.00  0.00    -0.445 A  
BRANCH   4  13
HETATM   13  O   UNL     1      -7.496   9.279  69.906  1.00  0.00    -0.068 OA 
BRANCH  13  14
HETATM   14  C   UNL     1      -7.685   9.421  68.487  1.00  0.00    -0.085 C  
BRANCH  14  15
HETATM   15  C   UNL     1      -7.392   8.061  67.854  1.00  0.00    -0.093 C  
BRANCH  15  16
HETATM   16  C   UNL     1      -8.562   7.462  67.064  1.00  0.00    -0.119 C  
BRANCH  16  17
HETATM   17  N   UNL     1      -9.565   6.726  67.851  1.00  0.00    -0.121 NA 
HETATM   18  C   UNL     1      -8.945   5.575  68.555  1.00  0.00    -0.110 C  
HETATM   19  C   UNL     1      -8.595   4.399  67.627  1.00  0.00    -0.103 C  
HETATM   20  C   UNL     1     -10.700   6.204  67.058  1.00  0.00    -0.350 C  
HETATM   21  C   UNL     1     -10.374   4.977  66.187  1.00  0.00    -0.268 C  
HETATM   22  O   UNL     1      -9.761   3.925  66.943  1.00  0.00    -0.216 OA 
ENDBRANCH  16  17
ENDBRANCH  15  16
ENDBRANCH  14  15
ENDBRANCH  13  14
ENDBRANCH   4  13
BRANCH  10  23
HETATM   23  N   UNL     1     -12.286  10.936  69.067  1.00  0.00    -0.724 NA 
HETATM   24  H   UNL     1     -12.519  10.469  68.191  1.00  0.00     0.000 HD 
BRANCH  23  25
HETATM   25  C   UNL     1     -12.020  12.320  68.956  1.00  0.00    -0.248 A  
HETATM   26 CL   UNL     1     -12.027  15.449  71.474  1.00  0.00    -0.393 Cl 
HETATM   27  C   UNL     1     -11.733  15.120  68.802  1.00  0.00    -0.342 A  
HETATM   28  C   UNL     1     -11.933  14.507  70.034  1.00  0.00    -0.330 A  
HETATM   29  C   UNL     1     -11.665  14.357  67.647  1.00  0.00    -0.421 A  
HETATM   30  F   UNL     1     -11.619  16.453  68.704  1.00  0.00    -0.354 F  
HETATM   31  C   UNL     1     -11.817  12.968  67.727  1.00  0.00    -0.395 A  
HETATM   32  C   UNL     1     -12.078  13.118  70.112  1.00  0.00    -0.392 A  
ENDBRANCH  23  25
ENDBRANCH  10  23
ENDBRANCH   2   3
TORSDOF 8
ENDMDL
MODEL       81
REMARK 921   NORMALIZED FREE ENERGY PREDICTED BY IDOCK:   -5.65 KCAL/MOL
REMARK 922        TOTAL FREE ENERGY PREDICTED BY IDOCK:   -9.92 KCAL/MOL
REMARK 923 INTER-LIGAND FREE ENERGY PREDICTED BY IDOCK:   -9.01 KCAL/MOL
REMARK 924 INTRA-LIGAND FREE ENERGY PREDICTED BY IDOCK:   -0.91 KCAL/MOL
REMARK 927      BINDING AFFINITY PREDICTED BY RF-SCORE:    0.00 PKD
ROOT
HETATM    1  C   UNL     1     -10.482  12.070  63.412  1.00  0.00    -0.433 C  
HETATM    2  O   UNL     1     -10.864  12.243  64.776  1.00  0.00    -0.283 OA 
ENDROOT
BRANCH   2   3
HETATM    3  C   UNL     1     -10.550  11.206  65.615  1.00  0.00    -0.223 A  
HETATM    4  C   UNL     1     -11.140  11.168  66.880  1.00  0.00    -0.247 A  
HETATM    5  N   UNL     1      -8.414   8.276  65.698  1.00  0.00    -0.151 NA 
HETATM    6  C   UNL     1     -10.707  10.217  67.809  1.00  0.00    -0.328 A  
HETATM    7  C   UNL     1      -9.270   9.197  66.147  1.00  0.00    -0.205 A  
HETATM    8  C   UNL     1      -9.755   9.218  67.460  1.00  0.00    -0.201 A  
HETATM    9  C   UNL     1      -9.661  10.186  65.259  1.00  0.00    -0.338 A  
HETATM   10  C   UNL     1      -9.227   8.225  68.313  1.00  0.00    -0.134 A  
HETATM   11  N   UNL     1      -8.372   7.287  67.857  1.00  0.00    -0.119 NA 
HETATM   12  C   UNL     1      -8.017   7.356  66.574  1.00  0.00    -0.111 A  
BRANCH   4  13
HETATM   13  O   UNL     1     -12.091  12.035  67.354  1.00  0.00    -0.566 OA 
BRANCH  13  14
HETATM   14  C   UNL     1     -11.833  12.605  68.650  1.00  0.00    -0.302 C  
BRANCH  14  15
HETATM   15  C   UNL     1     -11.779  14.122  68.472  1.00  0.00    -0.380 C  
BRANCH  15  16
HETATM   16  C   UNL     1     -12.156  14.923  69.725  1.00  0.00    -0.314 C  
BRANCH  16  17
HETATM   17  N   UNL     1     -11.932  14.251  71.014  1.00  0.00    -0.328 NA 
HETATM   18  C   UNL     1     -13.191  13.654  71.526  1.00  0.00    -0.331 C  
HETATM   19  C   UNL     1     -14.189  14.690  72.072  1.00  0.00    -0.537 C  
HETATM   20  C   UNL     1     -11.393  15.131  72.075  1.00  0.00    -0.271 C  
HETATM   21  C   UNL     1     -12.409  16.116  72.681  1.00  0.00    -0.487 C  
HETATM   22  O   UNL     1     -13.600  15.457  73.129  1.00  0.00    -0.477 OA 
ENDBRANCH  16  17
ENDBRANCH  15  16
ENDBRANCH  14  15
ENDBRANCH  13  14
ENDBRANCH   4  13
BRANCH  10  23
HETATM   23  N   UNL     1      -9.526   8.252  69.701  1.00  0.00    -0.162 NA 
HETATM   24  H   UNL     1      -9.168   9.064  70.203  1.00  0.00     0.000 HD 
BRANCH  23  25
HETATM   25  C   UNL     1     -10.243   7.326  70.492  1.00  0.00    -0.196 A  
HETATM   26 CL   UNL     1     -13.948   7.140  72.031  1.00  0.00    -0.308 Cl 
HETATM   27  C   UNL     1     -11.689   5.661  72.248  1.00  0.00    -0.138 A  
HETATM   28  C   UNL     1     -12.306   6.765  71.669  1.00  0.00    -0.362 A  
HETATM   29  C   UNL     1     -10.366   5.370  71.957  1.00  0.00    -0.268 A  
HETATM   30  F   UNL     1     -12.352   4.871  73.106  1.00  0.00    -0.335 F  
HETATM   31  C   UNL     1      -9.649   6.204  71.092  1.00  0.00    -0.193 A  
HETATM   32  C   UNL     1     -11.589   7.594  70.799  1.00  0.00    -0.284 A  
ENDBRANCH  23  25
ENDBRANCH  10  23
ENDBRANCH   2   3
TORSDOF 8
ENDMDL
MODEL       82
REMARK 921   NORMALIZED FREE ENERGY PREDICTED BY IDOCK:   -5.64 KCAL/MOL
REMARK 922        TOTAL FREE ENERGY PREDICTED BY IDOCK:   -9.91 KCAL/MOL
REMARK 923 INTER-LIGAND FREE ENERGY PREDICTED BY IDOCK:   -8.45 KCAL/MOL
REMARK 924 INTRA-LIGAND FREE ENERGY PREDICTED BY IDOCK:   -1.47 KCAL/MOL
REMARK 927      BINDING AFFINITY PREDICTED BY RF-SCORE:    0.00 PKD
ROOT
HETATM    1  C   UNL     1      -7.557  17.553  67.002  1.00  0.00    -0.207 C  
HETATM    2  O   UNL     1      -8.725  16.734  67.011  1.00  0.00    -0.190 OA 
ENDROOT
BRANCH   2   3
HETATM    3  C   UNL     1      -8.504  15.387  67.138  1.00  0.00    -0.214 A  
HETATM    4  C   UNL     1      -9.576  14.513  66.951  1.00  0.00    -0.250 A  
HETATM    5  N   UNL     1      -5.811  13.103  67.971  1.00  0.00    -0.103 NA 
HETATM    6  C   UNL     1      -9.409  13.155  67.241  1.00  0.00    -0.225 A  
HETATM    7  C   UNL     1      -7.052  13.500  67.677  1.00  0.00    -0.168 A  
HETATM    8  C   UNL     1      -8.143  12.626  67.618  1.00  0.00    -0.173 A  
HETATM    9  C   UNL     1      -7.248  14.853  67.450  1.00  0.00    -0.213 A  
HETATM   10  C   UNL     1      -7.860  11.285  67.955  1.00  0.00    -0.116 A  
HETATM   11  N   UNL     1      -6.605  10.881  68.240  1.00  0.00    -0.058 NA 
HETATM   12  C   UNL     1      -5.646  11.808  68.225  1.00  0.00    -0.046 A  
BRANCH   4  13
HETATM   13  O   UNL     1     -10.843  14.861  66.560  1.00  0.00    -0.310 OA 
BRANCH  13  14
HETATM   14  C   UNL     1     -11.879  14.670  67.541  1.00  0.00    -0.347 C  
BRANCH  14  15
HETATM   15  C   UNL     1     -11.753  15.805  68.556  1.00  0.00    -0.328 C  
BRANCH  15  16
HETATM   16  C   UNL     1     -12.542  15.588  69.853  1.00  0.00    -0.133 C  
BRANCH  16  17
HETATM   17  N   UNL     1     -11.847  14.847  70.917  1.00  0.00    -0.302 NA 
HETATM   18  C   UNL     1     -12.693  13.739  71.431  1.00  0.00    -0.367 C  
HETATM   19  C   UNL     1     -13.858  14.213  72.318  1.00  0.00    -0.544 C  
HETATM   20  C   UNL     1     -11.446  15.674  72.076  1.00  0.00    -0.404 C  
HETATM   21  C   UNL     1     -12.598  16.085  73.012  1.00  0.00    -0.503 C  
HETATM   22  O   UNL     1     -13.372  14.958  73.441  1.00  0.00    -0.537 OA 
ENDBRANCH  16  17
ENDBRANCH  15  16
ENDBRANCH  14  15
ENDBRANCH  13  14
ENDBRANCH   4  13
BRANCH  10  23
HETATM   23  N   UNL     1      -8.918  10.348  68.084  1.00  0.00    -0.130 NA 
HETATM   24  H   UNL     1      -9.308  10.012  67.204  1.00  0.00     0.000 HD 
BRANCH  23  25
HETATM   25  C   UNL     1      -9.515   9.809  69.247  1.00  0.00    -0.194 A  
HETATM   26 CL   UNL     1     -13.104  10.109  71.026  1.00  0.00    -0.467 Cl 
HETATM   27  C   UNL     1     -10.725   8.974  71.653  1.00  0.00    -0.371 A  
HETATM   28  C   UNL     1     -11.459   9.698  70.718  1.00  0.00    -0.328 A  
HETATM   29  C   UNL     1      -9.401   8.654  71.401  1.00  0.00    -0.305 A  
HETATM   30  F   UNL     1     -11.275   8.589  72.814  1.00  0.00    -0.415 F  
HETATM   31  C   UNL     1      -8.801   9.077  70.210  1.00  0.00    -0.210 A  
HETATM   32  C   UNL     1     -10.859  10.115  69.525  1.00  0.00    -0.289 A  
ENDBRANCH  23  25
ENDBRANCH  10  23
ENDBRANCH   2   3
TORSDOF 8
ENDMDL
MODEL       83
REMARK 921   NORMALIZED FREE ENERGY PREDICTED BY IDOCK:   -5.63 KCAL/MOL
REMARK 922        TOTAL FREE ENERGY PREDICTED BY IDOCK:   -9.89 KCAL/MOL
REMARK 923 INTER-LIGAND FREE ENERGY PREDICTED BY IDOCK:   -8.33 KCAL/MOL
REMARK 924 INTRA-LIGAND FREE ENERGY PREDICTED BY IDOCK:   -1.56 KCAL/MOL
REMARK 927      BINDING AFFINITY PREDICTED BY RF-SCORE:    0.00 PKD
ROOT
HETATM    1  C   UNL     1      -9.805   9.559  69.042  1.00  0.00    -0.176 C  
HETATM    2  O   UNL     1      -9.841  10.241  67.790  1.00  0.00    -0.163 OA 
ENDROOT
BRANCH   2   3
HETATM    3  C   UNL     1      -9.187  11.445  67.751  1.00  0.00    -0.159 A  
HETATM    4  C   UNL     1      -9.902  12.581  67.369  1.00  0.00    -0.201 A  
HETATM    5  N   UNL     1      -5.861  12.793  68.274  1.00  0.00    -0.065 NA 
HETATM    6  C   UNL     1      -9.217  13.783  67.161  1.00  0.00    -0.245 A  
HETATM    7  C   UNL     1      -7.153  12.781  67.937  1.00  0.00    -0.118 A  
HETATM    8  C   UNL     1      -7.825  13.901  67.434  1.00  0.00    -0.177 A  
HETATM    9  C   UNL     1      -7.833  11.582  68.075  1.00  0.00    -0.126 A  
HETATM   10  C   UNL     1      -7.025  15.048  67.242  1.00  0.00    -0.052 A  
HETATM   11  N   UNL     1      -5.723  15.065  67.594  1.00  0.00    -0.320 NA 
HETATM   12  C   UNL     1      -5.212  13.941  68.097  1.00  0.00    -0.113 A  
BRANCH   4  13
HETATM   13  O   UNL     1     -11.246  12.639  67.103  1.00  0.00    -0.270 OA 
BRANCH  13  14
HETATM   14  C   UNL     1     -12.032  13.445  67.999  1.00  0.00    -0.322 C  
BRANCH  14  15
HETATM   15  C   UNL     1     -12.089  12.707  69.336  1.00  0.00    -0.236 C  
BRANCH  15  16
HETATM   16  C   UNL     1     -11.928  13.608  70.567  1.00  0.00    -0.280 C  
BRANCH  16  17
HETATM   17  N   UNL     1     -12.474  14.969  70.449  1.00  0.00    -0.346 NA 
HETATM   18  C   UNL     1     -11.639  15.942  71.198  1.00  0.00    -0.432 C  
HETATM   19  C   UNL     1     -11.804  15.849  72.725  1.00  0.00    -0.478 C  
HETATM   20  C   UNL     1     -13.865  15.112  70.931  1.00  0.00    -0.241 C  
HETATM   21  C   UNL     1     -14.027  15.100  72.463  1.00  0.00    -0.486 C  
HETATM   22  O   UNL     1     -13.170  16.053  73.103  1.00  0.00    -0.533 OA 
ENDBRANCH  16  17
ENDBRANCH  15  16
ENDBRANCH  14  15
ENDBRANCH  13  14
ENDBRANCH   4  13
BRANCH  10  23
HETATM   23  N   UNL     1      -7.565  16.187  66.589  1.00  0.00    -0.233 NA 
HETATM   24  H   UNL     1      -7.333  16.266  65.599  1.00  0.00     0.000 HD 
BRANCH  23  25
HETATM   25  C   UNL     1      -8.375  17.226  67.100  1.00  0.00    -0.201 A  
HETATM   26 CL   UNL     1     -10.875  19.947  65.525  1.00  0.00    -0.413 Cl 
HETATM   27  C   UNL     1      -9.847  19.462  67.984  1.00  0.00    -0.369 A  
HETATM   28  C   UNL     1      -9.913  19.067  66.652  1.00  0.00    -0.374 A  
HETATM   29  C   UNL     1      -9.066  18.754  68.882  1.00  0.00    -0.250 A  
HETATM   30  F   UNL     1     -10.520  20.538  68.419  1.00  0.00    -0.460 F  
HETATM   31  C   UNL     1      -8.330  17.650  68.438  1.00  0.00    -0.290 A  
HETATM   32  C   UNL     1      -9.181  17.959  66.211  1.00  0.00    -0.204 A  
ENDBRANCH  23  25
ENDBRANCH  10  23
ENDBRANCH   2   3
TORSDOF 8
ENDMDL
MODEL       84
REMARK 921   NORMALIZED FREE ENERGY PREDICTED BY IDOCK:   -5.62 KCAL/MOL
REMARK 922        TOTAL FREE ENERGY PREDICTED BY IDOCK:   -9.88 KCAL/MOL
REMARK 923 INTER-LIGAND FREE ENERGY PREDICTED BY IDOCK:   -8.68 KCAL/MOL
REMARK 924 INTRA-LIGAND FREE ENERGY PREDICTED BY IDOCK:   -1.20 KCAL/MOL
REMARK 927      BINDING AFFINITY PREDICTED BY RF-SCORE:    0.00 PKD
ROOT
HETATM    1  C   UNL     1      -5.259  12.147  67.164  1.00  0.00    -0.084 C  
HETATM    2  O   UNL     1      -6.597  11.896  67.590  1.00  0.00    -0.078 OA 
ENDROOT
BRANCH   2   3
HETATM    3  C   UNL     1      -7.327  13.004  67.933  1.00  0.00    -0.128 A  
HETATM    4  C   UNL     1      -8.580  12.822  68.522  1.00  0.00    -0.048 A  
HETATM    5  N   UNL     1      -7.116  16.619  67.722  1.00  0.00    -0.131 NA 
HETATM    6  C   UNL     1      -9.409  13.931  68.723  1.00  0.00    -0.031 A  
HETATM    7  C   UNL     1      -7.655  15.423  67.971  1.00  0.00    -0.127 A  
HETATM    8  C   UNL     1      -8.962  15.253  68.442  1.00  0.00    -0.184 A  
HETATM    9  C   UNL     1      -6.871  14.309  67.715  1.00  0.00    -0.189 A  
HETATM   10  C   UNL     1      -9.711  16.441  68.582  1.00  0.00    -0.239 A  
HETATM   11  N   UNL     1      -9.164  17.650  68.343  1.00  0.00    -0.282 NA 
HETATM   12  C   UNL     1      -7.895  17.677  67.933  1.00  0.00    -0.221 A  
BRANCH   4  13
HETATM   13  O   UNL     1      -9.138  11.622  68.880  1.00  0.00    -0.077 OA 
BRANCH  13  14
HETATM   14  C   UNL     1     -10.565  11.521  68.729  1.00  0.00    -0.211 C  
BRANCH  14  15
HETATM   15  C   UNL     1     -10.830  10.903  67.356  1.00  0.00    -0.333 C  
BRANCH  15  16
HETATM   16  C   UNL     1     -11.630  11.797  66.400  1.00  0.00    -0.162 C  
BRANCH  16  17
HETATM   17  N   UNL     1     -10.861  12.820  65.675  1.00  0.00    -0.269 NA 
HETATM   18  C   UNL     1     -11.428  14.173  65.907  1.00  0.00    -0.338 C  
HETATM   19  C   UNL     1     -12.750  14.424  65.159  1.00  0.00    -0.251 C  
HETATM   20  C   UNL     1     -10.795  12.611  64.211  1.00  0.00    -0.379 C  
HETATM   21  C   UNL     1     -12.092  12.938  63.449  1.00  0.00    -0.530 C  
HETATM   22  O   UNL     1     -12.578  14.252  63.748  1.00  0.00    -0.821 OA 
ENDBRANCH  16  17
ENDBRANCH  15  16
ENDBRANCH  14  15
ENDBRANCH  13  14
ENDBRANCH   4  13
BRANCH  10  23
HETATM   23  N   UNL     1     -11.093  16.373  68.898  1.00  0.00    -0.335 NA 
HETATM   24  H   UNL     1     -11.707  16.880  68.259  1.00  0.00     0.000 HD 
BRANCH  23  25
HETATM   25  C   UNL     1     -11.749  15.712  69.961  1.00  0.00    -0.357 A  
HETATM   26 CL   UNL     1     -12.188  16.360  73.900  1.00  0.00    -0.578 Cl 
HETATM   27  C   UNL     1     -12.827  14.361  72.188  1.00  0.00    -0.342 A  
HETATM   28  C   UNL     1     -12.259  15.621  72.345  1.00  0.00    -0.443 A  
HETATM   29  C   UNL     1     -12.874  13.770  70.936  1.00  0.00    -0.341 A  
HETATM   30  F   UNL     1     -13.324  13.691  73.239  1.00  0.00    -0.413 F  
HETATM   31  C   UNL     1     -12.330  14.440  69.834  1.00  0.00    -0.365 A  
HETATM   32  C   UNL     1     -11.721  16.291  71.241  1.00  0.00    -0.396 A  
ENDBRANCH  23  25
ENDBRANCH  10  23
ENDBRANCH   2   3
TORSDOF 8
ENDMDL
MODEL       85
REMARK 921   NORMALIZED FREE ENERGY PREDICTED BY IDOCK:   -5.62 KCAL/MOL
REMARK 922        TOTAL FREE ENERGY PREDICTED BY IDOCK:   -9.87 KCAL/MOL
REMARK 923 INTER-LIGAND FREE ENERGY PREDICTED BY IDOCK:   -8.37 KCAL/MOL
REMARK 924 INTRA-LIGAND FREE ENERGY PREDICTED BY IDOCK:   -1.50 KCAL/MOL
REMARK 927      BINDING AFFINITY PREDICTED BY RF-SCORE:    0.00 PKD
ROOT
HETATM    1  C   UNL     1      -5.974  20.120  70.660  1.00  0.00    -0.335 C  
HETATM    2  O   UNL     1      -5.761  18.998  69.807  1.00  0.00    -0.216 OA 
ENDROOT
BRANCH   2   3
HETATM    3  C   UNL     1      -6.810  18.668  68.987  1.00  0.00    -0.280 A  
HETATM    4  C   UNL     1      -6.952  17.339  68.586  1.00  0.00    -0.220 A  
HETATM    5  N   UNL     1      -9.568  20.271  67.261  1.00  0.00    -0.420 NA 
HETATM    6  C   UNL     1      -7.911  17.014  67.620  1.00  0.00    -0.183 A  
HETATM    7  C   UNL     1      -8.738  19.291  67.626  1.00  0.00    -0.296 A  
HETATM    8  C   UNL     1      -8.816  17.990  67.116  1.00  0.00    -0.249 A  
HETATM    9  C   UNL     1      -7.741  19.609  68.534  1.00  0.00    -0.369 A  
HETATM   10  C   UNL     1      -9.805  17.788  66.129  1.00  0.00    -0.244 A  
HETATM   11  N   UNL     1     -10.652  18.774  65.769  1.00  0.00    -0.572 NA 
HETATM   12  C   UNL     1     -10.495  19.960  66.359  1.00  0.00    -0.475 A  
BRANCH   4  13
HETATM   13  O   UNL     1      -6.184  16.282  69.003  1.00  0.00    -0.133 OA 
BRANCH  13  14
HETATM   14  C   UNL     1      -6.072  15.182  68.082  1.00  0.00    -0.135 C  
BRANCH  14  15
HETATM   15  C   UNL     1      -5.539  13.987  68.871  1.00  0.00    -0.082 C  
BRANCH  15  16
HETATM   16  C   UNL     1      -6.294  12.675  68.625  1.00  0.00    -0.074 C  
BRANCH  16  17
HETATM   17  N   UNL     1      -6.742  12.435  67.245  1.00  0.00    -0.152 NA 
HETATM   18  C   UNL     1      -8.218  12.276  67.186  1.00  0.00    -0.179 C  
HETATM   19  C   UNL     1      -8.716  10.929  67.739  1.00  0.00    -0.129 C  
HETATM   20  C   UNL     1      -6.141  11.243  66.606  1.00  0.00    -0.143 C  
HETATM   21  C   UNL     1      -6.693   9.893  67.100  1.00  0.00    -0.074 C  
HETATM   22  O   UNL     1      -8.124   9.836  67.027  1.00  0.00    -0.112 OA 
ENDBRANCH  16  17
ENDBRANCH  15  16
ENDBRANCH  14  15
ENDBRANCH  13  14
ENDBRANCH   4  13
BRANCH  10  23
HETATM   23  N   UNL     1      -9.866  16.554  65.430  1.00  0.00    -0.503 NA 
HETATM   24  H   UNL     1      -9.331  16.522  64.563  1.00  0.00     0.000 HD 
BRANCH  23  25
HETATM   25  C   UNL     1     -10.555  15.362  65.753  1.00  0.00    -0.348 A  
HETATM   26 CL   UNL     1     -12.152  13.793  69.088  1.00  0.00    -0.390 Cl 
HETATM   27  C   UNL     1     -11.735  12.931  66.554  1.00  0.00    -0.393 A  
HETATM   28  C   UNL     1     -11.609  13.976  67.463  1.00  0.00    -0.367 A  
HETATM   29  C   UNL     1     -11.290  13.084  65.251  1.00  0.00    -0.325 A  
HETATM   30  F   UNL     1     -12.270  11.757  66.921  1.00  0.00    -0.202 F  
HETATM   31  C   UNL     1     -10.697  14.289  64.860  1.00  0.00    -0.448 A  
HETATM   32  C   UNL     1     -11.022  15.183  67.067  1.00  0.00    -0.322 A  
ENDBRANCH  23  25
ENDBRANCH  10  23
ENDBRANCH   2   3
TORSDOF 8
ENDMDL
MODEL       86
REMARK 921   NORMALIZED FREE ENERGY PREDICTED BY IDOCK:   -5.60 KCAL/MOL
REMARK 922        TOTAL FREE ENERGY PREDICTED BY IDOCK:   -9.85 KCAL/MOL
REMARK 923 INTER-LIGAND FREE ENERGY PREDICTED BY IDOCK:   -8.71 KCAL/MOL
REMARK 924 INTRA-LIGAND FREE ENERGY PREDICTED BY IDOCK:   -1.14 KCAL/MOL
REMARK 927      BINDING AFFINITY PREDICTED BY RF-SCORE:    0.00 PKD
ROOT
HETATM    1  C   UNL     1      -5.877  16.068  67.719  1.00  0.00    -0.142 C  
HETATM    2  O   UNL     1      -7.077  15.605  67.102  1.00  0.00    -0.205 OA 
ENDROOT
BRANCH   2   3
HETATM    3  C   UNL     1      -7.502  14.361  67.490  1.00  0.00    -0.186 A  
HETATM    4  C   UNL     1      -8.791  13.956  67.140  1.00  0.00    -0.226 A  
HETATM    5  N   UNL     1      -6.312  11.512  69.394  1.00  0.00    -0.091 NA 
HETATM    6  C   UNL     1      -9.301  12.765  67.669  1.00  0.00    -0.191 A  
HETATM    7  C   UNL     1      -7.167  12.268  68.701  1.00  0.00    -0.105 A  
HETATM    8  C   UNL     1      -8.498  11.903  68.467  1.00  0.00    -0.113 A  
HETATM    9  C   UNL     1      -6.698  13.481  68.225  1.00  0.00    -0.107 A  
HETATM   10  C   UNL     1      -8.906  10.695  69.071  1.00  0.00    -0.148 A  
HETATM   11  N   UNL     1      -8.040   9.924  69.760  1.00  0.00    -0.162 NA 
HETATM   12  C   UNL     1      -6.788  10.368  69.879  1.00  0.00    -0.143 A  
BRANCH   4  13
HETATM   13  O   UNL     1      -9.672  14.654  66.356  1.00  0.00    -0.267 OA 
BRANCH  13  14
HETATM   14  C   UNL     1     -10.962  14.916  66.938  1.00  0.00    -0.327 C  
BRANCH  14  15
HETATM   15  C   UNL     1     -10.893  16.299  67.585  1.00  0.00    -0.293 C  
BRANCH  15  16
HETATM   16  C   UNL     1     -10.398  17.412  66.653  1.00  0.00    -0.306 C  
BRANCH  16  17
HETATM   17  N   UNL     1     -10.616  18.791  67.120  1.00  0.00    -0.423 NA 
HETATM   18  C   UNL     1     -10.098  19.772  66.133  1.00  0.00    -0.499 C  
HETATM   19  C   UNL     1      -8.563  19.867  66.105  1.00  0.00    -0.312 C  
HETATM   20  C   UNL     1      -9.990  19.100  68.424  1.00  0.00    -0.418 C  
HETATM   21  C   UNL     1      -8.461  19.274  68.387  1.00  0.00    -0.351 C  
HETATM   22  O   UNL     1      -8.050  20.223  67.394  1.00  0.00    -0.319 OA 
ENDBRANCH  16  17
ENDBRANCH  15  16
ENDBRANCH  14  15
ENDBRANCH  13  14
ENDBRANCH   4  13
BRANCH  10  23
HETATM   23  N   UNL     1     -10.273  10.311  69.035  1.00  0.00    -0.197 NA 
HETATM   24  H   UNL     1     -10.677  10.242  68.101  1.00  0.00     0.000 HD 
BRANCH  23  25
HETATM   25  C   UNL     1     -11.158  10.010  70.095  1.00  0.00    -0.310 A  
HETATM   26 CL   UNL     1     -12.257   6.679  72.050  1.00  0.00    -0.362 Cl 
HETATM   27  C   UNL     1     -13.056   9.266  72.042  1.00  0.00    -0.436 A  
HETATM   28  C   UNL     1     -12.180   8.318  71.524  1.00  0.00    -0.301 A  
HETATM   29  C   UNL     1     -12.992  10.581  71.610  1.00  0.00    -0.581 A  
HETATM   30  F   UNL     1     -13.983   8.928  72.952  1.00  0.00    -0.455 F  
HETATM   31  C   UNL     1     -12.055  10.945  70.637  1.00  0.00    -0.468 A  
HETATM   32  C   UNL     1     -11.240   8.685  70.556  1.00  0.00    -0.266 A  
ENDBRANCH  23  25
ENDBRANCH  10  23
ENDBRANCH   2   3
TORSDOF 8
ENDMDL
MODEL       87
REMARK 921   NORMALIZED FREE ENERGY PREDICTED BY IDOCK:   -5.60 KCAL/MOL
REMARK 922        TOTAL FREE ENERGY PREDICTED BY IDOCK:   -9.84 KCAL/MOL
REMARK 923 INTER-LIGAND FREE ENERGY PREDICTED BY IDOCK:   -8.88 KCAL/MOL
REMARK 924 INTRA-LIGAND FREE ENERGY PREDICTED BY IDOCK:   -0.96 KCAL/MOL
REMARK 927      BINDING AFFINITY PREDICTED BY RF-SCORE:    0.00 PKD
ROOT
HETATM    1  C   UNL     1     -14.174   8.699  72.219  1.00  0.00    -0.417 C  
HETATM    2  O   UNL     1     -13.046   9.504  72.557  1.00  0.00    -0.383 OA 
ENDROOT
BRANCH   2   3
HETATM    3  C   UNL     1     -12.862  10.621  71.784  1.00  0.00    -0.444 A  
HETATM    4  C   UNL     1     -12.265  10.476  70.531  1.00  0.00    -0.344 A  
HETATM    5  N   UNL     1     -13.374  14.208  71.958  1.00  0.00    -0.380 NA 
HETATM    6  C   UNL     1     -11.915  11.619  69.803  1.00  0.00    -0.402 A  
HETATM    7  C   UNL     1     -12.964  13.039  71.461  1.00  0.00    -0.305 A  
HETATM    8  C   UNL     1     -12.252  12.923  70.261  1.00  0.00    -0.362 A  
HETATM    9  C   UNL     1     -13.244  11.902  72.201  1.00  0.00    -0.366 A  
HETATM   10  C   UNL     1     -11.935  14.144  69.629  1.00  0.00    -0.336 A  
HETATM   11  N   UNL     1     -12.359  15.324  70.124  1.00  0.00    -0.355 NA 
HETATM   12  C   UNL     1     -13.062  15.295  71.257  1.00  0.00    -0.468 A  
BRANCH   4  13
HETATM   13  O   UNL     1     -11.909   9.292  69.938  1.00  0.00     0.077 OA 
BRANCH  13  14
HETATM   14  C   UNL     1     -10.747   9.336  69.091  1.00  0.00    -0.183 C  
BRANCH  14  15
HETATM   15  C   UNL     1     -10.530   7.923  68.550  1.00  0.00    -0.202 C  
BRANCH  15  16
HETATM   16  C   UNL     1      -9.332   7.185  69.161  1.00  0.00    -0.141 C  
BRANCH  16  17
HETATM   17  N   UNL     1      -9.646   6.177  70.185  1.00  0.00    -0.161 NA 
HETATM   18  C   UNL     1      -8.413   5.717  70.872  1.00  0.00    -0.126 C  
HETATM   19  C   UNL     1      -7.538   4.787  70.013  1.00  0.00    -0.055 C  
HETATM   20  C   UNL     1     -10.341   4.977  69.668  1.00  0.00    -0.190 C  
HETATM   21  C   UNL     1      -9.451   4.002  68.875  1.00  0.00    -0.167 C  
HETATM   22  O   UNL     1      -8.275   3.629  69.605  1.00  0.00    -0.053 OA 
ENDBRANCH  16  17
ENDBRANCH  15  16
ENDBRANCH  14  15
ENDBRANCH  13  14
ENDBRANCH   4  13
BRANCH  10  23
HETATM   23  N   UNL     1     -11.080  14.153  68.495  1.00  0.00    -0.245 NA 
HETATM   24  H   UNL     1     -10.140  14.510  68.666  1.00  0.00     0.000 HD 
BRANCH  23  25
HETATM   25  C   UNL     1     -11.333  13.743  67.166  1.00  0.00    -0.324 A  
HETATM   26 CL   UNL     1      -9.696  11.097  64.627  1.00  0.00    -0.287 Cl 
HETATM   27  C   UNL     1     -11.603  13.012  64.457  1.00  0.00    -0.360 A  
HETATM   28  C   UNL     1     -10.687  12.352  65.269  1.00  0.00    -0.287 A  
HETATM   29  C   UNL     1     -12.392  14.025  64.979  1.00  0.00    -0.458 A  
HETATM   30  F   UNL     1     -11.730  12.697  63.159  1.00  0.00    -0.525 F  
HETATM   31  C   UNL     1     -12.249  14.390  66.322  1.00  0.00    -0.366 A  
HETATM   32  C   UNL     1     -10.550  12.715  66.613  1.00  0.00    -0.267 A  
ENDBRANCH  23  25
ENDBRANCH  10  23
ENDBRANCH   2   3
TORSDOF 8
ENDMDL
MODEL       88
REMARK 921   NORMALIZED FREE ENERGY PREDICTED BY IDOCK:   -5.57 KCAL/MOL
REMARK 922        TOTAL FREE ENERGY PREDICTED BY IDOCK:   -9.81 KCAL/MOL
REMARK 923 INTER-LIGAND FREE ENERGY PREDICTED BY IDOCK:   -8.66 KCAL/MOL
REMARK 924 INTRA-LIGAND FREE ENERGY PREDICTED BY IDOCK:   -1.15 KCAL/MOL
REMARK 927      BINDING AFFINITY PREDICTED BY RF-SCORE:    0.00 PKD
ROOT
HETATM    1  C   UNL     1     -12.648  13.239  71.129  1.00  0.00    -0.325 C  
HETATM    2  O   UNL     1     -12.323  12.464  69.976  1.00  0.00    -0.200 OA 
ENDROOT
BRANCH   2   3
HETATM    3  C   UNL     1     -11.957  11.166  70.219  1.00  0.00    -0.373 A  
HETATM    4  C   UNL     1     -10.731  10.714  69.729  1.00  0.00    -0.230 A  
HETATM    5  N   UNL     1     -13.282   8.177  71.791  1.00  0.00    -0.337 NA 
HETATM    6  C   UNL     1     -10.417   9.353  69.819  1.00  0.00    -0.243 A  
HETATM    7  C   UNL     1     -12.436   8.936  71.090  1.00  0.00    -0.214 A  
HETATM    8  C   UNL     1     -11.271   8.438  70.496  1.00  0.00    -0.252 A  
HETATM    9  C   UNL     1     -12.763  10.273  70.935  1.00  0.00    -0.462 A  
HETATM   10  C   UNL     1     -11.073   7.047  70.631  1.00  0.00    -0.272 A  
HETATM   11  N   UNL     1     -11.920   6.282  71.348  1.00  0.00    -0.233 NA 
HETATM   12  C   UNL     1     -12.975   6.887  71.897  1.00  0.00    -0.217 A  
BRANCH   4  13
HETATM   13  O   UNL     1      -9.789  11.474  69.085  1.00  0.00    -0.061 OA 
BRANCH  13  14
HETATM   14  C   UNL     1      -9.081  10.825  68.013  1.00  0.00    -0.150 C  
BRANCH  14  15
HETATM   15  C   UNL     1      -8.987  11.828  66.863  1.00  0.00    -0.195 C  
BRANCH  15  16
HETATM   16  C   UNL     1     -10.219  11.865  65.950  1.00  0.00    -0.236 C  
BRANCH  16  17
HETATM   17  N   UNL     1     -10.062  12.595  64.682  1.00  0.00    -0.270 NA 
HETATM   18  C   UNL     1     -10.445  14.021  64.841  1.00  0.00    -0.431 C  
HETATM   19  C   UNL     1     -11.964  14.243  64.953  1.00  0.00    -0.425 C  
HETATM   20  C   UNL     1     -10.854  12.045  63.559  1.00  0.00    -0.444 C  
HETATM   21  C   UNL     1     -12.365  12.333  63.626  1.00  0.00    -0.562 C  
HETATM   22  O   UNL     1     -12.640  13.729  63.801  1.00  0.00    -0.712 OA 
ENDBRANCH  16  17
ENDBRANCH  15  16
ENDBRANCH  14  15
ENDBRANCH  13  14
ENDBRANCH   4  13
BRANCH  10  23
HETATM   23  N   UNL     1     -10.013   6.411  69.933  1.00  0.00    -0.166 NA 
HETATM   24  H   UNL     1      -9.086   6.551  70.335  1.00  0.00     0.000 HD 
BRANCH  23  25
HETATM   25  C   UNL     1     -10.045   5.614  68.766  1.00  0.00    -0.186 A  
HETATM   26 CL   UNL     1      -8.917   1.878  67.819  1.00  0.00    -0.154 Cl 
HETATM   27  C   UNL     1      -9.854   4.018  66.450  1.00  0.00    -0.157 A  
HETATM   28  C   UNL     1      -9.497   3.495  67.688  1.00  0.00    -0.183 A  
HETATM   29  C   UNL     1     -10.313   5.322  66.352  1.00  0.00    -0.315 A  
HETATM   30  F   UNL     1      -9.747   3.284  65.332  1.00  0.00    -0.165 F  
HETATM   31  C   UNL     1     -10.398   6.114  67.502  1.00  0.00    -0.259 A  
HETATM   32  C   UNL     1      -9.589   4.286  68.838  1.00  0.00    -0.227 A  
ENDBRANCH  23  25
ENDBRANCH  10  23
ENDBRANCH   2   3
TORSDOF 8
ENDMDL
MODEL       89
REMARK 921   NORMALIZED FREE ENERGY PREDICTED BY IDOCK:   -5.57 KCAL/MOL
REMARK 922        TOTAL FREE ENERGY PREDICTED BY IDOCK:   -9.81 KCAL/MOL
REMARK 923 INTER-LIGAND FREE ENERGY PREDICTED BY IDOCK:   -8.44 KCAL/MOL
REMARK 924 INTRA-LIGAND FREE ENERGY PREDICTED BY IDOCK:   -1.36 KCAL/MOL
REMARK 927      BINDING AFFINITY PREDICTED BY RF-SCORE:    0.00 PKD
ROOT
HETATM    1  C   UNL     1      -6.530  10.422  65.444  1.00  0.00    -0.115 C  
HETATM    2  O   UNL     1      -7.921  10.488  65.135  1.00  0.00    -0.149 OA 
ENDROOT
BRANCH   2   3
HETATM    3  C   UNL     1      -8.698   9.501  65.683  1.00  0.00    -0.149 A  
HETATM    4  C   UNL     1      -9.721   9.866  66.560  1.00  0.00    -0.204 A  
HETATM    5  N   UNL     1      -8.958   5.883  65.691  1.00  0.00    -0.129 NA 
HETATM    6  C   UNL     1     -10.412   8.869  67.258  1.00  0.00    -0.348 A  
HETATM    7  C   UNL     1      -9.228   7.144  66.036  1.00  0.00    -0.022 A  
HETATM    8  C   UNL     1     -10.170   7.488  67.013  1.00  0.00    -0.368 A  
HETATM    9  C   UNL     1      -8.507   8.143  65.402  1.00  0.00    -0.164 A  
HETATM   10  C   UNL     1     -10.785   6.398  67.667  1.00  0.00    -0.311 A  
HETATM   11  N   UNL     1     -10.522   5.125  67.310  1.00  0.00    -0.173 NA 
HETATM   12  C   UNL     1      -9.630   4.934  66.337  1.00  0.00    -0.172 A  
BRANCH   4  13
HETATM   13  O   UNL     1     -10.096  11.146  66.876  1.00  0.00    -0.203 OA 
BRANCH  13  14
HETATM   14  C   UNL     1      -9.502  11.702  68.063  1.00  0.00    -0.185 C  
BRANCH  14  15
HETATM   15  C   UNL     1      -9.055  13.123  67.719  1.00  0.00    -0.200 C  
BRANCH  15  16
HETATM   16  C   UNL     1      -9.538  13.629  66.355  1.00  0.00    -0.268 C  
BRANCH  16  17
HETATM   17  N   UNL     1     -10.506  14.736  66.381  1.00  0.00    -0.286 NA 
HETATM   18  C   UNL     1     -11.672  14.401  67.237  1.00  0.00    -0.404 C  
HETATM   19  C   UNL     1     -12.633  13.382  66.599  1.00  0.00     0.020 C  
HETATM   20  C   UNL     1     -11.027  15.123  65.051  1.00  0.00    -0.430 C  
HETATM   21  C   UNL     1     -12.049  14.145  64.443  1.00  0.00    -0.463 C  
HETATM   22  O   UNL     1     -13.128  13.863  65.345  1.00  0.00    -0.752 OA 
ENDBRANCH  16  17
ENDBRANCH  15  16
ENDBRANCH  14  15
ENDBRANCH  13  14
ENDBRANCH   4  13
BRANCH  10  23
HETATM   23  N   UNL     1     -11.633   6.628  68.781  1.00  0.00    -0.546 NA 
HETATM   24  H   UNL     1     -12.630   6.646  68.567  1.00  0.00     0.000 HD 
BRANCH  23  25
HETATM   25  C   UNL     1     -11.308   6.836  70.141  1.00  0.00    -0.350 A  
HETATM   26 CL   UNL     1     -10.910   4.494  73.379  1.00  0.00    -0.315 Cl 
HETATM   27  C   UNL     1     -10.892   7.161  72.910  1.00  0.00    -0.323 A  
HETATM   28  C   UNL     1     -11.004   5.885  72.367  1.00  0.00    -0.264 A  
HETATM   29  C   UNL     1     -10.975   8.275  72.091  1.00  0.00    -0.396 A  
HETATM   30  F   UNL     1     -10.719   7.338  74.229  1.00  0.00    -0.293 F  
HETATM   31  C   UNL     1     -11.190   8.110  70.718  1.00  0.00    -0.275 A  
HETATM   32  C   UNL     1     -11.213   5.722  70.994  1.00  0.00    -0.208 A  
ENDBRANCH  23  25
ENDBRANCH  10  23
ENDBRANCH   2   3
TORSDOF 8
ENDMDL
MODEL       90
REMARK 921   NORMALIZED FREE ENERGY PREDICTED BY IDOCK:   -5.57 KCAL/MOL
REMARK 922        TOTAL FREE ENERGY PREDICTED BY IDOCK:   -9.80 KCAL/MOL
REMARK 923 INTER-LIGAND FREE ENERGY PREDICTED BY IDOCK:   -8.36 KCAL/MOL
REMARK 924 INTRA-LIGAND FREE ENERGY PREDICTED BY IDOCK:   -1.44 KCAL/MOL
REMARK 927      BINDING AFFINITY PREDICTED BY RF-SCORE:    0.00 PKD
ROOT
HETATM    1  C   UNL     1     -13.574  13.659  72.338  1.00  0.00    -0.602 C  
HETATM    2  O   UNL     1     -13.409  12.250  72.186  1.00  0.00    -0.526 OA 
ENDROOT
BRANCH   2   3
HETATM    3  C   UNL     1     -12.627  11.855  71.132  1.00  0.00    -0.288 A  
HETATM    4  C   UNL     1     -12.166  10.538  71.098  1.00  0.00    -0.391 A  
HETATM    5  N   UNL     1     -11.121  13.251  68.142  1.00  0.00    -0.247 NA 
HETATM    6  C   UNL     1     -11.233  10.164  70.126  1.00  0.00    -0.377 A  
HETATM    7  C   UNL     1     -11.394  12.344  69.082  1.00  0.00    -0.269 A  
HETATM    8  C   UNL     1     -10.824  11.066  69.104  1.00  0.00    -0.283 A  
HETATM    9  C   UNL     1     -12.267  12.719  70.090  1.00  0.00    -0.320 A  
HETATM   10  C   UNL     1      -9.877  10.811  68.088  1.00  0.00    -0.158 A  
HETATM   11  N   UNL     1      -9.610  11.723  67.131  1.00  0.00    -0.179 NA 
HETATM   12  C   UNL     1     -10.250  12.891  67.203  1.00  0.00    -0.239 A  
BRANCH   4  13
HETATM   13  O   UNL     1     -12.491   9.546  71.987  1.00  0.00    -0.371 OA 
BRANCH  13  14
HETATM   14  C   UNL     1     -13.732   8.859  71.739  1.00  0.00    -0.422 C  
BRANCH  14  15
HETATM   15  C   UNL     1     -13.424   7.362  71.729  1.00  0.00    -0.383 C  
BRANCH  15  16
HETATM   16  C   UNL     1     -12.146   6.981  70.972  1.00  0.00    -0.368 C  
BRANCH  16  17
HETATM   17  N   UNL     1     -11.271   5.999  71.632  1.00  0.00    -0.277 NA 
HETATM   18  C   UNL     1     -11.033   6.369  73.050  1.00  0.00    -0.238 C  
HETATM   19  C   UNL     1     -10.074   7.560  73.224  1.00  0.00    -0.331 C  
HETATM   20  C   UNL     1      -9.949   5.829  70.988  1.00  0.00    -0.190 C  
HETATM   21  C   UNL     1      -8.958   6.983  71.226  1.00  0.00    -0.137 C  
HETATM   22  O   UNL     1      -8.806   7.286  72.619  1.00  0.00    -0.123 OA 
ENDBRANCH  16  17
ENDBRANCH  15  16
ENDBRANCH  14  15
ENDBRANCH  13  14
ENDBRANCH   4  13
BRANCH  10  23
HETATM   23  N   UNL     1      -9.121   9.610  68.110  1.00  0.00    -0.123 NA 
HETATM   24  H   UNL     1      -8.222   9.675  68.588  1.00  0.00     0.000 HD 
BRANCH  23  25
HETATM   25  C   UNL     1      -9.422   8.339  67.570  1.00  0.00    -0.149 A  
HETATM   26 CL   UNL     1      -7.732   5.906  64.858  1.00  0.00    -0.091 Cl 
HETATM   27  C   UNL     1     -10.045   5.919  66.266  1.00  0.00    -0.046 A  
HETATM   28  C   UNL     1      -8.843   6.564  65.999  1.00  0.00    -0.143 A  
HETATM   29  C   UNL     1     -10.937   6.458  67.180  1.00  0.00    -0.476 A  
HETATM   30  F   UNL     1     -10.373   4.779  65.638  1.00  0.00    -0.218 F  
HETATM   31  C   UNL     1     -10.628   7.664  67.818  1.00  0.00    -0.265 A  
HETATM   32  C   UNL     1      -8.533   7.767  66.644  1.00  0.00    -0.129 A  
ENDBRANCH  23  25
ENDBRANCH  10  23
ENDBRANCH   2   3
TORSDOF 8
ENDMDL
MODEL       91
REMARK 921   NORMALIZED FREE ENERGY PREDICTED BY IDOCK:   -5.56 KCAL/MOL
REMARK 922        TOTAL FREE ENERGY PREDICTED BY IDOCK:   -9.79 KCAL/MOL
REMARK 923 INTER-LIGAND FREE ENERGY PREDICTED BY IDOCK:   -8.43 KCAL/MOL
REMARK 924 INTRA-LIGAND FREE ENERGY PREDICTED BY IDOCK:   -1.36 KCAL/MOL
REMARK 927      BINDING AFFINITY PREDICTED BY RF-SCORE:    0.00 PKD
ROOT
HETATM    1  C   UNL     1     -10.120  17.791  66.409  1.00  0.00    -0.357 C  
HETATM    2  O   UNL     1     -10.868  16.780  67.081  1.00  0.00    -0.236 OA 
ENDROOT
BRANCH   2   3
HETATM    3  C   UNL     1     -10.189  15.619  67.349  1.00  0.00    -0.264 A  
HETATM    4  C   UNL     1     -10.794  14.403  67.031  1.00  0.00    -0.297 A  
HETATM    5  N   UNL     1      -7.068  14.536  68.846  1.00  0.00    -0.111 NA 
HETATM    6  C   UNL     1     -10.194  13.210  67.449  1.00  0.00    -0.232 A  
HETATM    7  C   UNL     1      -8.279  14.429  68.294  1.00  0.00    -0.149 A  
HETATM    8  C   UNL     1      -8.927  13.204  68.097  1.00  0.00    -0.195 A  
HETATM    9  C   UNL     1      -8.917  15.604  67.932  1.00  0.00    -0.180 A  
HETATM   10  C   UNL     1      -8.236  12.072  68.582  1.00  0.00    -0.052 A  
HETATM   11  N   UNL     1      -7.008  12.178  69.128  1.00  0.00    -0.085 NA 
HETATM   12  C   UNL     1      -6.485  13.401  69.224  1.00  0.00    -0.111 A  
BRANCH   4  13
HETATM   13  O   UNL     1     -11.991  14.241  66.383  1.00  0.00    -0.402 OA 
BRANCH  13  14
HETATM   14  C   UNL     1     -11.914  14.009  64.964  1.00  0.00    -0.401 C  
BRANCH  14  15
HETATM   15  C   UNL     1     -12.381  12.575  64.716  1.00  0.00    -0.544 C  
BRANCH  15  16
HETATM   16  C   UNL     1     -11.504  11.781  63.740  1.00  0.00    -0.420 C  
BRANCH  16  17
HETATM   17  N   UNL     1     -10.051  11.888  63.943  1.00  0.00    -0.350 NA 
HETATM   18  C   UNL     1      -9.313  11.425  62.740  1.00  0.00    -0.285 C  
HETATM   19  C   UNL     1      -9.324   9.896  62.560  1.00  0.00    -0.232 C  
HETATM   20  C   UNL     1      -9.538  11.123  65.101  1.00  0.00    -0.234 C  
HETATM   21  C   UNL     1      -9.473   9.599  64.896  1.00  0.00    -0.220 C  
HETATM   22  O   UNL     1      -8.762   9.244  63.704  1.00  0.00    -0.210 OA 
ENDBRANCH  16  17
ENDBRANCH  15  16
ENDBRANCH  14  15
ENDBRANCH  13  14
ENDBRANCH   4  13
BRANCH  10  23
HETATM   23  N   UNL     1      -8.870  10.802  68.581  1.00  0.00    -0.146 NA 
HETATM   24  H   UNL     1      -8.815  10.293  67.698  1.00  0.00     0.000 HD 
BRANCH  23  25
HETATM   25  C   UNL     1      -9.564  10.134  69.615  1.00  0.00    -0.210 A  
HETATM   26 CL   UNL     1     -13.357  10.059  70.933  1.00  0.00    -0.380 Cl 
HETATM   27  C   UNL     1     -10.998   9.032  71.778  1.00  0.00    -0.372 A  
HETATM   28  C   UNL     1     -11.661   9.781  70.811  1.00  0.00    -0.328 A  
HETATM   29  C   UNL     1      -9.633   8.818  71.676  1.00  0.00    -0.363 A  
HETATM   30  F   UNL     1     -11.657   8.520  72.828  1.00  0.00    -0.436 F  
HETATM   31  C   UNL     1      -8.923   9.374  70.606  1.00  0.00    -0.285 A  
HETATM   32  C   UNL     1     -10.951  10.330  69.738  1.00  0.00    -0.338 A  
ENDBRANCH  23  25
ENDBRANCH  10  23
ENDBRANCH   2   3
TORSDOF 8
ENDMDL
MODEL       92
REMARK 921   NORMALIZED FREE ENERGY PREDICTED BY IDOCK:   -5.53 KCAL/MOL
REMARK 922        TOTAL FREE ENERGY PREDICTED BY IDOCK:   -9.75 KCAL/MOL
REMARK 923 INTER-LIGAND FREE ENERGY PREDICTED BY IDOCK:   -8.32 KCAL/MOL
REMARK 924 INTRA-LIGAND FREE ENERGY PREDICTED BY IDOCK:   -1.43 KCAL/MOL
REMARK 927      BINDING AFFINITY PREDICTED BY RF-SCORE:    0.00 PKD
ROOT
HETATM    1  C   UNL     1      -5.360   8.642  69.892  1.00  0.00    -0.029 C  
HETATM    2  O   UNL     1      -6.370   8.860  68.909  1.00  0.00    -0.044 OA 
ENDROOT
BRANCH   2   3
HETATM    3  C   UNL     1      -7.651   8.962  69.387  1.00  0.00    -0.081 A  
HETATM    4  C   UNL     1      -8.584   9.689  68.647  1.00  0.00    -0.120 A  
HETATM    5  N   UNL     1      -9.605   7.947  72.269  1.00  0.00    -0.178 NA 
HETATM    6  C   UNL     1      -9.845   9.945  69.198  1.00  0.00    -0.204 A  
HETATM    7  C   UNL     1      -9.326   8.559  71.116  1.00  0.00    -0.196 A  
HETATM    8  C   UNL     1     -10.234   9.390  70.449  1.00  0.00    -0.310 A  
HETATM    9  C   UNL     1      -8.060   8.369  70.587  1.00  0.00    -0.114 A  
HETATM   10  C   UNL     1     -11.463   9.595  71.113  1.00  0.00    -0.384 A  
HETATM   11  N   UNL     1     -11.750   8.968  72.272  1.00  0.00    -0.291 NA 
HETATM   12  C   UNL     1     -10.811   8.172  72.785  1.00  0.00    -0.320 A  
BRANCH   4  13
HETATM   13  O   UNL     1      -8.375  10.258  67.417  1.00  0.00    -0.117 OA 
BRANCH  13  14
HETATM   14  C   UNL     1      -8.880   9.523  66.288  1.00  0.00    -0.149 C  
BRANCH  14  15
HETATM   15  C   UNL     1      -9.566  10.530  65.365  1.00  0.00    -0.291 C  
BRANCH  15  16
HETATM   16  C   UNL     1      -9.309  11.998  65.724  1.00  0.00    -0.125 C  
BRANCH  16  17
HETATM   17  N   UNL     1     -10.448  12.733  66.296  1.00  0.00    -0.253 NA 
HETATM   18  C   UNL     1     -11.709  12.390  65.590  1.00  0.00    -0.414 C  
HETATM   19  C   UNL     1     -11.820  13.015  64.188  1.00  0.00    -0.416 C  
HETATM   20  C   UNL     1     -10.305  14.206  66.261  1.00  0.00    -0.292 C  
HETATM   21  C   UNL     1     -10.494  14.844  64.873  1.00  0.00    -0.359 C  
HETATM   22  O   UNL     1     -11.725  14.442  64.257  1.00  0.00    -0.376 OA 
ENDBRANCH  16  17
ENDBRANCH  15  16
ENDBRANCH  14  15
ENDBRANCH  13  14
ENDBRANCH   4  13
BRANCH  10  23
HETATM   23  N   UNL     1     -12.391  10.544  70.609  1.00  0.00    -0.328 NA 
HETATM   24  H   UNL     1     -13.218  10.145  70.166  1.00  0.00     0.000 HD 
BRANCH  23  25
HETATM   25  C   UNL     1     -12.344  11.957  70.628  1.00  0.00    -0.313 A  
HETATM   26 CL   UNL     1     -13.775  14.838  73.032  1.00  0.00    -0.382 Cl 
HETATM   27  C   UNL     1     -12.504  14.771  70.641  1.00  0.00    -0.345 A  
HETATM   28  C   UNL     1     -13.019  14.039  71.706  1.00  0.00    -0.353 A  
HETATM   29  C   UNL     1     -11.903  14.121  69.575  1.00  0.00    -0.373 A  
HETATM   30  F   UNL     1     -12.593  16.110  70.616  1.00  0.00    -0.380 F  
HETATM   31  C   UNL     1     -11.833  12.724  69.568  1.00  0.00    -0.379 A  
HETATM   32  C   UNL     1     -12.942  12.642  71.700  1.00  0.00    -0.400 A  
ENDBRANCH  23  25
ENDBRANCH  10  23
ENDBRANCH   2   3
TORSDOF 8
ENDMDL
MODEL       93
REMARK 921   NORMALIZED FREE ENERGY PREDICTED BY IDOCK:   -5.53 KCAL/MOL
REMARK 922        TOTAL FREE ENERGY PREDICTED BY IDOCK:   -9.74 KCAL/MOL
REMARK 923 INTER-LIGAND FREE ENERGY PREDICTED BY IDOCK:   -8.33 KCAL/MOL
REMARK 924 INTRA-LIGAND FREE ENERGY PREDICTED BY IDOCK:   -1.41 KCAL/MOL
REMARK 927      BINDING AFFINITY PREDICTED BY RF-SCORE:    0.00 PKD
ROOT
HETATM    1  C   UNL     1     -11.788  16.360  72.614  1.00  0.00    -0.448 C  
HETATM    2  O   UNL     1     -12.550  16.064  71.445  1.00  0.00    -0.443 OA 
ENDROOT
BRANCH   2   3
HETATM    3  C   UNL     1     -11.821  15.803  70.313  1.00  0.00    -0.350 A  
HETATM    4  C   UNL     1     -11.999  14.576  69.672  1.00  0.00    -0.328 A  
HETATM    5  N   UNL     1      -9.258  17.353  68.268  1.00  0.00    -0.263 NA 
HETATM    6  C   UNL     1     -11.147  14.225  68.619  1.00  0.00    -0.273 A  
HETATM    7  C   UNL     1     -10.098  16.407  68.693  1.00  0.00    -0.244 A  
HETATM    8  C   UNL     1     -10.174  15.133  68.116  1.00  0.00    -0.227 A  
HETATM    9  C   UNL     1     -10.905  16.715  69.776  1.00  0.00    -0.238 A  
HETATM   10  C   UNL     1      -9.248  14.885  67.080  1.00  0.00    -0.220 A  
HETATM   11  N   UNL     1      -8.408  15.844  66.642  1.00  0.00    -0.270 NA 
HETATM   12  C   UNL     1      -8.462  17.029  67.252  1.00  0.00    -0.194 A  
BRANCH   4  13
HETATM   13  O   UNL     1     -12.910  13.611  70.013  1.00  0.00    -0.086 OA 
BRANCH  13  14
HETATM   14  C   UNL     1     -12.503  12.698  71.049  1.00  0.00    -0.260 C  
BRANCH  14  15
HETATM   15  C   UNL     1     -12.202  11.359  70.376  1.00  0.00    -0.450 C  
BRANCH  15  16
HETATM   16  C   UNL     1     -13.146  10.219  70.776  1.00  0.00    -0.287 C  
BRANCH  16  17
HETATM   17  N   UNL     1     -12.752   9.437  71.958  1.00  0.00    -0.393 NA 
HETATM   18  C   UNL     1     -11.389   8.873  71.790  1.00  0.00    -0.361 C  
HETATM   19  C   UNL     1     -11.327   7.691  70.806  1.00  0.00    -0.281 C  
HETATM   20  C   UNL     1     -13.662   8.315  72.279  1.00  0.00    -0.219 C  
HETATM   21  C   UNL     1     -13.547   7.097  71.343  1.00  0.00    -0.275 C  
HETATM   22  O   UNL     1     -12.196   6.633  71.224  1.00  0.00    -0.356 OA 
ENDBRANCH  16  17
ENDBRANCH  15  16
ENDBRANCH  14  15
ENDBRANCH  13  14
ENDBRANCH   4  13
BRANCH  10  23
HETATM   23  N   UNL     1      -9.128  13.579  66.536  1.00  0.00    -0.436 NA 
HETATM   24  H   UNL     1      -9.251  13.520  65.525  1.00  0.00     0.000 HD 
BRANCH  23  25
HETATM   25  C   UNL     1      -8.864  12.349  67.181  1.00  0.00    -0.197 A  
HETATM   26 CL   UNL     1     -10.541   8.700  67.185  1.00  0.00    -0.352 Cl 
HETATM   27  C   UNL     1      -8.565   9.919  68.578  1.00  0.00    -0.117 A  
HETATM   28  C   UNL     1      -9.520  10.032  67.573  1.00  0.00    -0.148 A  
HETATM   29  C   UNL     1      -7.751  10.997  68.889  1.00  0.00    -0.140 A  
HETATM   30  F   UNL     1      -8.423   8.780  69.272  1.00  0.00    -0.114 F  
HETATM   31  C   UNL     1      -7.908  12.204  68.199  1.00  0.00    -0.147 A  
HETATM   32  C   UNL     1      -9.671  11.238  66.880  1.00  0.00    -0.215 A  
ENDBRANCH  23  25
ENDBRANCH  10  23
ENDBRANCH   2   3
TORSDOF 8
ENDMDL
MODEL       94
REMARK 921   NORMALIZED FREE ENERGY PREDICTED BY IDOCK:   -5.51 KCAL/MOL
REMARK 922        TOTAL FREE ENERGY PREDICTED BY IDOCK:   -9.72 KCAL/MOL
REMARK 923 INTER-LIGAND FREE ENERGY PREDICTED BY IDOCK:   -8.37 KCAL/MOL
REMARK 924 INTRA-LIGAND FREE ENERGY PREDICTED BY IDOCK:   -1.35 KCAL/MOL
REMARK 927      BINDING AFFINITY PREDICTED BY RF-SCORE:    0.00 PKD
ROOT
HETATM    1  C   UNL     1     -12.518   6.343  71.975  1.00  0.00    -0.160 C  
HETATM    2  O   UNL     1     -11.398   7.226  72.010  1.00  0.00    -0.246 OA 
ENDROOT
BRANCH   2   3
HETATM    3  C   UNL     1     -11.569   8.426  71.370  1.00  0.00    -0.284 A  
HETATM    4  C   UNL     1     -10.992   8.600  70.111  1.00  0.00    -0.226 A  
HETATM    5  N   UNL     1     -13.096  11.665  71.947  1.00  0.00    -0.455 NA 
HETATM    6  C   UNL     1     -11.011   9.867  69.518  1.00  0.00    -0.274 A  
HETATM    7  C   UNL     1     -12.379  10.729  71.322  1.00  0.00    -0.365 A  
HETATM    8  C   UNL     1     -11.700  10.958  70.120  1.00  0.00    -0.433 A  
HETATM    9  C   UNL     1     -12.295   9.485  71.927  1.00  0.00    -0.450 A  
HETATM   10  C   UNL     1     -11.769  12.280  69.631  1.00  0.00    -0.316 A  
HETATM   11  N   UNL     1     -12.504  13.223  70.255  1.00  0.00    -0.235 NA 
HETATM   12  C   UNL     1     -13.134  12.866  71.375  1.00  0.00    -0.242 A  
BRANCH   4  13
HETATM   13  O   UNL     1     -10.326   7.644  69.388  1.00  0.00    -0.205 OA 
BRANCH  13  14
HETATM   14  C   UNL     1     -11.148   6.756  68.609  1.00  0.00    -0.153 C  
BRANCH  14  15
HETATM   15  C   UNL     1     -10.808   7.002  67.139  1.00  0.00    -0.427 C  
BRANCH  15  16
HETATM   16  C   UNL     1      -9.308   7.136  66.848  1.00  0.00    -0.155 C  
BRANCH  16  17
HETATM   17  N   UNL     1      -8.791   6.330  65.731  1.00  0.00    -0.143 NA 
HETATM   18  C   UNL     1      -8.585   4.920  66.146  1.00  0.00    -0.116 C  
HETATM   19  C   UNL     1      -7.359   4.717  67.054  1.00  0.00    -0.081 C  
HETATM   20  C   UNL     1      -7.514   6.819  65.165  1.00  0.00    -0.087 C  
HETATM   21  C   UNL     1      -6.272   6.547  66.034  1.00  0.00    -0.038 C  
HETATM   22  O   UNL     1      -6.164   5.167  66.405  1.00  0.00    -0.033 OA 
ENDBRANCH  16  17
ENDBRANCH  15  16
ENDBRANCH  14  15
ENDBRANCH  13  14
ENDBRANCH   4  13
BRANCH  10  23
HETATM   23  N   UNL     1     -10.988  12.663  68.510  1.00  0.00    -0.249 NA 
HETATM   24  H   UNL     1     -10.095  13.100  68.735  1.00  0.00     0.000 HD 
BRANCH  23  25
HETATM   25  C   UNL     1     -11.258  12.529  67.128  1.00  0.00    -0.300 A  
HETATM   26 CL   UNL     1      -9.740  10.356  64.111  1.00  0.00    -0.377 Cl 
HETATM   27  C   UNL     1     -11.560  12.349  64.331  1.00  0.00    -0.354 A  
HETATM   28  C   UNL     1     -10.674  11.505  64.992  1.00  0.00    -0.290 A  
HETATM   29  C   UNL     1     -12.303  13.275  65.046  1.00  0.00    -0.499 A  
HETATM   30  F   UNL     1     -11.700  12.298  62.998  1.00  0.00    -0.434 F  
HETATM   31  C   UNL     1     -12.144  13.367  66.433  1.00  0.00    -0.464 A  
HETATM   32  C   UNL     1     -10.521  11.594  66.380  1.00  0.00    -0.283 A  
ENDBRANCH  23  25
ENDBRANCH  10  23
ENDBRANCH   2   3
TORSDOF 8
ENDMDL
MODEL       95
REMARK 921   NORMALIZED FREE ENERGY PREDICTED BY IDOCK:   -5.49 KCAL/MOL
REMARK 922        TOTAL FREE ENERGY PREDICTED BY IDOCK:   -9.69 KCAL/MOL
REMARK 923 INTER-LIGAND FREE ENERGY PREDICTED BY IDOCK:   -7.64 KCAL/MOL
REMARK 924 INTRA-LIGAND FREE ENERGY PREDICTED BY IDOCK:   -2.05 KCAL/MOL
REMARK 927      BINDING AFFINITY PREDICTED BY RF-SCORE:    0.00 PKD
ROOT
HETATM    1  C   UNL     1      -9.720   8.785  69.724  1.00  0.00    -0.177 C  
HETATM    2  O   UNL     1      -9.283   9.204  68.433  1.00  0.00    -0.133 OA 
ENDROOT
BRANCH   2   3
HETATM    3  C   UNL     1      -8.728  10.456  68.372  1.00  0.00    -0.129 A  
HETATM    4  C   UNL     1      -9.303  11.400  67.520  1.00  0.00    -0.164 A  
HETATM    5  N   UNL     1      -5.926  12.299  69.752  1.00  0.00    -0.124 NA 
HETATM    6  C   UNL     1      -8.654  12.623  67.317  1.00  0.00    -0.196 A  
HETATM    7  C   UNL     1      -6.990  12.057  68.984  1.00  0.00    -0.094 A  
HETATM    8  C   UNL     1      -7.479  12.969  68.041  1.00  0.00    -0.134 A  
HETATM    9  C   UNL     1      -7.607  10.825  69.125  1.00  0.00    -0.133 A  
HETATM   10  C   UNL     1      -6.728  14.157  67.906  1.00  0.00    -0.167 A  
HETATM   11  N   UNL     1      -5.661  14.407  68.691  1.00  0.00    -0.088 NA 
HETATM   12  C   UNL     1      -5.320  13.471  69.577  1.00  0.00    -0.085 A  
BRANCH   4  13
HETATM   13  O   UNL     1     -10.445  11.232  66.781  1.00  0.00    -0.228 OA 
BRANCH  13  14
HETATM   14  C   UNL     1     -11.665  11.690  67.394  1.00  0.00    -0.201 C  
BRANCH  14  15
HETATM   15  C   UNL     1     -11.943  13.092  66.852  1.00  0.00    -0.415 C  
BRANCH  15  16
HETATM   16  C   UNL     1     -12.093  14.172  67.930  1.00  0.00    -0.274 C  
BRANCH  16  17
HETATM   17  N   UNL     1     -11.336  13.955  69.173  1.00  0.00    -0.272 NA 
HETATM   18  C   UNL     1     -12.252  13.813  70.333  1.00  0.00    -0.363 C  
HETATM   19  C   UNL     1     -12.893  15.139  70.780  1.00  0.00    -0.416 C  
HETATM   20  C   UNL     1     -10.373  15.031  69.496  1.00  0.00    -0.220 C  
HETATM   21  C   UNL     1     -11.005  16.334  70.020  1.00  0.00    -0.355 C  
HETATM   22  O   UNL     1     -11.888  16.099  71.124  1.00  0.00    -0.422 OA 
ENDBRANCH  16  17
ENDBRANCH  15  16
ENDBRANCH  14  15
ENDBRANCH  13  14
ENDBRANCH   4  13
BRANCH  10  23
HETATM   23  N   UNL     1      -7.039  15.077  66.871  1.00  0.00    -0.291 NA 
HETATM   24  H   UNL     1      -6.535  14.929  65.997  1.00  0.00     0.000 HD 
BRANCH  23  25
HETATM   25  C   UNL     1      -7.939  16.167  66.867  1.00  0.00    -0.244 A  
HETATM   26 CL   UNL     1      -8.303  19.589  68.938  1.00  0.00    -0.366 Cl 
HETATM   27  C   UNL     1      -9.795  18.276  67.098  1.00  0.00    -0.324 A  
HETATM   28  C   UNL     1      -8.624  18.294  67.848  1.00  0.00    -0.258 A  
HETATM   29  C   UNL     1     -10.049  17.228  66.229  1.00  0.00    -0.323 A  
HETATM   30  F   UNL     1     -10.703  19.257  67.212  1.00  0.00    -0.465 F  
HETATM   31  C   UNL     1      -9.130  16.179  66.123  1.00  0.00    -0.382 A  
HETATM   32  C   UNL     1      -7.703  17.246  67.736  1.00  0.00    -0.196 A  
ENDBRANCH  23  25
ENDBRANCH  10  23
ENDBRANCH   2   3
TORSDOF 8
ENDMDL
MODEL       96
REMARK 921   NORMALIZED FREE ENERGY PREDICTED BY IDOCK:   -5.49 KCAL/MOL
REMARK 922        TOTAL FREE ENERGY PREDICTED BY IDOCK:   -9.69 KCAL/MOL
REMARK 923 INTER-LIGAND FREE ENERGY PREDICTED BY IDOCK:   -8.77 KCAL/MOL
REMARK 924 INTRA-LIGAND FREE ENERGY PREDICTED BY IDOCK:   -0.92 KCAL/MOL
REMARK 927      BINDING AFFINITY PREDICTED BY RF-SCORE:    0.00 PKD
ROOT
HETATM    1  C   UNL     1     -12.369  14.002  65.097  1.00  0.00    -0.453 C  
HETATM    2  O   UNL     1     -12.531  13.169  66.244  1.00  0.00    -0.386 OA 
ENDROOT
BRANCH   2   3
HETATM    3  C   UNL     1     -11.670  12.106  66.331  1.00  0.00    -0.324 A  
HETATM    4  C   UNL     1     -11.604  11.396  67.531  1.00  0.00    -0.219 A  
HETATM    5  N   UNL     1      -9.185  10.399  64.314  1.00  0.00    -0.232 NA 
HETATM    6  C   UNL     1     -10.616  10.419  67.695  1.00  0.00    -0.304 A  
HETATM    7  C   UNL     1      -9.912  10.695  65.394  1.00  0.00    -0.281 A  
HETATM    8  C   UNL     1      -9.746  10.058  66.629  1.00  0.00    -0.246 A  
HETATM    9  C   UNL     1     -10.852  11.705  65.269  1.00  0.00    -0.340 A  
HETATM   10  C   UNL     1      -8.701   9.110  66.682  1.00  0.00    -0.127 A  
HETATM   11  N   UNL     1      -7.975   8.801  65.588  1.00  0.00    -0.100 NA 
HETATM   12  C   UNL     1      -8.259   9.455  64.461  1.00  0.00    -0.147 A  
BRANCH   4  13
HETATM   13  O   UNL     1     -12.391  11.601  68.635  1.00  0.00    -0.394 OA 
BRANCH  13  14
HETATM   14  C   UNL     1     -11.719  11.544  69.907  1.00  0.00    -0.343 C  
BRANCH  14  15
HETATM   15  C   UNL     1     -12.801  11.464  70.984  1.00  0.00    -0.381 C  
BRANCH  15  16
HETATM   16  C   UNL     1     -12.990  12.753  71.792  1.00  0.00    -0.314 C  
BRANCH  16  17
HETATM   17  N   UNL     1     -12.980  14.006  71.023  1.00  0.00    -0.326 NA 
HETATM   18  C   UNL     1     -11.709  14.746  71.229  1.00  0.00    -0.303 C  
HETATM   19  C   UNL     1     -11.604  15.420  72.609  1.00  0.00    -0.401 C  
HETATM   20  C   UNL     1     -14.090  14.931  71.347  1.00  0.00    -0.467 C  
HETATM   21  C   UNL     1     -13.950  15.668  72.692  1.00  0.00    -0.525 C  
HETATM   22  O   UNL     1     -12.687  16.334  72.813  1.00  0.00    -0.420 OA 
ENDBRANCH  16  17
ENDBRANCH  15  16
ENDBRANCH  14  15
ENDBRANCH  13  14
ENDBRANCH   4  13
BRANCH  10  23
HETATM   23  N   UNL     1      -8.340   8.522  67.922  1.00  0.00    -0.125 NA 
HETATM   24  H   UNL     1      -7.395   8.736  68.242  1.00  0.00     0.000 HD 
BRANCH  23  25
HETATM   25  C   UNL     1      -9.089   7.687  68.782  1.00  0.00    -0.139 A  
HETATM   26 CL   UNL     1      -8.775   6.497  72.606  1.00  0.00    -0.125 Cl 
HETATM   27  C   UNL     1     -10.375   5.870  70.512  1.00  0.00    -0.235 A  
HETATM   28  C   UNL     1      -9.320   6.647  70.978  1.00  0.00    -0.160 A  
HETATM   29  C   UNL     1     -10.803   5.993  69.200  1.00  0.00    -0.422 A  
HETATM   30  F   UNL     1     -10.985   4.982  71.312  1.00  0.00    -0.212 F  
HETATM   31  C   UNL     1     -10.157   6.889  68.342  1.00  0.00    -0.177 A  
HETATM   32  C   UNL     1      -8.679   7.548  70.120  1.00  0.00    -0.142 A  
ENDBRANCH  23  25
ENDBRANCH  10  23
ENDBRANCH   2   3
TORSDOF 8
ENDMDL
MODEL       97
REMARK 921   NORMALIZED FREE ENERGY PREDICTED BY IDOCK:   -5.47 KCAL/MOL
REMARK 922        TOTAL FREE ENERGY PREDICTED BY IDOCK:   -9.66 KCAL/MOL
REMARK 923 INTER-LIGAND FREE ENERGY PREDICTED BY IDOCK:   -8.02 KCAL/MOL
REMARK 924 INTRA-LIGAND FREE ENERGY PREDICTED BY IDOCK:   -1.64 KCAL/MOL
REMARK 927      BINDING AFFINITY PREDICTED BY RF-SCORE:    0.00 PKD
ROOT
HETATM    1  C   UNL     1      -8.189   7.912  74.225  1.00  0.00    -0.251 C  
HETATM    2  O   UNL     1      -7.999   8.056  72.818  1.00  0.00    -0.125 OA 
ENDROOT
BRANCH   2   3
HETATM    3  C   UNL     1      -9.090   8.495  72.114  1.00  0.00    -0.249 A  
HETATM    4  C   UNL     1      -8.890   9.041  70.845  1.00  0.00    -0.240 A  
HETATM    5  N   UNL     1     -12.678   8.835  72.520  1.00  0.00    -0.372 NA 
HETATM    6  C   UNL     1      -9.964   9.647  70.184  1.00  0.00    -0.309 A  
HETATM    7  C   UNL     1     -11.480   8.960  71.944  1.00  0.00    -0.372 A  
HETATM    8  C   UNL     1     -11.279   9.624  70.728  1.00  0.00    -0.403 A  
HETATM    9  C   UNL     1     -10.394   8.423  72.616  1.00  0.00    -0.314 A  
HETATM   10  C   UNL     1     -12.431  10.217  70.168  1.00  0.00    -0.110 A  
HETATM   11  N   UNL     1     -13.643  10.081  70.743  1.00  0.00    -0.102 NA 
HETATM   12  C   UNL     1     -13.705   9.392  71.882  1.00  0.00    -0.368 A  
BRANCH   4  13
HETATM   13  O   UNL     1      -7.697   9.109  70.173  1.00  0.00    -0.079 OA 
BRANCH  13  14
HETATM   14  C   UNL     1      -7.289  10.421  69.745  1.00  0.00    -0.154 C  
BRANCH  14  15
HETATM   15  C   UNL     1      -6.843  10.301  68.288  1.00  0.00    -0.065 C  
BRANCH  15  16
HETATM   16  C   UNL     1      -7.830  10.886  67.271  1.00  0.00    -0.116 C  
BRANCH  16  17
HETATM   17  N   UNL     1      -8.119  10.051  66.095  1.00  0.00    -0.119 NA 
HETATM   18  C   UNL     1      -9.502  10.283  65.606  1.00  0.00    -0.221 C  
HETATM   19  C   UNL     1     -10.586   9.656  66.502  1.00  0.00    -0.072 C  
HETATM   20  C   UNL     1      -7.967   8.597  66.326  1.00  0.00    -0.102 C  
HETATM   21  C   UNL     1      -9.092   7.950  67.156  1.00  0.00    -0.137 C  
HETATM   22  O   UNL     1     -10.391   8.243  66.625  1.00  0.00    -0.308 OA 
ENDBRANCH  16  17
ENDBRANCH  15  16
ENDBRANCH  14  15
ENDBRANCH  13  14
ENDBRANCH   4  13
BRANCH  10  23
HETATM   23  N   UNL     1     -12.313  11.049  69.024  1.00  0.00    -0.669 NA 
HETATM   24  H   UNL     1     -12.497  10.587  68.133  1.00  0.00     0.000 HD 
BRANCH  23  25
HETATM   25  C   UNL     1     -11.981  12.420  68.929  1.00  0.00    -0.241 A  
HETATM   26 CL   UNL     1     -12.397  15.636  71.299  1.00  0.00    -0.442 Cl 
HETATM   27  C   UNL     1     -11.568  15.203  68.757  1.00  0.00    -0.349 A  
HETATM   28  C   UNL     1     -12.041  14.641  69.938  1.00  0.00    -0.335 A  
HETATM   29  C   UNL     1     -11.290  14.397  67.665  1.00  0.00    -0.348 A  
HETATM   30  F   UNL     1     -11.389  16.528  68.646  1.00  0.00    -0.346 F  
HETATM   31  C   UNL     1     -11.505  13.017  67.752  1.00  0.00    -0.359 A  
HETATM   32  C   UNL     1     -12.248  13.260  70.025  1.00  0.00    -0.345 A  
ENDBRANCH  23  25
ENDBRANCH  10  23
ENDBRANCH   2   3
TORSDOF 8
ENDMDL
MODEL       98
REMARK 921   NORMALIZED FREE ENERGY PREDICTED BY IDOCK:   -5.46 KCAL/MOL
REMARK 922        TOTAL FREE ENERGY PREDICTED BY IDOCK:   -9.65 KCAL/MOL
REMARK 923 INTER-LIGAND FREE ENERGY PREDICTED BY IDOCK:   -8.50 KCAL/MOL
REMARK 924 INTRA-LIGAND FREE ENERGY PREDICTED BY IDOCK:   -1.15 KCAL/MOL
REMARK 927      BINDING AFFINITY PREDICTED BY RF-SCORE:    0.00 PKD
ROOT
HETATM    1  C   UNL     1     -12.254  12.387  63.553  1.00  0.00    -0.563 C  
HETATM    2  O   UNL     1     -11.067  11.879  64.158  1.00  0.00    -0.326 OA 
ENDROOT
BRANCH   2   3
HETATM    3  C   UNL     1     -11.047  11.896  65.529  1.00  0.00    -0.304 A  
HETATM    4  C   UNL     1     -10.424  10.843  66.201  1.00  0.00    -0.229 A  
HETATM    5  N   UNL     1     -12.274  13.917  68.279  1.00  0.00    -0.266 NA 
HETATM    6  C   UNL     1     -10.539  10.755  67.592  1.00  0.00    -0.271 A  
HETATM    7  C   UNL     1     -11.694  12.883  67.666  1.00  0.00    -0.370 A  
HETATM    8  C   UNL     1     -11.186  11.772  68.349  1.00  0.00    -0.307 A  
HETATM    9  C   UNL     1     -11.628  12.922  66.282  1.00  0.00    -0.424 A  
HETATM   10  C   UNL     1     -11.383  11.782  69.747  1.00  0.00    -0.170 A  
HETATM   11  N   UNL     1     -11.958  12.832  70.368  1.00  0.00    -0.307 NA 
HETATM   12  C   UNL     1     -12.366  13.846  69.605  1.00  0.00    -0.249 A  
BRANCH   4  13
HETATM   13  O   UNL     1      -9.737   9.808  65.620  1.00  0.00    -0.251 OA 
BRANCH  13  14
HETATM   14  C   UNL     1      -9.741   8.564  66.344  1.00  0.00    -0.258 C  
BRANCH  14  15
HETATM   15  C   UNL     1      -8.285   8.125  66.495  1.00  0.00    -0.107 C  
BRANCH  15  16
HETATM   16  C   UNL     1      -8.102   6.706  67.047  1.00  0.00    -0.113 C  
BRANCH  16  17
HETATM   17  N   UNL     1      -7.595   5.703  66.098  1.00  0.00    -0.089 NA 
HETATM   18  C   UNL     1      -8.666   5.267  65.166  1.00  0.00    -0.146 C  
HETATM   19  C   UNL     1      -9.710   4.341  65.815  1.00  0.00    -0.207 C  
HETATM   20  C   UNL     1      -7.037   4.489  66.733  1.00  0.00    -0.074 C  
HETATM   21  C   UNL     1      -8.083   3.520  67.315  1.00  0.00    -0.082 C  
HETATM   22  O   UNL     1      -9.087   3.170  66.354  1.00  0.00    -0.146 OA 
ENDBRANCH  16  17
ENDBRANCH  15  16
ENDBRANCH  14  15
ENDBRANCH  13  14
ENDBRANCH   4  13
BRANCH  10  23
HETATM   23  N   UNL     1     -11.053  10.637  70.517  1.00  0.00    -0.441 NA 
HETATM   24  H   UNL     1     -10.066  10.545  70.753  1.00  0.00     0.000 HD 
BRANCH  23  25
HETATM   25  C   UNL     1     -11.885   9.603  71.007  1.00  0.00    -0.347 A  
HETATM   26 CL   UNL     1     -11.383   5.734  71.960  1.00  0.00    -0.316 Cl 
HETATM   27  C   UNL     1     -13.496   7.418  71.765  1.00  0.00    -0.313 A  
HETATM   28  C   UNL     1     -12.118   7.262  71.655  1.00  0.00    -0.325 A  
HETATM   29  C   UNL     1     -14.080   8.648  71.512  1.00  0.00    -0.409 A  
HETATM   30  F   UNL     1     -14.283   6.384  72.100  1.00  0.00    -0.368 F  
HETATM   31  C   UNL     1     -13.278   9.728  71.127  1.00  0.00    -0.404 A  
HETATM   32  C   UNL     1     -11.317   8.346  71.276  1.00  0.00    -0.314 A  
ENDBRANCH  23  25
ENDBRANCH  10  23
ENDBRANCH   2   3
TORSDOF 8
ENDMDL
MODEL       99
REMARK 921   NORMALIZED FREE ENERGY PREDICTED BY IDOCK:   -5.46 KCAL/MOL
REMARK 922        TOTAL FREE ENERGY PREDICTED BY IDOCK:   -9.65 KCAL/MOL
REMARK 923 INTER-LIGAND FREE ENERGY PREDICTED BY IDOCK:   -8.47 KCAL/MOL
REMARK 924 INTRA-LIGAND FREE ENERGY PREDICTED BY IDOCK:   -1.18 KCAL/MOL
REMARK 927      BINDING AFFINITY PREDICTED BY RF-SCORE:    0.00 PKD
ROOT
HETATM    1  C   UNL     1      -8.086   5.551  66.907  1.00  0.00    -0.101 C  
HETATM    2  O   UNL     1      -7.769   6.868  67.353  1.00  0.00    -0.106 OA 
ENDROOT
BRANCH   2   3
HETATM    3  C   UNL     1      -8.779   7.535  67.998  1.00  0.00    -0.121 A  
HETATM    4  C   UNL     1      -9.584   8.403  67.259  1.00  0.00    -0.165 A  
HETATM    5  N   UNL     1     -10.142   7.907  71.339  1.00  0.00    -0.175 NA 
HETATM    6  C   UNL     1     -10.506   9.216  67.928  1.00  0.00    -0.293 A  
HETATM    7  C   UNL     1      -9.988   8.134  70.032  1.00  0.00    -0.192 A  
HETATM    8  C   UNL     1     -10.717   9.101  69.330  1.00  0.00    -0.210 A  
HETATM    9  C   UNL     1      -9.033   7.383  69.366  1.00  0.00    -0.139 A  
HETATM   10  C   UNL     1     -11.598   9.878  70.114  1.00  0.00    -0.218 A  
HETATM   11  N   UNL     1     -11.763   9.640  71.431  1.00  0.00    -0.380 NA 
HETATM   12  C   UNL     1     -11.033   8.664  71.973  1.00  0.00    -0.362 A  
BRANCH   4  13
HETATM   13  O   UNL     1      -9.527   8.602  65.904  1.00  0.00    -0.223 OA 
BRANCH  13  14
HETATM   14  C   UNL     1      -8.901   9.825  65.473  1.00  0.00    -0.163 C  
BRANCH  14  15
HETATM   15  C   UNL     1      -9.759  10.396  64.344  1.00  0.00    -0.396 C  
BRANCH  15  16
HETATM   16  C   UNL     1      -9.998  11.908  64.431  1.00  0.00    -0.234 C  
BRANCH  16  17
HETATM   17  N   UNL     1     -11.197  12.332  65.171  1.00  0.00    -0.315 NA 
HETATM   18  C   UNL     1     -12.423  12.122  64.359  1.00  0.00    -0.324 C  
HETATM   19  C   UNL     1     -12.588  13.140  63.216  1.00  0.00    -0.005 C  
HETATM   20  C   UNL     1     -11.183  13.749  65.596  1.00  0.00    -0.302 C  
HETATM   21  C   UNL     1     -11.427  14.769  64.468  1.00  0.00    -0.329 C  
HETATM   22  O   UNL     1     -12.617  14.478  63.726  1.00  0.00    -0.825 OA 
ENDBRANCH  16  17
ENDBRANCH  15  16
ENDBRANCH  14  15
ENDBRANCH  13  14
ENDBRANCH   4  13
BRANCH  10  23
HETATM   23  N   UNL     1     -12.266  10.990  69.537  1.00  0.00    -0.381 NA 
HETATM   24  H   UNL     1     -12.954  10.756  68.822  1.00  0.00     0.000 HD 
BRANCH  23  25
HETATM   25  C   UNL     1     -12.123  12.371  69.803  1.00  0.00    -0.223 A  
HETATM   26 CL   UNL     1     -10.048  15.399  68.173  1.00  0.00    -0.221 Cl 
HETATM   27  C   UNL     1     -11.589  15.079  70.377  1.00  0.00    -0.287 A  
HETATM   28  C   UNL     1     -11.054  14.490  69.236  1.00  0.00    -0.270 A  
HETATM   29  C   UNL     1     -12.393  14.339  71.230  1.00  0.00    -0.439 A  
HETATM   30  F   UNL     1     -11.328  16.359  70.682  1.00  0.00    -0.368 F  
HETATM   31  C   UNL     1     -12.648  12.993  70.946  1.00  0.00    -0.364 A  
HETATM   32  C   UNL     1     -11.317  13.146  68.951  1.00  0.00    -0.335 A  
ENDBRANCH  23  25
ENDBRANCH  10  23
ENDBRANCH   2   3
TORSDOF 8
ENDMDL
MODEL      100
REMARK 921   NORMALIZED FREE ENERGY PREDICTED BY IDOCK:   -5.46 KCAL/MOL
REMARK 922        TOTAL FREE ENERGY PREDICTED BY IDOCK:   -9.64 KCAL/MOL
REMARK 923 INTER-LIGAND FREE ENERGY PREDICTED BY IDOCK:   -8.25 KCAL/MOL
REMARK 924 INTRA-LIGAND FREE ENERGY PREDICTED BY IDOCK:   -1.40 KCAL/MOL
REMARK 927      BINDING AFFINITY PREDICTED BY RF-SCORE:    0.00 PKD
ROOT
HETATM    1  C   UNL     1      -5.460  16.617  68.488  1.00  0.00    -0.117 C  
HETATM    2  O   UNL     1      -6.325  16.000  67.537  1.00  0.00    -0.145 OA 
ENDROOT
BRANCH   2   3
HETATM    3  C   UNL     1      -6.715  14.720  67.833  1.00  0.00    -0.163 A  
HETATM    4  C   UNL     1      -7.941  14.265  67.344  1.00  0.00    -0.192 A  
HETATM    5  N   UNL     1      -5.556  11.854  69.731  1.00  0.00    -0.085 NA 
HETATM    6  C   UNL     1      -8.432  13.027  67.774  1.00  0.00    -0.188 A  
HETATM    7  C   UNL     1      -6.382  12.595  68.988  1.00  0.00    -0.092 A  
HETATM    8  C   UNL     1      -7.662  12.174  68.612  1.00  0.00    -0.089 A  
HETATM    9  C   UNL     1      -5.938  13.851  68.608  1.00  0.00    -0.088 A  
HETATM   10  C   UNL     1      -8.059  10.920  69.126  1.00  0.00    -0.100 A  
HETATM   11  N   UNL     1      -7.221  10.165  69.865  1.00  0.00    -0.139 NA 
HETATM   12  C   UNL     1      -6.012  10.667  70.122  1.00  0.00    -0.098 A  
BRANCH   4  13
HETATM   13  O   UNL     1      -8.781  14.951  66.506  1.00  0.00    -0.254 OA 
BRANCH  13  14
HETATM   14  C   UNL     1     -10.023  15.394  67.083  1.00  0.00    -0.234 C  
BRANCH  14  15
HETATM   15  C   UNL     1     -11.032  15.515  65.941  1.00  0.00    -0.264 C  
BRANCH  15  16
HETATM   16  C   UNL     1     -10.822  14.516  64.797  1.00  0.00    -0.393 C  
BRANCH  16  17
HETATM   17  N   UNL     1     -11.869  13.496  64.628  1.00  0.00    -0.376 NA 
HETATM   18  C   UNL     1     -11.808  12.488  65.717  1.00  0.00    -0.437 C  
HETATM   19  C   UNL     1     -10.628  11.510  65.587  1.00  0.00    -0.274 C  
HETATM   20  C   UNL     1     -11.808  12.766  63.342  1.00  0.00    -0.518 C  
HETATM   21  C   UNL     1     -10.676  11.728  63.237  1.00  0.00    -0.346 C  
HETATM   22  O   UNL     1     -10.681  10.811  64.338  1.00  0.00    -0.301 OA 
ENDBRANCH  16  17
ENDBRANCH  15  16
ENDBRANCH  14  15
ENDBRANCH  13  14
ENDBRANCH   4  13
BRANCH  10  23
HETATM   23  N   UNL     1      -9.392  10.469  68.942  1.00  0.00    -0.179 NA 
HETATM   24  H   UNL     1      -9.628  10.198  67.987  1.00  0.00     0.000 HD 
BRANCH  23  25
HETATM   25  C   UNL     1     -10.443  10.337  69.879  1.00  0.00    -0.256 A  
HETATM   26 CL   UNL     1     -11.328   7.779  72.846  1.00  0.00    -0.444 Cl 
HETATM   27  C   UNL     1     -12.590   9.850  71.639  1.00  0.00    -0.424 A  
HETATM   28  C   UNL     1     -11.443   9.066  71.705  1.00  0.00    -0.372 A  
HETATM   29  C   UNL     1     -12.677  10.878  70.715  1.00  0.00    -0.431 A  
HETATM   30  F   UNL     1     -13.633   9.619  72.451  1.00  0.00    -0.461 F  
HETATM   31  C   UNL     1     -11.613  11.112  69.837  1.00  0.00    -0.416 A  
HETATM   32  C   UNL     1     -10.377   9.305  70.831  1.00  0.00    -0.367 A  
ENDBRANCH  23  25
ENDBRANCH  10  23
ENDBRANCH   2   3
TORSDOF 8
ENDMDL
MODEL      101
REMARK 921   NORMALIZED FREE ENERGY PREDICTED BY IDOCK:   -5.45 KCAL/MOL
REMARK 922        TOTAL FREE ENERGY PREDICTED BY IDOCK:   -9.63 KCAL/MOL
REMARK 923 INTER-LIGAND FREE ENERGY PREDICTED BY IDOCK:   -8.34 KCAL/MOL
REMARK 924 INTRA-LIGAND FREE ENERGY PREDICTED BY IDOCK:   -1.29 KCAL/MOL
REMARK 927      BINDING AFFINITY PREDICTED BY RF-SCORE:    0.00 PKD
ROOT
HETATM    1  C   UNL     1     -13.192  12.027  71.904  1.00  0.00    -0.364 C  
HETATM    2  O   UNL     1     -13.197  10.844  71.107  1.00  0.00    -0.302 OA 
ENDROOT
BRANCH   2   3
HETATM    3  C   UNL     1     -12.035  10.116  71.118  1.00  0.00    -0.386 A  
HETATM    4  C   UNL     1     -11.071  10.381  70.145  1.00  0.00    -0.314 A  
HETATM    5  N   UNL     1     -10.508   7.392  72.964  1.00  0.00    -0.288 NA 
HETATM    6  C   UNL     1      -9.959   9.539  70.037  1.00  0.00    -0.274 A  
HETATM    7  C   UNL     1     -10.649   8.316  72.010  1.00  0.00    -0.296 A  
HETATM    8  C   UNL     1      -9.733   8.484  70.965  1.00  0.00    -0.243 A  
HETATM    9  C   UNL     1     -11.778   9.117  72.064  1.00  0.00    -0.384 A  
HETATM   10  C   UNL     1      -8.666   7.561  70.944  1.00  0.00    -0.142 A  
HETATM   11  N   UNL     1      -8.517   6.635  71.914  1.00  0.00    -0.114 NA 
HETATM   12  C   UNL     1      -9.440   6.604  72.876  1.00  0.00    -0.138 A  
BRANCH   4  13
HETATM   13  O   UNL     1     -11.126  11.376  69.203  1.00  0.00    -0.228 OA 
BRANCH  13  14
HETATM   14  C   UNL     1     -11.484  10.964  67.871  1.00  0.00    -0.266 C  
BRANCH  14  15
HETATM   15  C   UNL     1     -10.453  11.571  66.920  1.00  0.00    -0.270 C  
BRANCH  15  16
HETATM   16  C   UNL     1     -10.770  13.001  66.467  1.00  0.00    -0.278 C  
BRANCH  16  17
HETATM   17  N   UNL     1     -10.298  13.374  65.124  1.00  0.00    -0.332 NA 
HETATM   18  C   UNL     1     -10.828  14.703  64.727  1.00  0.00    -0.385 C  
HETATM   19  C   UNL     1     -12.322  14.687  64.357  1.00  0.00    -0.398 C  
HETATM   20  C   UNL     1     -10.663  12.414  64.059  1.00  0.00    -0.404 C  
HETATM   21  C   UNL     1     -12.141  12.449  63.631  1.00  0.00    -0.556 C  
HETATM   22  O   UNL     1     -12.572  13.772  63.285  1.00  0.00    -0.830 OA 
ENDBRANCH  16  17
ENDBRANCH  15  16
ENDBRANCH  14  15
ENDBRANCH  13  14
ENDBRANCH   4  13
BRANCH  10  23
HETATM   23  N   UNL     1      -7.771   7.537  69.842  1.00  0.00    -0.096 NA 
HETATM   24  H   UNL     1      -6.867   7.979  70.011  1.00  0.00     0.000 HD 
BRANCH  23  25
HETATM   25  C   UNL     1      -7.941   6.995  68.548  1.00  0.00    -0.123 A  
HETATM   26 CL   UNL     1      -8.375   8.498  64.849  1.00  0.00    -0.168 Cl 
HETATM   27  C   UNL     1      -8.507   6.032  65.960  1.00  0.00    -0.139 A  
HETATM   28  C   UNL     1      -8.286   7.390  66.165  1.00  0.00    -0.139 A  
HETATM   29  C   UNL     1      -8.440   5.147  67.024  1.00  0.00    -0.106 A  
HETATM   30  F   UNL     1      -8.803   5.556  64.741  1.00  0.00    -0.151 F  
HETATM   31  C   UNL     1      -8.168   5.630  68.309  1.00  0.00    -0.103 A  
HETATM   32  C   UNL     1      -8.007   7.870  67.449  1.00  0.00    -0.122 A  
ENDBRANCH  23  25
ENDBRANCH  10  23
ENDBRANCH   2   3
TORSDOF 8
ENDMDL
MODEL      102
REMARK 921   NORMALIZED FREE ENERGY PREDICTED BY IDOCK:   -5.42 KCAL/MOL
REMARK 922        TOTAL FREE ENERGY PREDICTED BY IDOCK:   -9.59 KCAL/MOL
REMARK 923 INTER-LIGAND FREE ENERGY PREDICTED BY IDOCK:   -8.04 KCAL/MOL
REMARK 924 INTRA-LIGAND FREE ENERGY PREDICTED BY IDOCK:   -1.55 KCAL/MOL
REMARK 927      BINDING AFFINITY PREDICTED BY RF-SCORE:    0.00 PKD
ROOT
HETATM    1  C   UNL     1      -5.247  16.521  68.095  1.00  0.00    -0.109 C  
HETATM    2  O   UNL     1      -5.801  15.598  69.031  1.00  0.00    -0.102 OA 
ENDROOT
BRANCH   2   3
HETATM    3  C   UNL     1      -6.633  14.646  68.503  1.00  0.00    -0.095 A  
HETATM    4  C   UNL     1      -8.009  14.775  68.703  1.00  0.00    -0.143 A  
HETATM    5  N   UNL     1      -6.436  11.535  66.648  1.00  0.00    -0.123 NA 
HETATM    6  C   UNL     1      -8.857  13.731  68.320  1.00  0.00    -0.185 A  
HETATM    7  C   UNL     1      -6.997  12.536  67.331  1.00  0.00    -0.147 A  
HETATM    8  C   UNL     1      -8.363  12.587  67.634  1.00  0.00    -0.172 A  
HETATM    9  C   UNL     1      -6.162  13.548  67.775  1.00  0.00    -0.159 A  
HETATM   10  C   UNL     1      -9.114  11.465  67.220  1.00  0.00    -0.162 A  
HETATM   11  N   UNL     1      -8.550  10.460  66.520  1.00  0.00    -0.129 NA 
HETATM   12  C   UNL     1      -7.244  10.551  66.264  1.00  0.00    -0.133 A  
BRANCH   4  13
HETATM   13  O   UNL     1      -8.641  15.826  69.316  1.00  0.00    -0.240 OA 
BRANCH  13  14
HETATM   14  C   UNL     1      -9.920  15.535  69.907  1.00  0.00    -0.233 C  
BRANCH  14  15
HETATM   15  C   UNL     1     -10.941  16.466  69.253  1.00  0.00    -0.322 C  
BRANCH  15  16
HETATM   16  C   UNL     1     -10.342  17.741  68.647  1.00  0.00    -0.350 C  
BRANCH  16  17
HETATM   17  N   UNL     1     -10.648  17.989  67.230  1.00  0.00    -0.373 NA 
HETATM   18  C   UNL     1      -9.686  17.280  66.348  1.00  0.00    -0.290 C  
HETATM   19  C   UNL     1      -8.290  17.926  66.312  1.00  0.00    -0.196 C  
HETATM   20  C   UNL     1     -10.635  19.418  66.844  1.00  0.00    -0.476 C  
HETATM   21  C   UNL     1      -9.234  20.048  66.729  1.00  0.00    -0.382 C  
HETATM   22  O   UNL     1      -8.369  19.287  65.877  1.00  0.00    -0.443 OA 
ENDBRANCH  16  17
ENDBRANCH  15  16
ENDBRANCH  14  15
ENDBRANCH  13  14
ENDBRANCH   4  13
BRANCH  10  23
HETATM   23  N   UNL     1     -10.471  11.337  67.615  1.00  0.00    -0.186 NA 
HETATM   24  H   UNL     1     -11.151  11.700  66.947  1.00  0.00     0.000 HD 
BRANCH  23  25
HETATM   25  C   UNL     1     -11.025  10.784  68.792  1.00  0.00    -0.247 A  
HETATM   26 CL   UNL     1     -13.266  12.164  71.825  1.00  0.00    -0.509 Cl 
HETATM   27  C   UNL     1     -11.983   9.844  71.271  1.00  0.00    -0.402 A  
HETATM   28  C   UNL     1     -12.302  11.128  70.842  1.00  0.00    -0.399 A  
HETATM   29  C   UNL     1     -11.202   9.019  70.477  1.00  0.00    -0.301 A  
HETATM   30  F   UNL     1     -12.408   9.386  72.458  1.00  0.00    -0.374 F  
HETATM   31  C   UNL     1     -10.721   9.492  69.252  1.00  0.00    -0.240 A  
HETATM   32  C   UNL     1     -11.825  11.597  69.613  1.00  0.00    -0.419 A  
ENDBRANCH  23  25
ENDBRANCH  10  23
ENDBRANCH   2   3
TORSDOF 8
ENDMDL
MODEL      103
REMARK 921   NORMALIZED FREE ENERGY PREDICTED BY IDOCK:   -5.40 KCAL/MOL
REMARK 922        TOTAL FREE ENERGY PREDICTED BY IDOCK:   -9.55 KCAL/MOL
REMARK 923 INTER-LIGAND FREE ENERGY PREDICTED BY IDOCK:   -8.20 KCAL/MOL
REMARK 924 INTRA-LIGAND FREE ENERGY PREDICTED BY IDOCK:   -1.35 KCAL/MOL
REMARK 927      BINDING AFFINITY PREDICTED BY RF-SCORE:    0.00 PKD
ROOT
HETATM    1  C   UNL     1      -6.289  14.574  67.828  1.00  0.00    -0.152 C  
HETATM    2  O   UNL     1      -7.283  13.761  67.205  1.00  0.00    -0.136 OA 
ENDROOT
BRANCH   2   3
HETATM    3  C   UNL     1      -7.506  12.543  67.793  1.00  0.00    -0.130 A  
HETATM    4  C   UNL     1      -8.473  11.702  67.241  1.00  0.00    -0.156 A  
HETATM    5  N   UNL     1      -6.376  10.612  70.648  1.00  0.00    -0.325 NA 
HETATM    6  C   UNL     1      -8.834  10.534  67.921  1.00  0.00    -0.133 A  
HETATM    7  C   UNL     1      -7.107  10.923  69.575  1.00  0.00    -0.123 A  
HETATM    8  C   UNL     1      -8.160  10.128  69.107  1.00  0.00    -0.134 A  
HETATM    9  C   UNL     1      -6.807  12.109  68.926  1.00  0.00    -0.100 A  
HETATM   10  C   UNL     1      -8.448   8.989  69.890  1.00  0.00    -0.138 A  
HETATM   11  N   UNL     1      -7.703   8.667  70.966  1.00  0.00    -0.096 NA 
HETATM   12  C   UNL     1      -6.702   9.490  71.284  1.00  0.00     0.057 A  
BRANCH   4  13
HETATM   13  O   UNL     1      -9.185  11.934  66.092  1.00  0.00    -0.224 OA 
BRANCH  13  14
HETATM   14  C   UNL     1      -9.826  10.786  65.505  1.00  0.00    -0.255 C  
BRANCH  14  15
HETATM   15  C   UNL     1     -10.839  11.308  64.487  1.00  0.00    -0.354 C  
BRANCH  15  16
HETATM   16  C   UNL     1     -10.699  12.800  64.158  1.00  0.00    -0.412 C  
BRANCH  16  17
HETATM   17  N   UNL     1     -11.827  13.657  64.554  1.00  0.00    -0.394 NA 
HETATM   18  C   UNL     1     -11.441  15.091  64.517  1.00  0.00    -0.318 C  
HETATM   19  C   UNL     1     -10.522  15.512  65.677  1.00  0.00    -0.374 C  
HETATM   20  C   UNL     1     -12.364  13.376  65.904  1.00  0.00    -0.437 C  
HETATM   21  C   UNL     1     -11.485  13.867  67.068  1.00  0.00    -0.346 C  
HETATM   22  O   UNL     1     -11.144  15.253  66.940  1.00  0.00    -0.321 OA 
ENDBRANCH  16  17
ENDBRANCH  15  16
ENDBRANCH  14  15
ENDBRANCH  13  14
ENDBRANCH   4  13
BRANCH  10  23
HETATM   23  N   UNL     1      -9.595   8.203  69.601  1.00  0.00    -0.167 NA 
HETATM   24  H   UNL     1      -9.487   7.552  68.823  1.00  0.00     0.000 HD 
BRANCH  23  25
HETATM   25  C   UNL     1     -10.862   8.184  70.226  1.00  0.00    -0.244 A  
HETATM   26 CL   UNL     1     -13.238  10.918  71.963  1.00  0.00    -0.563 Cl 
HETATM   27  C   UNL     1     -13.273   8.224  71.687  1.00  0.00    -0.328 A  
HETATM   28  C   UNL     1     -12.609   9.413  71.407  1.00  0.00    -0.348 A  
HETATM   29  C   UNL     1     -12.757   7.017  71.242  1.00  0.00    -0.400 A  
HETATM   30  F   UNL     1     -14.408   8.218  72.402  1.00  0.00    -0.436 F  
HETATM   31  C   UNL     1     -11.556   7.001  70.524  1.00  0.00    -0.364 A  
HETATM   32  C   UNL     1     -11.411   9.395  70.684  1.00  0.00    -0.344 A  
ENDBRANCH  23  25
ENDBRANCH  10  23
ENDBRANCH   2   3
TORSDOF 8
ENDMDL
MODEL      104
REMARK 921   NORMALIZED FREE ENERGY PREDICTED BY IDOCK:   -5.39 KCAL/MOL
REMARK 922        TOTAL FREE ENERGY PREDICTED BY IDOCK:   -9.54 KCAL/MOL
REMARK 923 INTER-LIGAND FREE ENERGY PREDICTED BY IDOCK:   -8.02 KCAL/MOL
REMARK 924 INTRA-LIGAND FREE ENERGY PREDICTED BY IDOCK:   -1.52 KCAL/MOL
REMARK 927      BINDING AFFINITY PREDICTED BY RF-SCORE:    0.00 PKD
ROOT
HETATM    1  C   UNL     1     -13.436   9.632  72.076  1.00  0.00    -0.428 C  
HETATM    2  O   UNL     1     -12.543  10.535  71.425  1.00  0.00    -0.369 OA 
ENDROOT
BRANCH   2   3
HETATM    3  C   UNL     1     -11.762   9.990  70.440  1.00  0.00    -0.286 A  
HETATM    4  C   UNL     1     -11.565  10.716  69.264  1.00  0.00    -0.275 A  
HETATM    5  N   UNL     1      -9.920   6.941  69.754  1.00  0.00    -0.177 NA 
HETATM    6  C   UNL     1     -10.914  10.108  68.185  1.00  0.00    -0.313 A  
HETATM    7  C   UNL     1     -10.453   8.144  69.525  1.00  0.00    -0.227 A  
HETATM    8  C   UNL     1     -10.353   8.805  68.295  1.00  0.00    -0.252 A  
HETATM    9  C   UNL     1     -11.156   8.734  70.562  1.00  0.00    -0.278 A  
HETATM   10  C   UNL     1      -9.698   8.083  67.274  1.00  0.00    -0.177 A  
HETATM   11  N   UNL     1      -9.149   6.874  67.508  1.00  0.00    -0.118 NA 
HETATM   12  C   UNL     1      -9.282   6.370  68.736  1.00  0.00    -0.127 A  
BRANCH   4  13
HETATM   13  O   UNL     1     -12.012  11.988  69.016  1.00  0.00    -0.307 OA 
BRANCH  13  14
HETATM   14  C   UNL     1     -10.999  13.007  68.934  1.00  0.00    -0.230 C  
BRANCH  14  15
HETATM   15  C   UNL     1     -11.672  14.268  68.393  1.00  0.00    -0.373 C  
BRANCH  15  16
HETATM   16  C   UNL     1     -12.172  14.151  66.948  1.00  0.00    -0.365 C  
BRANCH  16  17
HETATM   17  N   UNL     1     -11.200  13.648  65.965  1.00  0.00    -0.294 NA 
HETATM   18  C   UNL     1     -11.045  14.600  64.836  1.00  0.00    -0.401 C  
HETATM   19  C   UNL     1     -12.242  14.608  63.868  1.00  0.00    -0.036 C  
HETATM   20  C   UNL     1     -11.541  12.327  65.390  1.00  0.00    -0.363 C  
HETATM   21  C   UNL     1     -12.685  12.343  64.361  1.00  0.00    -0.342 C  
HETATM   22  O   UNL     1     -12.463  13.303  63.321  1.00  0.00    -0.736 OA 
ENDBRANCH  16  17
ENDBRANCH  15  16
ENDBRANCH  14  15
ENDBRANCH  13  14
ENDBRANCH   4  13
BRANCH  10  23
HETATM   23  N   UNL     1      -9.682   8.589  65.948  1.00  0.00    -0.466 NA 
HETATM   24  H   UNL     1     -10.586   8.588  65.475  1.00  0.00     0.000 HD 
BRANCH  23  25
HETATM   25  C   UNL     1      -8.606   9.092  65.182  1.00  0.00    -0.176 A  
HETATM   26 CL   UNL     1      -5.183  11.035  65.985  1.00  0.00    -0.128 Cl 
HETATM   27  C   UNL     1      -6.523  10.329  63.740  1.00  0.00    -0.090 A  
HETATM   28  C   UNL     1      -6.487  10.301  65.130  1.00  0.00    -0.119 A  
HETATM   29  C   UNL     1      -7.578   9.742  63.059  1.00  0.00    -0.126 A  
HETATM   30  F   UNL     1      -5.555  10.935  63.035  1.00  0.00    -0.158 F  
HETATM   31  C   UNL     1      -8.614   9.137  63.779  1.00  0.00    -0.185 A  
HETATM   32  C   UNL     1      -7.520   9.689  65.847  1.00  0.00    -0.099 A  
ENDBRANCH  23  25
ENDBRANCH  10  23
ENDBRANCH   2   3
TORSDOF 8
ENDMDL
MODEL      105
REMARK 921   NORMALIZED FREE ENERGY PREDICTED BY IDOCK:   -5.38 KCAL/MOL
REMARK 922        TOTAL FREE ENERGY PREDICTED BY IDOCK:   -9.52 KCAL/MOL
REMARK 923 INTER-LIGAND FREE ENERGY PREDICTED BY IDOCK:   -8.09 KCAL/MOL
REMARK 924 INTRA-LIGAND FREE ENERGY PREDICTED BY IDOCK:   -1.43 KCAL/MOL
REMARK 927      BINDING AFFINITY PREDICTED BY RF-SCORE:    0.00 PKD
ROOT
HETATM    1  C   UNL     1      -5.458  15.269  70.782  1.00  0.00    -0.111 C  
HETATM    2  O   UNL     1      -5.330  15.578  69.395  1.00  0.00    -0.100 OA 
ENDROOT
BRANCH   2   3
HETATM    3  C   UNL     1      -6.506  15.798  68.726  1.00  0.00    -0.111 A  
HETATM    4  C   UNL     1      -6.822  14.975  67.644  1.00  0.00    -0.179 A  
HETATM    5  N   UNL     1      -9.316  18.092  68.770  1.00  0.00    -0.278 NA 
HETATM    6  C   UNL     1      -7.929  15.288  66.847  1.00  0.00    -0.194 A  
HETATM    7  C   UNL     1      -8.536  17.097  68.339  1.00  0.00    -0.246 A  
HETATM    8  C   UNL     1      -8.802  16.362  67.178  1.00  0.00    -0.214 A  
HETATM    9  C   UNL     1      -7.400  16.815  69.080  1.00  0.00    -0.213 A  
HETATM   10  C   UNL     1      -9.930  16.786  66.442  1.00  0.00    -0.304 A  
HETATM   11  N   UNL     1     -10.724  17.782  66.883  1.00  0.00    -0.231 NA 
HETATM   12  C   UNL     1     -10.381  18.377  68.026  1.00  0.00    -0.384 A  
BRANCH   4  13
HETATM   13  O   UNL     1      -6.104  13.888  67.219  1.00  0.00    -0.314 OA 
BRANCH  13  14
HETATM   14  C   UNL     1      -6.351  12.656  67.921  1.00  0.00    -0.111 C  
BRANCH  14  15
HETATM   15  C   UNL     1      -7.632  12.055  67.342  1.00  0.00    -0.151 C  
BRANCH  15  16
HETATM   16  C   UNL     1      -8.804  11.985  68.328  1.00  0.00    -0.182 C  
BRANCH  16  17
HETATM   17  N   UNL     1      -9.984  11.230  67.878  1.00  0.00    -0.172 NA 
HETATM   18  C   UNL     1     -11.202  12.079  67.913  1.00  0.00    -0.264 C  
HETATM   19  C   UNL     1     -11.729  12.343  69.335  1.00  0.00    -0.322 C  
HETATM   20  C   UNL     1     -10.267  10.013  68.670  1.00  0.00    -0.180 C  
HETATM   21  C   UNL     1     -10.870  10.269  70.063  1.00  0.00    -0.307 C  
HETATM   22  O   UNL     1     -12.027  11.113  70.004  1.00  0.00    -0.304 OA 
ENDBRANCH  16  17
ENDBRANCH  15  16
ENDBRANCH  14  15
ENDBRANCH  13  14
ENDBRANCH   4  13
BRANCH  10  23
HETATM   23  N   UNL     1     -10.198  16.219  65.169  1.00  0.00    -0.558 NA 
HETATM   24  H   UNL     1      -9.864  16.764  64.374  1.00  0.00     0.000 HD 
BRANCH  23  25
HETATM   25  C   UNL     1     -10.857  15.014  64.833  1.00  0.00    -0.411 A  
HETATM   26 CL   UNL     1      -9.750  11.184  64.350  1.00  0.00    -0.289 Cl 
HETATM   27  C   UNL     1     -12.024  12.602  63.956  1.00  0.00    -0.451 A  
HETATM   28  C   UNL     1     -10.698  12.622  64.377  1.00  0.00    -0.359 A  
HETATM   29  C   UNL     1     -12.778  13.765  63.975  1.00  0.00     0.063 A  
HETATM   30  F   UNL     1     -12.591  11.470  63.511  1.00  0.00    -0.552 F  
HETATM   31  C   UNL     1     -12.193  14.961  64.402  1.00  0.00    -0.399 A  
HETATM   32  C   UNL     1     -10.117  13.819  64.811  1.00  0.00    -0.259 A  
ENDBRANCH  23  25
ENDBRANCH  10  23
ENDBRANCH   2   3
TORSDOF 8
ENDMDL
MODEL      106
REMARK 921   NORMALIZED FREE ENERGY PREDICTED BY IDOCK:   -5.37 KCAL/MOL
REMARK 922        TOTAL FREE ENERGY PREDICTED BY IDOCK:   -9.51 KCAL/MOL
REMARK 923 INTER-LIGAND FREE ENERGY PREDICTED BY IDOCK:   -8.33 KCAL/MOL
REMARK 924 INTRA-LIGAND FREE ENERGY PREDICTED BY IDOCK:   -1.18 KCAL/MOL
REMARK 927      BINDING AFFINITY PREDICTED BY RF-SCORE:    0.00 PKD
ROOT
HETATM    1  C   UNL     1     -14.186  14.431  72.240  1.00  0.00    -0.491 C  
HETATM    2  O   UNL     1     -13.012  13.622  72.178  1.00  0.00    -0.344 OA 
ENDROOT
BRANCH   2   3
HETATM    3  C   UNL     1     -12.658  13.186  70.928  1.00  0.00    -0.295 A  
HETATM    4  C   UNL     1     -12.508  11.815  70.716  1.00  0.00    -0.312 A  
HETATM    5  N   UNL     1     -11.806  14.543  67.673  1.00  0.00    -0.378 NA 
HETATM    6  C   UNL     1     -11.985  11.363  69.500  1.00  0.00    -0.409 A  
HETATM    7  C   UNL     1     -11.983  13.621  68.622  1.00  0.00    -0.360 A  
HETATM    8  C   UNL     1     -11.705  12.262  68.433  1.00  0.00    -0.390 A  
HETATM    9  C   UNL     1     -12.439  14.058  69.855  1.00  0.00    -0.301 A  
HETATM   10  C   UNL     1     -11.158  11.929  67.175  1.00  0.00    -0.293 A  
HETATM   11  N   UNL     1     -10.990  12.858  66.212  1.00  0.00    -0.277 NA 
HETATM   12  C   UNL     1     -11.330  14.113  66.508  1.00  0.00    -0.341 A  
BRANCH   4  13
HETATM   13  O   UNL     1     -12.765  10.824  71.628  1.00  0.00    -0.411 OA 
BRANCH  13  14
HETATM   14  C   UNL     1     -11.850   9.712  71.625  1.00  0.00    -0.384 C  
BRANCH  14  15
HETATM   15  C   UNL     1     -12.689   8.440  71.508  1.00  0.00    -0.330 C  
BRANCH  15  16
HETATM   16  C   UNL     1     -12.019   7.307  70.720  1.00  0.00    -0.272 C  
BRANCH  16  17
HETATM   17  N   UNL     1     -10.551   7.252  70.789  1.00  0.00    -0.220 NA 
HETATM   18  C   UNL     1      -9.940   7.866  69.583  1.00  0.00    -0.191 C  
HETATM   19  C   UNL     1     -10.061   6.996  68.319  1.00  0.00    -0.167 C  
HETATM   20  C   UNL     1      -9.997   5.886  70.921  1.00  0.00    -0.187 C  
HETATM   21  C   UNL     1     -10.044   5.038  69.636  1.00  0.00    -0.251 C  
HETATM   22  O   UNL     1      -9.452   5.717  68.521  1.00  0.00    -0.120 OA 
ENDBRANCH  16  17
ENDBRANCH  15  16
ENDBRANCH  14  15
ENDBRANCH  13  14
ENDBRANCH   4  13
BRANCH  10  23
HETATM   23  N   UNL     1     -10.690  10.611  66.933  1.00  0.00    -0.255 NA 
HETATM   24  H   UNL     1     -11.268   9.868  67.326  1.00  0.00     0.000 HD 
BRANCH  23  25
HETATM   25  C   UNL     1      -9.546  10.170  66.230  1.00  0.00    -0.193 A  
HETATM   26 CL   UNL     1      -8.735   9.156  62.429  1.00  0.00    -0.226 Cl 
HETATM   27  C   UNL     1      -7.391   9.074  64.779  1.00  0.00    -0.100 A  
HETATM   28  C   UNL     1      -8.570   9.415  64.124  1.00  0.00    -0.198 A  
HETATM   29  C   UNL     1      -7.268   9.280  66.144  1.00  0.00    -0.091 A  
HETATM   30  F   UNL     1      -6.363   8.528  64.112  1.00  0.00    -0.068 F  
HETATM   31  C   UNL     1      -8.343   9.816  66.862  1.00  0.00    -0.120 A  
HETATM   32  C   UNL     1      -9.641   9.957  64.843  1.00  0.00    -0.356 A  
ENDBRANCH  23  25
ENDBRANCH  10  23
ENDBRANCH   2   3
TORSDOF 8
ENDMDL
MODEL      107
REMARK 921   NORMALIZED FREE ENERGY PREDICTED BY IDOCK:   -5.37 KCAL/MOL
REMARK 922        TOTAL FREE ENERGY PREDICTED BY IDOCK:   -9.51 KCAL/MOL
REMARK 923 INTER-LIGAND FREE ENERGY PREDICTED BY IDOCK:   -8.64 KCAL/MOL
REMARK 924 INTRA-LIGAND FREE ENERGY PREDICTED BY IDOCK:   -0.87 KCAL/MOL
REMARK 927      BINDING AFFINITY PREDICTED BY RF-SCORE:    0.00 PKD
ROOT
HETATM    1  C   UNL     1     -11.978   9.293  71.396  1.00  0.00    -0.351 C  
HETATM    2  O   UNL     1     -12.869  10.030  70.560  1.00  0.00    -0.233 OA 
ENDROOT
BRANCH   2   3
HETATM    3  C   UNL     1     -12.529  11.340  70.342  1.00  0.00    -0.271 A  
HETATM    4  C   UNL     1     -11.852  11.668  69.166  1.00  0.00    -0.326 A  
HETATM    5  N   UNL     1     -12.740  14.557  72.006  1.00  0.00    -0.328 NA 
HETATM    6  C   UNL     1     -11.350  12.964  69.004  1.00  0.00    -0.341 A  
HETATM    7  C   UNL     1     -12.396  13.666  71.073  1.00  0.00    -0.354 A  
HETATM    8  C   UNL     1     -11.607  13.985  69.961  1.00  0.00    -0.302 A  
HETATM    9  C   UNL     1     -12.830  12.362  71.250  1.00  0.00    -0.337 A  
HETATM   10  C   UNL     1     -11.137  15.315  69.918  1.00  0.00    -0.289 A  
HETATM   11  N   UNL     1     -11.495  16.218  70.853  1.00  0.00    -0.382 NA 
HETATM   12  C   UNL     1     -12.283  15.795  71.843  1.00  0.00    -0.459 A  
BRANCH   4  13
HETATM   13  O   UNL     1     -11.556  10.810  68.138  1.00  0.00    -0.441 OA 
BRANCH  13  14
HETATM   14  C   UNL     1     -10.201  10.849  67.656  1.00  0.00    -0.183 C  
BRANCH  14  15
HETATM   15  C   UNL     1     -10.089   9.807  66.543  1.00  0.00    -0.307 C  
BRANCH  15  16
HETATM   16  C   UNL     1      -9.381   8.510  66.955  1.00  0.00    -0.161 C  
BRANCH  16  17
HETATM   17  N   UNL     1      -8.103   8.229  66.284  1.00  0.00    -0.106 NA 
HETATM   18  C   UNL     1      -8.164   6.943  65.544  1.00  0.00    -0.135 C  
HETATM   19  C   UNL     1      -8.126   5.704  66.456  1.00  0.00    -0.105 C  
HETATM   20  C   UNL     1      -6.937   8.164  67.193  1.00  0.00    -0.075 C  
HETATM   21  C   UNL     1      -6.852   6.888  68.051  1.00  0.00    -0.078 C  
HETATM   22  O   UNL     1      -6.941   5.698  67.259  1.00  0.00    -0.062 OA 
ENDBRANCH  16  17
ENDBRANCH  15  16
ENDBRANCH  14  15
ENDBRANCH  13  14
ENDBRANCH   4  13
BRANCH  10  23
HETATM   23  N   UNL     1     -10.200  15.703  68.925  1.00  0.00    -0.205 NA 
HETATM   24  H   UNL     1      -9.657  14.940  68.522  1.00  0.00     0.000 HD 
BRANCH  23  25
HETATM   25  C   UNL     1      -9.905  16.986  68.409  1.00  0.00    -0.283 A  
HETATM   26 CL   UNL     1      -6.813  19.535  68.671  1.00  0.00    -0.330 Cl 
HETATM   27  C   UNL     1      -9.308  19.626  67.622  1.00  0.00    -0.338 A  
HETATM   28  C   UNL     1      -8.356  18.868  68.295  1.00  0.00    -0.330 A  
HETATM   29  C   UNL     1     -10.549  19.085  67.329  1.00  0.00    -0.554 A  
HETATM   30  F   UNL     1      -9.053  20.893  67.261  1.00  0.00    -0.477 F  
HETATM   31  C   UNL     1     -10.845  17.777  67.729  1.00  0.00    -0.238 A  
HETATM   32  C   UNL     1      -8.651  17.558  68.688  1.00  0.00    -0.259 A  
ENDBRANCH  23  25
ENDBRANCH  10  23
ENDBRANCH   2   3
TORSDOF 8
ENDMDL
MODEL      108
REMARK 921   NORMALIZED FREE ENERGY PREDICTED BY IDOCK:   -5.37 KCAL/MOL
REMARK 922        TOTAL FREE ENERGY PREDICTED BY IDOCK:   -9.51 KCAL/MOL
REMARK 923 INTER-LIGAND FREE ENERGY PREDICTED BY IDOCK:   -8.22 KCAL/MOL
REMARK 924 INTRA-LIGAND FREE ENERGY PREDICTED BY IDOCK:   -1.28 KCAL/MOL
REMARK 927      BINDING AFFINITY PREDICTED BY RF-SCORE:    0.00 PKD
ROOT
HETATM    1  C   UNL     1     -11.996  14.487  66.722  1.00  0.00    -0.342 C  
HETATM    2  O   UNL     1     -12.592  13.294  66.215  1.00  0.00    -0.334 OA 
ENDROOT
BRANCH   2   3
HETATM    3  C   UNL     1     -11.734  12.245  66.006  1.00  0.00    -0.388 A  
HETATM    4  C   UNL     1     -11.478  11.371  67.063  1.00  0.00    -0.156 A  
HETATM    5  N   UNL     1      -9.620  10.894  63.386  1.00  0.00    -0.297 NA 
HETATM    6  C   UNL     1     -10.481  10.399  66.921  1.00  0.00    -0.300 A  
HETATM    7  C   UNL     1     -10.160  11.017  64.601  1.00  0.00    -0.311 A  
HETATM    8  C   UNL     1      -9.798  10.211  65.687  1.00  0.00    -0.347 A  
HETATM    9  C   UNL     1     -11.102  12.017  64.778  1.00  0.00    -0.369 A  
HETATM   10  C   UNL     1      -8.764   9.285  65.431  1.00  0.00    -0.178 A  
HETATM   11  N   UNL     1      -8.227   9.151  64.201  1.00  0.00    -0.154 NA 
HETATM   12  C   UNL     1      -8.688   9.956  63.243  1.00  0.00    -0.223 A  
BRANCH   4  13
HETATM   13  O   UNL     1     -12.073  11.399  68.297  1.00  0.00    -0.606 OA 
BRANCH  13  14
HETATM   14  C   UNL     1     -11.199  11.203  69.423  1.00  0.00    -0.270 C  
BRANCH  14  15
HETATM   15  C   UNL     1     -12.037  11.406  70.686  1.00  0.00    -0.469 C  
BRANCH  15  16
HETATM   16  C   UNL     1     -13.086  10.316  70.934  1.00  0.00    -0.344 C  
BRANCH  16  17
HETATM   17  N   UNL     1     -12.999   9.616  72.225  1.00  0.00    -0.386 NA 
HETATM   18  C   UNL     1     -11.798   8.742  72.274  1.00  0.00    -0.333 C  
HETATM   19  C   UNL     1     -11.928   7.466  71.424  1.00  0.00    -0.310 C  
HETATM   20  C   UNL     1     -14.174   8.775  72.545  1.00  0.00    -0.314 C  
HETATM   21  C   UNL     1     -14.265   7.458  71.752  1.00  0.00    -0.403 C  
HETATM   22  O   UNL     1     -13.058   6.690  71.838  1.00  0.00    -0.280 OA 
ENDBRANCH  16  17
ENDBRANCH  15  16
ENDBRANCH  14  15
ENDBRANCH  13  14
ENDBRANCH   4  13
BRANCH  10  23
HETATM   23  N   UNL     1      -8.209   8.531  66.498  1.00  0.00    -0.106 NA 
HETATM   24  H   UNL     1      -7.635   9.065  67.151  1.00  0.00     0.000 HD 
BRANCH  23  25
HETATM   25  C   UNL     1      -8.329   7.154  66.795  1.00  0.00    -0.116 A  
HETATM   26 CL   UNL     1     -10.266   4.980  69.560  1.00  0.00    -0.306 Cl 
HETATM   27  C   UNL     1      -8.459   4.459  67.611  1.00  0.00    -0.099 A  
HETATM   28  C   UNL     1      -9.235   5.419  68.252  1.00  0.00    -0.111 A  
HETATM   29  C   UNL     1      -7.628   4.822  66.564  1.00  0.00    -0.087 A  
HETATM   30  F   UNL     1      -8.488   3.176  68.000  1.00  0.00    -0.083 F  
HETATM   31  C   UNL     1      -7.559   6.162  66.167  1.00  0.00    -0.090 A  
HETATM   32  C   UNL     1      -9.170   6.758  67.849  1.00  0.00    -0.112 A  
ENDBRANCH  23  25
ENDBRANCH  10  23
ENDBRANCH   2   3
TORSDOF 8
ENDMDL
MODEL      109
REMARK 921   NORMALIZED FREE ENERGY PREDICTED BY IDOCK:   -5.37 KCAL/MOL
REMARK 922        TOTAL FREE ENERGY PREDICTED BY IDOCK:   -9.51 KCAL/MOL
REMARK 923 INTER-LIGAND FREE ENERGY PREDICTED BY IDOCK:   -8.10 KCAL/MOL
REMARK 924 INTRA-LIGAND FREE ENERGY PREDICTED BY IDOCK:   -1.40 KCAL/MOL
REMARK 927      BINDING AFFINITY PREDICTED BY RF-SCORE:    0.00 PKD
ROOT
HETATM    1  C   UNL     1     -12.641  16.070  73.934  1.00  0.00    -0.612 C  
HETATM    2  O   UNL     1     -13.335  15.919  72.697  1.00  0.00    -0.487 OA 
ENDROOT
BRANCH   2   3
HETATM    3  C   UNL     1     -13.035  14.787  71.984  1.00  0.00    -0.330 A  
HETATM    4  C   UNL     1     -12.472  14.926  70.714  1.00  0.00    -0.339 A  
HETATM    5  N   UNL     1     -13.330  11.184  72.281  1.00  0.00    -0.229 NA 
HETATM    6  C   UNL     1     -12.317  13.795  69.907  1.00  0.00    -0.334 A  
HETATM    7  C   UNL     1     -13.065  12.362  71.711  1.00  0.00    -0.342 A  
HETATM    8  C   UNL     1     -12.619  12.491  70.390  1.00  0.00    -0.099 A  
HETATM    9  C   UNL     1     -13.274  13.498  72.474  1.00  0.00    -0.551 A  
HETATM   10  C   UNL     1     -12.526  11.283  69.665  1.00  0.00    -0.094 A  
HETATM   11  N   UNL     1     -12.782  10.093  70.244  1.00  0.00    -0.124 NA 
HETATM   12  C   UNL     1     -13.162  10.104  71.522  1.00  0.00    -0.399 A  
BRANCH   4  13
HETATM   13  O   UNL     1     -12.097  16.104  70.122  1.00  0.00    -0.219 OA 
BRANCH  13  14
HETATM   14  C   UNL     1     -11.350  15.984  68.897  1.00  0.00    -0.370 C  
BRANCH  14  15
HETATM   15  C   UNL     1      -9.868  15.980  69.272  1.00  0.00    -0.255 C  
BRANCH  15  16
HETATM   16  C   UNL     1      -9.002  15.036  68.430  1.00  0.00    -0.179 C  
BRANCH  16  17
HETATM   17  N   UNL     1      -7.641  15.504  68.127  1.00  0.00    -0.117 NA 
HETATM   18  C   UNL     1      -6.810  14.401  67.581  1.00  0.00    -0.182 C  
HETATM   19  C   UNL     1      -6.378  13.372  68.641  1.00  0.00    -0.091 C  
HETATM   20  C   UNL     1      -6.918  16.074  69.286  1.00  0.00    -0.205 C  
HETATM   21  C   UNL     1      -6.415  15.041  70.310  1.00  0.00    -0.095 C  
HETATM   22  O   UNL     1      -5.641  14.003  69.694  1.00  0.00    -0.092 OA 
ENDBRANCH  16  17
ENDBRANCH  15  16
ENDBRANCH  14  15
ENDBRANCH  13  14
ENDBRANCH   4  13
BRANCH  10  23
HETATM   23  N   UNL     1     -12.241  11.312  68.274  1.00  0.00    -0.635 NA 
HETATM   24  H   UNL     1     -13.059  11.331  67.666  1.00  0.00     0.000 HD 
BRANCH  23  25
HETATM   25  C   UNL     1     -10.996  11.319  67.604  1.00  0.00    -0.259 A  
HETATM   26 CL   UNL     1      -9.804  11.655  63.783  1.00  0.00    -0.328 Cl 
HETATM   27  C   UNL     1      -8.592  11.121  66.145  1.00  0.00    -0.172 A  
HETATM   28  C   UNL     1      -9.781  11.421  65.490  1.00  0.00    -0.230 A  
HETATM   29  C   UNL     1      -8.583  10.928  67.517  1.00  0.00    -0.127 A  
HETATM   30  F   UNL     1      -7.441  10.997  65.467  1.00  0.00    -0.095 F  
HETATM   31  C   UNL     1      -9.780  11.018  68.237  1.00  0.00    -0.181 A  
HETATM   32  C   UNL     1     -10.976  11.517  66.212  1.00  0.00    -0.328 A  
ENDBRANCH  23  25
ENDBRANCH  10  23
ENDBRANCH   2   3
TORSDOF 8
ENDMDL
MODEL      110
REMARK 921   NORMALIZED FREE ENERGY PREDICTED BY IDOCK:   -5.35 KCAL/MOL
REMARK 922        TOTAL FREE ENERGY PREDICTED BY IDOCK:   -9.49 KCAL/MOL
REMARK 923 INTER-LIGAND FREE ENERGY PREDICTED BY IDOCK:   -7.95 KCAL/MOL
REMARK 924 INTRA-LIGAND FREE ENERGY PREDICTED BY IDOCK:   -1.54 KCAL/MOL
REMARK 927      BINDING AFFINITY PREDICTED BY RF-SCORE:    0.00 PKD
ROOT
HETATM    1  C   UNL     1      -7.041   6.936  71.811  1.00  0.00    -0.074 C  
HETATM    2  O   UNL     1      -7.127   7.701  70.610  1.00  0.00    -0.053 OA 
ENDROOT
BRANCH   2   3
HETATM    3  C   UNL     1      -8.354   8.250  70.343  1.00  0.00    -0.120 A  
HETATM    4  C   UNL     1      -8.610   8.719  69.054  1.00  0.00    -0.132 A  
HETATM    5  N   UNL     1     -11.444   9.058  72.063  1.00  0.00    -0.367 NA 
HETATM    6  C   UNL     1      -9.788   9.432  68.807  1.00  0.00    -0.172 A  
HETATM    7  C   UNL     1     -10.559   9.009  71.064  1.00  0.00    -0.271 A  
HETATM    8  C   UNL     1     -10.781   9.597  69.813  1.00  0.00    -0.269 A  
HETATM    9  C   UNL     1      -9.359   8.362  71.311  1.00  0.00    -0.239 A  
HETATM   10  C   UNL     1     -11.992  10.311  69.689  1.00  0.00    -0.060 A  
HETATM   11  N   UNL     1     -12.892  10.351  70.694  1.00  0.00    -0.350 NA 
HETATM   12  C   UNL     1     -12.575   9.717  71.823  1.00  0.00    -0.409 A  
BRANCH   4  13
HETATM   13  O   UNL     1      -7.773   8.610  67.974  1.00  0.00    -0.099 OA 
BRANCH  13  14
HETATM   14  C   UNL     1      -6.769   9.634  67.849  1.00  0.00    -0.066 C  
BRANCH  14  15
HETATM   15  C   UNL     1      -6.766  10.085  66.389  1.00  0.00    -0.088 C  
BRANCH  15  16
HETATM   16  C   UNL     1      -8.064  10.759  65.928  1.00  0.00    -0.148 C  
BRANCH  16  17
HETATM   17  N   UNL     1      -8.967   9.934  65.112  1.00  0.00    -0.181 NA 
HETATM   18  C   UNL     1      -8.246   9.340  63.958  1.00  0.00    -0.164 C  
HETATM   19  C   UNL     1      -7.925  10.352  62.844  1.00  0.00    -0.147 C  
HETATM   20  C   UNL     1     -10.141  10.659  64.577  1.00  0.00    -0.353 C  
HETATM   21  C   UNL     1      -9.838  11.615  63.409  1.00  0.00    -0.404 C  
HETATM   22  O   UNL     1      -9.123  10.964  62.351  1.00  0.00    -0.288 OA 
ENDBRANCH  16  17
ENDBRANCH  15  16
ENDBRANCH  14  15
ENDBRANCH  13  14
ENDBRANCH   4  13
BRANCH  10  23
HETATM   23  N   UNL     1     -12.246  11.079  68.523  1.00  0.00    -0.781 NA 
HETATM   24  H   UNL     1     -12.796  10.607  67.806  1.00  0.00     0.000 HD 
BRANCH  23  25
HETATM   25  C   UNL     1     -11.852  12.399  68.203  1.00  0.00    -0.315 A  
HETATM   26 CL   UNL     1     -10.629  15.606  70.288  1.00  0.00    -0.340 Cl 
HETATM   27  C   UNL     1     -11.266  15.111  67.703  1.00  0.00    -0.327 A  
HETATM   28  C   UNL     1     -11.133  14.595  68.988  1.00  0.00    -0.259 A  
HETATM   29  C   UNL     1     -11.678  14.292  66.664  1.00  0.00    -0.417 A  
HETATM   30  F   UNL     1     -11.017  16.404  67.449  1.00  0.00    -0.315 F  
HETATM   31  C   UNL     1     -11.976  12.949  66.918  1.00  0.00    -0.402 A  
HETATM   32  C   UNL     1     -11.425  13.250  69.238  1.00  0.00    -0.345 A  
ENDBRANCH  23  25
ENDBRANCH  10  23
ENDBRANCH   2   3
TORSDOF 8
ENDMDL
MODEL      111
REMARK 921   NORMALIZED FREE ENERGY PREDICTED BY IDOCK:   -5.35 KCAL/MOL
REMARK 922        TOTAL FREE ENERGY PREDICTED BY IDOCK:   -9.48 KCAL/MOL
REMARK 923 INTER-LIGAND FREE ENERGY PREDICTED BY IDOCK:   -8.14 KCAL/MOL
REMARK 924 INTRA-LIGAND FREE ENERGY PREDICTED BY IDOCK:   -1.35 KCAL/MOL
REMARK 927      BINDING AFFINITY PREDICTED BY RF-SCORE:    0.00 PKD
ROOT
HETATM    1  C   UNL     1     -11.753  13.316  65.216  1.00  0.00    -0.330 C  
HETATM    2  O   UNL     1     -10.680  12.992  66.098  1.00  0.00    -0.270 OA 
ENDROOT
BRANCH   2   3
HETATM    3  C   UNL     1     -11.046  12.451  67.303  1.00  0.00    -0.281 A  
HETATM    4  C   UNL     1     -10.962  11.067  67.466  1.00  0.00    -0.281 A  
HETATM    5  N   UNL     1     -12.383  13.504  70.506  1.00  0.00    -0.350 NA 
HETATM    6  C   UNL     1     -11.488  10.482  68.623  1.00  0.00    -0.290 A  
HETATM    7  C   UNL     1     -11.967  12.666  69.553  1.00  0.00    -0.270 A  
HETATM    8  C   UNL     1     -12.008  11.273  69.685  1.00  0.00    -0.423 A  
HETATM    9  C   UNL     1     -11.504  13.227  68.374  1.00  0.00    -0.349 A  
HETATM   10  C   UNL     1     -12.583  10.798  70.884  1.00  0.00    -0.401 A  
HETATM   11  N   UNL     1     -12.991  11.643  71.852  1.00  0.00    -0.403 NA 
HETATM   12  C   UNL     1     -12.863  12.950  71.617  1.00  0.00    -0.268 A  
BRANCH   4  13
HETATM   13  O   UNL     1     -10.459  10.175  66.555  1.00  0.00    -0.222 OA 
BRANCH  13  14
HETATM   14  C   UNL     1     -10.624   8.782  66.879  1.00  0.00    -0.193 C  
BRANCH  14  15
HETATM   15  C   UNL     1      -9.284   8.096  66.613  1.00  0.00    -0.225 C  
BRANCH  15  16
HETATM   16  C   UNL     1      -9.325   6.566  66.704  1.00  0.00    -0.158 C  
BRANCH  16  17
HETATM   17  N   UNL     1      -8.211   5.849  66.063  1.00  0.00    -0.118 NA 
HETATM   18  C   UNL     1      -8.700   4.647  65.342  1.00  0.00    -0.134 C  
HETATM   19  C   UNL     1      -9.103   3.490  66.273  1.00  0.00    -0.157 C  
HETATM   20  C   UNL     1      -7.151   5.407  66.997  1.00  0.00    -0.070 C  
HETATM   21  C   UNL     1      -7.522   4.199  67.875  1.00  0.00    -0.068 C  
HETATM   22  O   UNL     1      -8.002   3.094  67.099  1.00  0.00    -0.078 OA 
ENDBRANCH  16  17
ENDBRANCH  15  16
ENDBRANCH  14  15
ENDBRANCH  13  14
ENDBRANCH   4  13
BRANCH  10  23
HETATM   23  N   UNL     1     -12.822   9.409  71.053  1.00  0.00    -0.507 NA 
HETATM   24  H   UNL     1     -13.765   9.102  70.817  1.00  0.00     0.000 HD 
BRANCH  23  25
HETATM   25  C   UNL     1     -11.952   8.387  71.497  1.00  0.00    -0.299 A  
HETATM   26 CL   UNL     1     -10.506   4.980  69.939  1.00  0.00    -0.308 Cl 
HETATM   27  C   UNL     1     -10.415   6.188  72.361  1.00  0.00    -0.199 A  
HETATM   28  C   UNL     1     -10.864   6.250  71.046  1.00  0.00    -0.271 A  
HETATM   29  C   UNL     1     -10.713   7.210  73.247  1.00  0.00    -0.403 A  
HETATM   30  F   UNL     1      -9.703   5.138  72.799  1.00  0.00    -0.158 F  
HETATM   31  C   UNL     1     -11.483   8.296  72.817  1.00  0.00    -0.338 A  
HETATM   32  C   UNL     1     -11.629   7.340  70.617  1.00  0.00    -0.322 A  
ENDBRANCH  23  25
ENDBRANCH  10  23
ENDBRANCH   2   3
TORSDOF 8
ENDMDL
MODEL      112
REMARK 921   NORMALIZED FREE ENERGY PREDICTED BY IDOCK:   -5.34 KCAL/MOL
REMARK 922        TOTAL FREE ENERGY PREDICTED BY IDOCK:   -9.46 KCAL/MOL
REMARK 923 INTER-LIGAND FREE ENERGY PREDICTED BY IDOCK:   -8.19 KCAL/MOL
REMARK 924 INTRA-LIGAND FREE ENERGY PREDICTED BY IDOCK:   -1.27 KCAL/MOL
REMARK 927      BINDING AFFINITY PREDICTED BY RF-SCORE:    0.00 PKD
ROOT
HETATM    1  C   UNL     1      -8.868   7.571  66.894  1.00  0.00    -0.135 C  
HETATM    2  O   UNL     1      -9.939   8.294  67.498  1.00  0.00    -0.164 OA 
ENDROOT
BRANCH   2   3
HETATM    3  C   UNL     1     -10.106   9.582  67.060  1.00  0.00    -0.234 A  
HETATM    4  C   UNL     1     -10.170  10.606  68.006  1.00  0.00    -0.175 A  
HETATM    5  N   UNL     1     -10.577  11.398  63.955  1.00  0.00    -0.356 NA 
HETATM    6  C   UNL     1     -10.508  11.900  67.592  1.00  0.00    -0.232 A  
HETATM    7  C   UNL     1     -10.488  11.200  65.273  1.00  0.00    -0.263 A  
HETATM    8  C   UNL     1     -10.681  12.217  66.215  1.00  0.00    -0.296 A  
HETATM    9  C   UNL     1     -10.218   9.912  65.704  1.00  0.00    -0.229 A  
HETATM   10  C   UNL     1     -11.043  13.473  65.682  1.00  0.00    -0.289 A  
HETATM   11  N   UNL     1     -11.121  13.676  64.351  1.00  0.00    -0.378 NA 
HETATM   12  C   UNL     1     -10.876  12.632  63.558  1.00  0.00    -0.329 A  
BRANCH   4  13
HETATM   13  O   UNL     1      -9.994  10.469  69.358  1.00  0.00    -0.222 OA 
BRANCH  13  14
HETATM   14  C   UNL     1     -11.147  10.746  70.175  1.00  0.00    -0.223 C  
BRANCH  14  15
HETATM   15  C   UNL     1     -11.888   9.424  70.370  1.00  0.00    -0.140 C  
BRANCH  15  16
HETATM   16  C   UNL     1     -11.137   8.394  71.222  1.00  0.00    -0.255 C  
BRANCH  16  17
HETATM   17  N   UNL     1     -11.735   7.051  71.290  1.00  0.00    -0.298 NA 
HETATM   18  C   UNL     1     -11.206   6.294  72.453  1.00  0.00    -0.280 C  
HETATM   19  C   UNL     1      -9.760   5.802  72.264  1.00  0.00    -0.154 C  
HETATM   20  C   UNL     1     -11.515   6.223  70.084  1.00  0.00    -0.382 C  
HETATM   21  C   UNL     1     -10.089   5.662  69.931  1.00  0.00    -0.222 C  
HETATM   22  O   UNL     1      -9.654   4.967  71.106  1.00  0.00    -0.152 OA 
ENDBRANCH  16  17
ENDBRANCH  15  16
ENDBRANCH  14  15
ENDBRANCH  13  14
ENDBRANCH   4  13
BRANCH  10  23
HETATM   23  N   UNL     1     -11.419  14.530  66.551  1.00  0.00    -0.354 NA 
HETATM   24  H   UNL     1     -12.375  14.480  66.902  1.00  0.00     0.000 HD 
BRANCH  23  25
HETATM   25  C   UNL     1     -10.671  15.640  67.005  1.00  0.00    -0.314 A  
HETATM   26 CL   UNL     1      -7.235  17.414  65.918  1.00  0.00    -0.258 Cl 
HETATM   27  C   UNL     1      -8.990  17.691  67.963  1.00  0.00    -0.264 A  
HETATM   28  C   UNL     1      -8.669  17.018  66.788  1.00  0.00    -0.245 A  
HETATM   29  C   UNL     1     -10.141  17.362  68.660  1.00  0.00    -0.355 A  
HETATM   30  F   UNL     1      -8.191  18.652  68.449  1.00  0.00    -0.304 F  
HETATM   31  C   UNL     1     -10.968  16.338  68.186  1.00  0.00    -0.343 A  
HETATM   32  C   UNL     1      -9.501  15.999  66.313  1.00  0.00    -0.347 A  
ENDBRANCH  23  25
ENDBRANCH  10  23
ENDBRANCH   2   3
TORSDOF 8
ENDMDL
MODEL      113
REMARK 921   NORMALIZED FREE ENERGY PREDICTED BY IDOCK:   -5.33 KCAL/MOL
REMARK 922        TOTAL FREE ENERGY PREDICTED BY IDOCK:   -9.45 KCAL/MOL
REMARK 923 INTER-LIGAND FREE ENERGY PREDICTED BY IDOCK:   -8.31 KCAL/MOL
REMARK 924 INTRA-LIGAND FREE ENERGY PREDICTED BY IDOCK:   -1.14 KCAL/MOL
REMARK 927      BINDING AFFINITY PREDICTED BY RF-SCORE:    0.00 PKD
ROOT
HETATM    1  C   UNL     1     -10.770  16.893  68.191  1.00  0.00    -0.375 C  
HETATM    2  O   UNL     1     -11.158  15.657  67.594  1.00  0.00    -0.324 OA 
ENDROOT
BRANCH   2   3
HETATM    3  C   UNL     1     -11.418  14.632  68.467  1.00  0.00    -0.302 A  
HETATM    4  C   UNL     1     -10.949  13.355  68.156  1.00  0.00    -0.255 A  
HETATM    5  N   UNL     1     -13.171  14.048  71.588  1.00  0.00    -0.349 NA 
HETATM    6  C   UNL     1     -11.347  12.269  68.945  1.00  0.00    -0.337 A  
HETATM    7  C   UNL     1     -12.482  13.758  70.482  1.00  0.00    -0.339 A  
HETATM    8  C   UNL     1     -12.129  12.453  70.119  1.00  0.00    -0.366 A  
HETATM    9  C   UNL     1     -12.135  14.813  69.655  1.00  0.00    -0.346 A  
HETATM   10  C   UNL     1     -12.607  11.438  70.977  1.00  0.00    -0.386 A  
HETATM   11  N   UNL     1     -13.292  11.732  72.100  1.00  0.00    -0.406 NA 
HETATM   12  C   UNL     1     -13.531  13.020  72.352  1.00  0.00    -0.515 A  
BRANCH   4  13
HETATM   13  O   UNL     1     -10.163  13.021  67.083  1.00  0.00    -0.239 OA 
BRANCH  13  14
HETATM   14  C   UNL     1      -9.829  11.627  66.956  1.00  0.00    -0.193 C  
BRANCH  14  15
HETATM   15  C   UNL     1      -8.346  11.550  66.594  1.00  0.00    -0.167 C  
BRANCH  15  16
HETATM   16  C   UNL     1      -7.894  10.189  66.052  1.00  0.00    -0.122 C  
BRANCH  16  17
HETATM   17  N   UNL     1      -8.789   9.552  65.074  1.00  0.00    -0.183 NA 
HETATM   18  C   UNL     1      -8.515   8.096  64.974  1.00  0.00    -0.099 C  
HETATM   19  C   UNL     1      -7.215   7.763  64.221  1.00  0.00    -0.079 C  
HETATM   20  C   UNL     1      -8.702  10.115  63.708  1.00  0.00    -0.212 C  
HETATM   21  C   UNL     1      -7.439   9.720  62.921  1.00  0.00    -0.125 C  
HETATM   22  O   UNL     1      -7.242   8.301  62.895  1.00  0.00    -0.092 OA 
ENDBRANCH  16  17
ENDBRANCH  15  16
ENDBRANCH  14  15
ENDBRANCH  13  14
ENDBRANCH   4  13
BRANCH  10  23
HETATM   23  N   UNL     1     -12.447  10.074  70.619  1.00  0.00    -0.448 NA 
HETATM   24  H   UNL     1     -13.030   9.760  69.843  1.00  0.00     0.000 HD 
BRANCH  23  25
HETATM   25  C   UNL     1     -11.602   9.085  71.172  1.00  0.00    -0.306 A  
HETATM   26 CL   UNL     1     -12.107   5.375  72.624  1.00  0.00    -0.127 Cl 
HETATM   27  C   UNL     1     -10.053   7.135  72.492  1.00  0.00    -0.182 A  
HETATM   28  C   UNL     1     -11.384   6.876  72.186  1.00  0.00    -0.265 A  
HETATM   29  C   UNL     1      -9.480   8.347  72.142  1.00  0.00    -0.360 A  
HETATM   30  F   UNL     1      -9.305   6.230  73.142  1.00  0.00    -0.137 F  
HETATM   31  C   UNL     1     -10.255   9.316  71.495  1.00  0.00    -0.338 A  
HETATM   32  C   UNL     1     -12.155   7.844  71.532  1.00  0.00    -0.336 A  
ENDBRANCH  23  25
ENDBRANCH  10  23
ENDBRANCH   2   3
TORSDOF 8
ENDMDL
MODEL      114
REMARK 921   NORMALIZED FREE ENERGY PREDICTED BY IDOCK:   -5.31 KCAL/MOL
REMARK 922        TOTAL FREE ENERGY PREDICTED BY IDOCK:   -9.43 KCAL/MOL
REMARK 923 INTER-LIGAND FREE ENERGY PREDICTED BY IDOCK:   -7.80 KCAL/MOL
REMARK 924 INTRA-LIGAND FREE ENERGY PREDICTED BY IDOCK:   -1.63 KCAL/MOL
REMARK 927      BINDING AFFINITY PREDICTED BY RF-SCORE:    0.00 PKD
ROOT
HETATM    1  C   UNL     1     -12.826  11.896  63.150  1.00  0.00    -0.013 C  
HETATM    2  O   UNL     1     -11.551  12.380  63.567  1.00  0.00    -0.448 OA 
ENDROOT
BRANCH   2   3
HETATM    3  C   UNL     1     -11.346  12.423  64.921  1.00  0.00    -0.317 A  
HETATM    4  C   UNL     1     -10.800  11.302  65.550  1.00  0.00    -0.179 A  
HETATM    5  N   UNL     1     -11.885  14.665  67.722  1.00  0.00    -0.353 NA 
HETATM    6  C   UNL     1     -10.741  11.263  66.948  1.00  0.00    -0.319 A  
HETATM    7  C   UNL     1     -11.550  13.542  67.081  1.00  0.00    -0.357 A  
HETATM    8  C   UNL     1     -11.124  12.382  67.739  1.00  0.00    -0.292 A  
HETATM    9  C   UNL     1     -11.664  13.541  65.701  1.00  0.00    -0.363 A  
HETATM   10  C   UNL     1     -11.130  12.451  69.149  1.00  0.00    -0.203 A  
HETATM   11  N   UNL     1     -11.457  13.589  69.796  1.00  0.00    -0.219 NA 
HETATM   12  C   UNL     1     -11.809  14.637  69.050  1.00  0.00    -0.310 A  
BRANCH   4  13
HETATM   13  O   UNL     1     -10.357  10.164  64.929  1.00  0.00    -0.236 OA 
BRANCH  13  14
HETATM   14  C   UNL     1      -9.018   9.748  65.257  1.00  0.00    -0.193 C  
BRANCH  14  15
HETATM   15  C   UNL     1      -9.098   8.292  65.717  1.00  0.00    -0.169 C  
BRANCH  15  16
HETATM   16  C   UNL     1      -8.509   8.032  67.108  1.00  0.00    -0.124 C  
BRANCH  16  17
HETATM   17  N   UNL     1      -9.452   8.102  68.234  1.00  0.00    -0.141 NA 
HETATM   18  C   UNL     1      -8.923   7.374  69.416  1.00  0.00    -0.139 C  
HETATM   19  C   UNL     1      -8.978   5.843  69.273  1.00  0.00    -0.117 C  
HETATM   20  C   UNL     1     -10.795   7.554  67.940  1.00  0.00    -0.058 C  
HETATM   21  C   UNL     1     -10.871   6.018  67.875  1.00  0.00    -0.290 C  
HETATM   22  O   UNL     1     -10.320   5.400  69.045  1.00  0.00    -0.217 OA 
ENDBRANCH  16  17
ENDBRANCH  15  16
ENDBRANCH  14  15
ENDBRANCH  13  14
ENDBRANCH   4  13
BRANCH  10  23
HETATM   23  N   UNL     1     -10.873  11.286  69.916  1.00  0.00    -0.466 NA 
HETATM   24  H   UNL     1      -9.905  10.965  69.902  1.00  0.00     0.000 HD 
BRANCH  23  25
HETATM   25  C   UNL     1     -11.753  10.502  70.698  1.00  0.00    -0.357 A  
HETATM   26 CL   UNL     1     -11.382   7.275  73.060  1.00  0.00    -0.287 Cl 
HETATM   27  C   UNL     1     -13.448   8.742  72.104  1.00  0.00    -0.427 A  
HETATM   28  C   UNL     1     -12.068   8.571  72.156  1.00  0.00    -0.383 A  
HETATM   29  C   UNL     1     -13.993   9.782  71.369  1.00  0.00    -0.026 A  
HETATM   30  F   UNL     1     -14.273   7.901  72.745  1.00  0.00    -0.101 F  
HETATM   31  C   UNL     1     -13.149  10.649  70.665  1.00  0.00    -0.242 A  
HETATM   32  C   UNL     1     -11.226   9.442  71.457  1.00  0.00    -0.457 A  
ENDBRANCH  23  25
ENDBRANCH  10  23
ENDBRANCH   2   3
TORSDOF 8
ENDMDL
MODEL      115
REMARK 921   NORMALIZED FREE ENERGY PREDICTED BY IDOCK:   -5.30 KCAL/MOL
REMARK 922        TOTAL FREE ENERGY PREDICTED BY IDOCK:   -9.42 KCAL/MOL
REMARK 923 INTER-LIGAND FREE ENERGY PREDICTED BY IDOCK:   -8.14 KCAL/MOL
REMARK 924 INTRA-LIGAND FREE ENERGY PREDICTED BY IDOCK:   -1.28 KCAL/MOL
REMARK 927      BINDING AFFINITY PREDICTED BY RF-SCORE:    0.00 PKD
ROOT
HETATM    1  C   UNL     1      -8.519  12.633  68.403  1.00  0.00    -0.121 C  
HETATM    2  O   UNL     1      -9.396  12.142  67.392  1.00  0.00    -0.174 OA 
ENDROOT
BRANCH   2   3
HETATM    3  C   UNL     1      -9.658  10.797  67.436  1.00  0.00    -0.159 A  
HETATM    4  C   UNL     1      -9.539  10.054  66.260  1.00  0.00    -0.202 A  
HETATM    5  N   UNL     1     -10.759   8.280  69.804  1.00  0.00    -0.238 NA 
HETATM    6  C   UNL     1      -9.963   8.721  66.247  1.00  0.00    -0.315 A  
HETATM    7  C   UNL     1     -10.405   8.802  68.628  1.00  0.00    -0.205 A  
HETATM    8  C   UNL     1     -10.412   8.074  67.432  1.00  0.00    -0.357 A  
HETATM    9  C   UNL     1     -10.044  10.139  68.610  1.00  0.00    -0.186 A  
HETATM   10  C   UNL     1     -10.884   6.747  67.537  1.00  0.00    -0.318 A  
HETATM   11  N   UNL     1     -11.230   6.216  68.728  1.00  0.00    -0.332 NA 
HETATM   12  C   UNL     1     -11.141   7.006  69.799  1.00  0.00    -0.241 A  
BRANCH   4  13
HETATM   13  O   UNL     1      -9.093  10.522  65.051  1.00  0.00    -0.179 OA 
BRANCH  13  14
HETATM   14  C   UNL     1     -10.042  10.477  63.970  1.00  0.00    -0.251 C  
BRANCH  14  15
HETATM   15  C   UNL     1     -11.089  11.556  64.244  1.00  0.00    -0.385 C  
BRANCH  15  16
HETATM   16  C   UNL     1     -10.549  12.990  64.208  1.00  0.00    -0.412 C  
BRANCH  16  17
HETATM   17  N   UNL     1     -11.539  14.061  64.402  1.00  0.00    -0.384 NA 
HETATM   18  C   UNL     1     -10.887  15.306  64.882  1.00  0.00    -0.425 C  
HETATM   19  C   UNL     1     -10.447  15.243  66.355  1.00  0.00    -0.303 C  
HETATM   20  C   UNL     1     -12.619  13.727  65.358  1.00  0.00    -0.497 C  
HETATM   21  C   UNL     1     -12.202  13.742  66.840  1.00  0.00    -0.366 C  
HETATM   22  O   UNL     1     -11.563  14.970  67.209  1.00  0.00    -0.343 OA 
ENDBRANCH  16  17
ENDBRANCH  15  16
ENDBRANCH  14  15
ENDBRANCH  13  14
ENDBRANCH   4  13
BRANCH  10  23
HETATM   23  N   UNL     1     -11.086   5.972  66.366  1.00  0.00    -0.736 NA 
HETATM   24  H   UNL     1     -11.878   6.258  65.790  1.00  0.00     0.000 HD 
BRANCH  23  25
HETATM   25  C   UNL     1     -10.357   4.865  65.874  1.00  0.00    -0.236 A  
HETATM   26 CL   UNL     1      -6.862   3.108  66.782  1.00  0.00    -0.051 Cl 
HETATM   27  C   UNL     1      -8.718   2.822  64.831  1.00  0.00    -0.113 A  
HETATM   28  C   UNL     1      -8.340   3.497  65.987  1.00  0.00    -0.106 A  
HETATM   29  C   UNL     1      -9.905   3.145  64.194  1.00  0.00    -0.163 A  
HETATM   30  F   UNL     1      -7.941   1.864  64.304  1.00  0.00    -0.065 F  
HETATM   31  C   UNL     1     -10.712   4.166  64.710  1.00  0.00    -0.151 A  
HETATM   32  C   UNL     1      -9.151   4.512  66.505  1.00  0.00    -0.119 A  
ENDBRANCH  23  25
ENDBRANCH  10  23
ENDBRANCH   2   3
TORSDOF 8
ENDMDL
MODEL      116
REMARK 921   NORMALIZED FREE ENERGY PREDICTED BY IDOCK:   -5.30 KCAL/MOL
REMARK 922        TOTAL FREE ENERGY PREDICTED BY IDOCK:   -9.41 KCAL/MOL
REMARK 923 INTER-LIGAND FREE ENERGY PREDICTED BY IDOCK:   -7.81 KCAL/MOL
REMARK 924 INTRA-LIGAND FREE ENERGY PREDICTED BY IDOCK:   -1.60 KCAL/MOL
REMARK 927      BINDING AFFINITY PREDICTED BY RF-SCORE:    0.00 PKD
ROOT
HETATM    1  C   UNL     1      -8.800   5.346  70.762  1.00  0.00    -0.133 C  
HETATM    2  O   UNL     1      -8.247   6.648  70.943  1.00  0.00    -0.121 OA 
ENDROOT
BRANCH   2   3
HETATM    3  C   UNL     1      -9.093   7.694  70.680  1.00  0.00    -0.158 A  
HETATM    4  C   UNL     1      -8.602   8.788  69.968  1.00  0.00    -0.136 A  
HETATM    5  N   UNL     1     -12.506   8.716  71.365  1.00  0.00    -0.311 NA 
HETATM    6  C   UNL     1      -9.397   9.933  69.837  1.00  0.00    -0.250 A  
HETATM    7  C   UNL     1     -11.250   8.811  70.921  1.00  0.00    -0.270 A  
HETATM    8  C   UNL     1     -10.735   9.966  70.321  1.00  0.00    -0.367 A  
HETATM    9  C   UNL     1     -10.429   7.710  71.100  1.00  0.00    -0.220 A  
HETATM   10  C   UNL     1     -11.620  11.064  70.268  1.00  0.00    -0.322 A  
HETATM   11  N   UNL     1     -12.892  10.964  70.704  1.00  0.00    -0.293 NA 
HETATM   12  C   UNL     1     -13.271   9.795  71.222  1.00  0.00    -0.373 A  
BRANCH   4  13
HETATM   13  O   UNL     1      -7.353   8.897  69.413  1.00  0.00    -0.072 OA 
BRANCH  13  14
HETATM   14  C   UNL     1      -7.240   8.507  68.033  1.00  0.00    -0.087 C  
BRANCH  14  15
HETATM   15  C   UNL     1      -6.613   9.682  67.283  1.00  0.00    -0.070 C  
BRANCH  15  16
HETATM   16  C   UNL     1      -7.127   9.870  65.850  1.00  0.00    -0.107 C  
BRANCH  16  17
HETATM   17  N   UNL     1      -8.199   8.957  65.423  1.00  0.00    -0.122 NA 
HETATM   18  C   UNL     1      -7.900   8.377  64.088  1.00  0.00    -0.145 C  
HETATM   19  C   UNL     1      -8.083   9.372  62.929  1.00  0.00    -0.148 C  
HETATM   20  C   UNL     1      -9.539   9.581  65.347  1.00  0.00    -0.272 C  
HETATM   21  C   UNL     1      -9.753  10.516  64.143  1.00  0.00    -0.327 C  
HETATM   22  O   UNL     1      -9.421   9.882  62.901  1.00  0.00    -0.276 OA 
ENDBRANCH  16  17
ENDBRANCH  15  16
ENDBRANCH  14  15
ENDBRANCH  13  14
ENDBRANCH   4  13
BRANCH  10  23
HETATM   23  N   UNL     1     -11.153  12.330  69.828  1.00  0.00    -0.468 NA 
HETATM   24  H   UNL     1     -10.988  13.011  70.569  1.00  0.00     0.000 HD 
BRANCH  23  25
HETATM   25  C   UNL     1     -10.881  12.792  68.520  1.00  0.00    -0.253 A  
HETATM   26 CL   UNL     1     -12.760  12.618  64.974  1.00  0.00    -0.531 Cl 
HETATM   27  C   UNL     1     -10.337  13.467  65.837  1.00  0.00    -0.299 A  
HETATM   28  C   UNL     1     -11.566  12.914  66.181  1.00  0.00    -0.372 A  
HETATM   29  C   UNL     1      -9.380  13.697  66.813  1.00  0.00    -0.269 A  
HETATM   30  F   UNL     1     -10.049  13.773  64.563  1.00  0.00    -0.432 F  
HETATM   31  C   UNL     1      -9.651  13.352  68.141  1.00  0.00    -0.222 A  
HETATM   32  C   UNL     1     -11.837  12.576  67.511  1.00  0.00    -0.389 A  
ENDBRANCH  23  25
ENDBRANCH  10  23
ENDBRANCH   2   3
TORSDOF 8
ENDMDL
MODEL      117
REMARK 921   NORMALIZED FREE ENERGY PREDICTED BY IDOCK:   -5.29 KCAL/MOL
REMARK 922        TOTAL FREE ENERGY PREDICTED BY IDOCK:   -9.40 KCAL/MOL
REMARK 923 INTER-LIGAND FREE ENERGY PREDICTED BY IDOCK:   -8.33 KCAL/MOL
REMARK 924 INTRA-LIGAND FREE ENERGY PREDICTED BY IDOCK:   -1.06 KCAL/MOL
REMARK 927      BINDING AFFINITY PREDICTED BY RF-SCORE:    0.00 PKD
ROOT
HETATM    1  C   UNL     1      -9.290   3.296  65.073  1.00  0.00    -0.150 C  
HETATM    2  O   UNL     1      -8.976   4.025  66.258  1.00  0.00    -0.117 OA 
ENDROOT
BRANCH   2   3
HETATM    3  C   UNL     1      -8.948   5.389  66.125  1.00  0.00    -0.142 A  
HETATM    4  C   UNL     1      -9.804   6.156  66.917  1.00  0.00    -0.159 A  
HETATM    5  N   UNL     1      -7.292   7.930  64.135  1.00  0.00    -0.090 NA 
HETATM    6  C   UNL     1      -9.911   7.530  66.677  1.00  0.00    -0.274 A  
HETATM    7  C   UNL     1      -8.147   7.414  65.021  1.00  0.00    -0.122 A  
HETATM    8  C   UNL     1      -9.088   8.182  65.716  1.00  0.00    -0.139 A  
HETATM    9  C   UNL     1      -8.100   6.044  65.224  1.00  0.00    -0.134 A  
HETATM   10  C   UNL     1      -9.121   9.551  65.372  1.00  0.00    -0.221 A  
HETATM   11  N   UNL     1      -8.250  10.075  64.487  1.00  0.00    -0.157 NA 
HETATM   12  C   UNL     1      -7.377   9.241  63.921  1.00  0.00    -0.102 A  
BRANCH   4  13
HETATM   13  O   UNL     1     -10.632   5.684  67.902  1.00  0.00    -0.224 OA 
BRANCH  13  14
HETATM   14  C   UNL     1     -11.396   6.676  68.611  1.00  0.00    -0.058 C  
BRANCH  14  15
HETATM   15  C   UNL     1     -11.225   6.393  70.104  1.00  0.00    -0.454 C  
BRANCH  15  16
HETATM   16  C   UNL     1     -12.360   6.927  70.986  1.00  0.00    -0.351 C  
BRANCH  16  17
HETATM   17  N   UNL     1     -11.959   7.808  72.094  1.00  0.00    -0.310 NA 
HETATM   18  C   UNL     1     -13.040   8.773  72.422  1.00  0.00    -0.391 C  
HETATM   19  C   UNL     1     -13.195   9.901  71.387  1.00  0.00    -0.400 C  
HETATM   20  C   UNL     1     -10.728   8.589  71.838  1.00  0.00    -0.324 C  
HETATM   21  C   UNL     1     -10.898   9.769  70.863  1.00  0.00    -0.328 C  
HETATM   22  O   UNL     1     -11.974  10.635  71.245  1.00  0.00    -0.331 OA 
ENDBRANCH  16  17
ENDBRANCH  15  16
ENDBRANCH  14  15
ENDBRANCH  13  14
ENDBRANCH   4  13
BRANCH  10  23
HETATM   23  N   UNL     1     -10.141  10.388  65.895  1.00  0.00    -0.260 NA 
HETATM   24  H   UNL     1     -10.536  10.083  66.785  1.00  0.00     0.000 HD 
BRANCH  23  25
HETATM   25  C   UNL     1     -10.692  11.580  65.372  1.00  0.00    -0.278 A  
HETATM   26 CL   UNL     1     -11.310  15.298  66.759  1.00  0.00    -0.245 Cl 
HETATM   27  C   UNL     1     -11.971  13.940  64.511  1.00  0.00    -0.437 A  
HETATM   28  C   UNL     1     -11.323  13.908  65.741  1.00  0.00    -0.307 A  
HETATM   29  C   UNL     1     -11.983  12.816  63.701  1.00  0.00    -0.616 A  
HETATM   30  F   UNL     1     -12.607  15.045  64.093  1.00  0.00    -0.518 F  
HETATM   31  C   UNL     1     -11.354  11.644  64.136  1.00  0.00    -0.397 A  
HETATM   32  C   UNL     1     -10.690  12.737  66.171  1.00  0.00    -0.297 A  
ENDBRANCH  23  25
ENDBRANCH  10  23
ENDBRANCH   2   3
TORSDOF 8
ENDMDL
MODEL      118
REMARK 921   NORMALIZED FREE ENERGY PREDICTED BY IDOCK:   -5.27 KCAL/MOL
REMARK 922        TOTAL FREE ENERGY PREDICTED BY IDOCK:   -9.37 KCAL/MOL
REMARK 923 INTER-LIGAND FREE ENERGY PREDICTED BY IDOCK:   -8.26 KCAL/MOL
REMARK 924 INTRA-LIGAND FREE ENERGY PREDICTED BY IDOCK:   -1.11 KCAL/MOL
REMARK 927      BINDING AFFINITY PREDICTED BY RF-SCORE:    0.00 PKD
ROOT
HETATM    1  C   UNL     1      -6.748  10.569  65.412  1.00  0.00    -0.078 C  
HETATM    2  O   UNL     1      -8.020  10.274  64.837  1.00  0.00    -0.151 OA 
ENDROOT
BRANCH   2   3
HETATM    3  C   UNL     1      -8.742   9.293  65.466  1.00  0.00    -0.175 A  
HETATM    4  C   UNL     1      -9.785   9.671  66.312  1.00  0.00    -0.240 A  
HETATM    5  N   UNL     1      -8.800   5.679  65.771  1.00  0.00    -0.153 NA 
HETATM    6  C   UNL     1     -10.421   8.698  67.091  1.00  0.00    -0.360 A  
HETATM    7  C   UNL     1      -9.140   6.948  66.012  1.00  0.00    -0.067 A  
HETATM    8  C   UNL     1     -10.103   7.317  66.959  1.00  0.00    -0.316 A  
HETATM    9  C   UNL     1      -8.475   7.930  65.297  1.00  0.00    -0.119 A  
HETATM   10  C   UNL     1     -10.657   6.252  67.702  1.00  0.00    -0.271 A  
HETATM   11  N   UNL     1     -10.323   4.970  67.451  1.00  0.00    -0.151 NA 
HETATM   12  C   UNL     1      -9.420   4.750  66.495  1.00  0.00    -0.156 A  
BRANCH   4  13
HETATM   13  O   UNL     1     -10.232  10.950  66.523  1.00  0.00    -0.217 OA 
BRANCH  13  14
HETATM   14  C   UNL     1     -10.208  11.409  67.887  1.00  0.00    -0.182 C  
BRANCH  14  15
HETATM   15  C   UNL     1     -11.565  12.055  68.168  1.00  0.00    -0.403 C  
BRANCH  15  16
HETATM   16  C   UNL     1     -11.602  12.936  69.423  1.00  0.00    -0.302 C  
BRANCH  16  17
HETATM   17  N   UNL     1     -12.490  14.107  69.365  1.00  0.00    -0.195 NA 
HETATM   18  C   UNL     1     -11.759  15.303  68.871  1.00  0.00    -0.342 C  
HETATM   19  C   UNL     1     -10.790  15.904  69.904  1.00  0.00    -0.333 C  
HETATM   20  C   UNL     1     -13.109  14.468  70.660  1.00  0.00    -0.250 C  
HETATM   21  C   UNL     1     -12.161  15.143  71.668  1.00  0.00    -0.359 C  
HETATM   22  O   UNL     1     -11.484  16.272  71.101  1.00  0.00    -0.420 OA 
ENDBRANCH  16  17
ENDBRANCH  15  16
ENDBRANCH  14  15
ENDBRANCH  13  14
ENDBRANCH   4  13
BRANCH  10  23
HETATM   23  N   UNL     1     -11.520   6.526  68.795  1.00  0.00    -0.589 NA 
HETATM   24  H   UNL     1     -12.508   6.607  68.556  1.00  0.00     0.000 HD 
BRANCH  23  25
HETATM   25  C   UNL     1     -11.219   6.701  70.166  1.00  0.00    -0.360 A  
HETATM   26 CL   UNL     1      -9.903   4.338  73.134  1.00  0.00    -0.160 Cl 
HETATM   27  C   UNL     1     -10.807   6.884  72.948  1.00  0.00    -0.285 A  
HETATM   28  C   UNL     1     -10.508   5.704  72.276  1.00  0.00    -0.213 A  
HETATM   29  C   UNL     1     -11.299   7.976  72.252  1.00  0.00    -0.413 A  
HETATM   30  F   UNL     1     -10.641   6.984  74.276  1.00  0.00    -0.392 F  
HETATM   31  C   UNL     1     -11.511   7.879  70.873  1.00  0.00    -0.294 A  
HETATM   32  C   UNL     1     -10.714   5.611  70.895  1.00  0.00    -0.313 A  
ENDBRANCH  23  25
ENDBRANCH  10  23
ENDBRANCH   2   3
TORSDOF 8
ENDMDL
MODEL      119
REMARK 921   NORMALIZED FREE ENERGY PREDICTED BY IDOCK:   -5.22 KCAL/MOL
REMARK 922        TOTAL FREE ENERGY PREDICTED BY IDOCK:   -9.29 KCAL/MOL
REMARK 923 INTER-LIGAND FREE ENERGY PREDICTED BY IDOCK:   -7.41 KCAL/MOL
REMARK 924 INTRA-LIGAND FREE ENERGY PREDICTED BY IDOCK:   -1.88 KCAL/MOL
REMARK 927      BINDING AFFINITY PREDICTED BY RF-SCORE:    0.00 PKD
ROOT
HETATM    1  C   UNL     1      -9.255   4.166  71.312  1.00  0.00    -0.136 C  
HETATM    2  O   UNL     1      -8.967   5.420  71.927  1.00  0.00    -0.134 OA 
ENDROOT
BRANCH   2   3
HETATM    3  C   UNL     1      -9.853   6.431  71.655  1.00  0.00    -0.167 A  
HETATM    4  C   UNL     1      -9.351   7.661  71.225  1.00  0.00    -0.149 A  
HETATM    5  N   UNL     1     -13.420   7.078  71.775  1.00  0.00    -0.305 NA 
HETATM    6  C   UNL     1     -10.221   8.750  71.105  1.00  0.00    -0.316 A  
HETATM    7  C   UNL     1     -12.120   7.335  71.614  1.00  0.00    -0.325 A  
HETATM    8  C   UNL     1     -11.622   8.607  71.307  1.00  0.00    -0.340 A  
HETATM    9  C   UNL     1     -11.238   6.282  71.793  1.00  0.00    -0.334 A  
HETATM   10  C   UNL     1     -12.590   9.632  71.237  1.00  0.00    -0.352 A  
HETATM   11  N   UNL     1     -13.904   9.370  71.387  1.00  0.00    -0.278 NA 
HETATM   12  C   UNL     1     -14.251   8.108  71.640  1.00  0.00    -0.446 A  
BRANCH   4  13
HETATM   13  O   UNL     1      -8.038   7.949  70.957  1.00  0.00    -0.094 OA 
BRANCH  13  14
HETATM   14  C   UNL     1      -7.556   7.548  69.661  1.00  0.00    -0.094 C  
BRANCH  14  15
HETATM   15  C   UNL     1      -6.506   8.574  69.234  1.00  0.00    -0.042 C  
BRANCH  15  16
HETATM   16  C   UNL     1      -6.923   9.455  68.050  1.00  0.00    -0.079 C  
BRANCH  16  17
HETATM   17  N   UNL     1      -8.302   9.964  68.077  1.00  0.00    -0.113 NA 
HETATM   18  C   UNL     1      -8.871  10.024  66.706  1.00  0.00    -0.132 C  
HETATM   19  C   UNL     1      -8.306  11.174  65.854  1.00  0.00    -0.076 C  
HETATM   20  C   UNL     1      -8.445  11.309  68.677  1.00  0.00    -0.143 C  
HETATM   21  C   UNL     1      -7.954  12.471  67.794  1.00  0.00    -0.163 C  
HETATM   22  O   UNL     1      -8.537  12.438  66.485  1.00  0.00    -0.128 OA 
ENDBRANCH  16  17
ENDBRANCH  15  16
ENDBRANCH  14  15
ENDBRANCH  13  14
ENDBRANCH   4  13
BRANCH  10  23
HETATM   23  N   UNL     1     -12.181  10.984  71.092  1.00  0.00    -0.337 NA 
HETATM   24  H   UNL     1     -12.001  11.476  71.966  1.00  0.00     0.000 HD 
BRANCH  23  25
HETATM   25  C   UNL     1     -11.985  11.751  69.921  1.00  0.00    -0.332 A  
HETATM   26 CL   UNL     1     -11.817  15.670  69.060  1.00  0.00    -0.396 Cl 
HETATM   27  C   UNL     1     -11.829  13.375  67.622  1.00  0.00    -0.354 A  
HETATM   28  C   UNL     1     -11.857  13.957  68.885  1.00  0.00    -0.358 A  
HETATM   29  C   UNL     1     -11.869  11.996  67.489  1.00  0.00    -0.275 A  
HETATM   30  F   UNL     1     -11.781  14.131  66.514  1.00  0.00    -0.333 F  
HETATM   31  C   UNL     1     -11.955  11.194  68.632  1.00  0.00    -0.289 A  
HETATM   32  C   UNL     1     -11.937  13.152  70.027  1.00  0.00    -0.391 A  
ENDBRANCH  23  25
ENDBRANCH  10  23
ENDBRANCH   2   3
TORSDOF 8
ENDMDL
MODEL      120
REMARK 921   NORMALIZED FREE ENERGY PREDICTED BY IDOCK:   -5.22 KCAL/MOL
REMARK 922        TOTAL FREE ENERGY PREDICTED BY IDOCK:   -9.29 KCAL/MOL
REMARK 923 INTER-LIGAND FREE ENERGY PREDICTED BY IDOCK:   -7.93 KCAL/MOL
REMARK 924 INTRA-LIGAND FREE ENERGY PREDICTED BY IDOCK:   -1.36 KCAL/MOL
REMARK 927      BINDING AFFINITY PREDICTED BY RF-SCORE:    0.00 PKD
ROOT
HETATM    1  C   UNL     1      -6.807  16.440  69.222  1.00  0.00    -0.218 C  
HETATM    2  O   UNL     1      -6.653  15.941  67.895  1.00  0.00    -0.119 OA 
ENDROOT
BRANCH   2   3
HETATM    3  C   UNL     1      -7.798  15.482  67.297  1.00  0.00    -0.204 A  
HETATM    4  C   UNL     1      -8.131  14.134  67.439  1.00  0.00    -0.189 A  
HETATM    5  N   UNL     1     -10.479  16.697  65.177  1.00  0.00    -0.672 NA 
HETATM    6  C   UNL     1      -9.198  13.611  66.700  1.00  0.00    -0.225 A  
HETATM    7  C   UNL     1      -9.744  15.817  65.862  1.00  0.00    -0.354 A  
HETATM    8  C   UNL     1     -10.019  14.445  65.891  1.00  0.00    -0.350 A  
HETATM    9  C   UNL     1      -8.644  16.307  66.547  1.00  0.00    -0.332 A  
HETATM   10  C   UNL     1     -11.104  14.031  65.087  1.00  0.00    -0.341 A  
HETATM   11  N   UNL     1     -11.853  14.920  64.405  1.00  0.00    -0.398 NA 
HETATM   12  C   UNL     1     -11.508  16.205  64.491  1.00  0.00    -0.230 A  
BRANCH   4  13
HETATM   13  O   UNL     1      -7.463  13.213  68.203  1.00  0.00    -0.106 OA 
BRANCH  13  14
HETATM   14  C   UNL     1      -7.690  11.832  67.868  1.00  0.00    -0.125 C  
BRANCH  14  15
HETATM   15  C   UNL     1      -7.761  11.055  69.182  1.00  0.00    -0.102 C  
BRANCH  15  16
HETATM   16  C   UNL     1      -9.075  10.296  69.403  1.00  0.00    -0.187 C  
BRANCH  16  17
HETATM   17  N   UNL     1      -9.060   9.268  70.456  1.00  0.00    -0.242 NA 
HETATM   18  C   UNL     1      -9.098   7.906  69.867  1.00  0.00    -0.146 C  
HETATM   19  C   UNL     1     -10.475   7.516  69.300  1.00  0.00    -0.214 C  
HETATM   20  C   UNL     1     -10.178   9.367  71.421  1.00  0.00    -0.227 C  
HETATM   21  C   UNL     1     -11.544   8.903  70.883  1.00  0.00    -0.283 C  
HETATM   22  O   UNL     1     -11.482   7.588  70.315  1.00  0.00    -0.248 OA 
ENDBRANCH  16  17
ENDBRANCH  15  16
ENDBRANCH  14  15
ENDBRANCH  13  14
ENDBRANCH   4  13
BRANCH  10  23
HETATM   23  N   UNL     1     -11.370  12.648  64.915  1.00  0.00    -0.302 NA 
HETATM   24  H   UNL     1     -12.315  12.356  65.162  1.00  0.00     0.000 HD 
BRANCH  23  25
HETATM   25  C   UNL     1     -10.525  11.612  64.454  1.00  0.00    -0.322 A  
HETATM   26 CL   UNL     1      -8.878   8.326  66.071  1.00  0.00    -0.188 Cl 
HETATM   27  C   UNL     1      -8.669   9.627  63.705  1.00  0.00    -0.223 A  
HETATM   28  C   UNL     1      -9.271   9.581  64.958  1.00  0.00    -0.236 A  
HETATM   29  C   UNL     1      -8.986  10.643  62.818  1.00  0.00    -0.290 A  
HETATM   30  F   UNL     1      -7.764   8.706  63.339  1.00  0.00    -0.112 F  
HETATM   31  C   UNL     1      -9.901  11.631  63.196  1.00  0.00    -0.407 A  
HETATM   32  C   UNL     1     -10.191  10.566  65.332  1.00  0.00    -0.340 A  
ENDBRANCH  23  25
ENDBRANCH  10  23
ENDBRANCH   2   3
TORSDOF 8
ENDMDL
MODEL      121
REMARK 921   NORMALIZED FREE ENERGY PREDICTED BY IDOCK:   -5.20 KCAL/MOL
REMARK 922        TOTAL FREE ENERGY PREDICTED BY IDOCK:   -9.26 KCAL/MOL
REMARK 923 INTER-LIGAND FREE ENERGY PREDICTED BY IDOCK:   -8.09 KCAL/MOL
REMARK 924 INTRA-LIGAND FREE ENERGY PREDICTED BY IDOCK:   -1.17 KCAL/MOL
REMARK 927      BINDING AFFINITY PREDICTED BY RF-SCORE:    0.00 PKD
ROOT
HETATM    1  C   UNL     1      -5.234  11.684  66.740  1.00  0.00    -0.112 C  
HETATM    2  O   UNL     1      -6.650  11.534  66.819  1.00  0.00    -0.134 OA 
ENDROOT
BRANCH   2   3
HETATM    3  C   UNL     1      -7.331  12.600  67.349  1.00  0.00    -0.140 A  
HETATM    4  C   UNL     1      -8.621  12.393  67.838  1.00  0.00    -0.171 A  
HETATM    5  N   UNL     1      -6.893  16.162  67.876  1.00  0.00    -0.128 NA 
HETATM    6  C   UNL     1      -9.392  13.495  68.225  1.00  0.00    -0.205 A  
HETATM    7  C   UNL     1      -7.514  14.980  67.858  1.00  0.00    -0.137 A  
HETATM    8  C   UNL     1      -8.852  14.811  68.233  1.00  0.00    -0.179 A  
HETATM    9  C   UNL     1      -6.786  13.888  67.416  1.00  0.00    -0.029 A  
HETATM   10  C   UNL     1      -9.535  15.997  68.579  1.00  0.00    -0.216 A  
HETATM   11  N   UNL     1      -8.905  17.189  68.609  1.00  0.00    -0.270 NA 
HETATM   12  C   UNL     1      -7.617  17.209  68.264  1.00  0.00    -0.224 A  
BRANCH   4  13
HETATM   13  O   UNL     1      -9.268  11.187  67.926  1.00  0.00    -0.147 OA 
BRANCH  13  14
HETATM   14  C   UNL     1     -10.705  11.239  67.883  1.00  0.00    -0.207 C  
BRANCH  14  15
HETATM   15  C   UNL     1     -11.223  10.303  68.975  1.00  0.00    -0.260 C  
BRANCH  15  16
HETATM   16  C   UNL     1     -10.130   9.696  69.863  1.00  0.00    -0.246 C  
BRANCH  16  17
HETATM   17  N   UNL     1     -10.446   9.588  71.296  1.00  0.00    -0.305 NA 
HETATM   18  C   UNL     1      -9.758   8.420  71.904  1.00  0.00    -0.261 C  
HETATM   19  C   UNL     1     -10.377   7.067  71.513  1.00  0.00    -0.203 C  
HETATM   20  C   UNL     1     -11.890   9.458  71.594  1.00  0.00    -0.394 C  
HETATM   21  C   UNL     1     -12.497   8.078  71.279  1.00  0.00    -0.253 C  
HETATM   22  O   UNL     1     -11.758   7.011  71.888  1.00  0.00    -0.273 OA 
ENDBRANCH  16  17
ENDBRANCH  15  16
ENDBRANCH  14  15
ENDBRANCH  13  14
ENDBRANCH   4  13
BRANCH  10  23
HETATM   23  N   UNL     1     -10.934  15.965  68.819  1.00  0.00    -0.281 NA 
HETATM   24  H   UNL     1     -11.502  16.450  68.125  1.00  0.00     0.000 HD 
BRANCH  23  25
HETATM   25  C   UNL     1     -11.659  15.362  69.872  1.00  0.00    -0.323 A  
HETATM   26 CL   UNL     1     -12.317  16.205  73.743  1.00  0.00    -0.636 Cl 
HETATM   27  C   UNL     1     -12.882  14.132  72.095  1.00  0.00    -0.332 A  
HETATM   28  C   UNL     1     -12.307  15.392  72.225  1.00  0.00    -0.383 A  
HETATM   29  C   UNL     1     -12.864  13.482  70.871  1.00  0.00    -0.298 A  
HETATM   30  F   UNL     1     -13.447  13.519  73.145  1.00  0.00    -0.461 F  
HETATM   31  C   UNL     1     -12.248  14.092  69.773  1.00  0.00    -0.396 A  
HETATM   32  C   UNL     1     -11.698  16.003  71.123  1.00  0.00    -0.487 A  
ENDBRANCH  23  25
ENDBRANCH  10  23
ENDBRANCH   2   3
TORSDOF 8
ENDMDL
MODEL      122
REMARK 921   NORMALIZED FREE ENERGY PREDICTED BY IDOCK:   -5.18 KCAL/MOL
REMARK 922        TOTAL FREE ENERGY PREDICTED BY IDOCK:   -9.23 KCAL/MOL
REMARK 923 INTER-LIGAND FREE ENERGY PREDICTED BY IDOCK:   -8.50 KCAL/MOL
REMARK 924 INTRA-LIGAND FREE ENERGY PREDICTED BY IDOCK:   -0.73 KCAL/MOL
REMARK 927      BINDING AFFINITY PREDICTED BY RF-SCORE:    0.00 PKD
ROOT
HETATM    1  C   UNL     1     -11.429  15.636  69.222  1.00  0.00    -0.362 C  
HETATM    2  O   UNL     1     -12.204  14.444  69.105  1.00  0.00    -0.300 OA 
ENDROOT
BRANCH   2   3
HETATM    3  C   UNL     1     -11.941  13.671  68.004  1.00  0.00    -0.350 A  
HETATM    4  C   UNL     1     -11.186  12.509  68.168  1.00  0.00    -0.267 A  
HETATM    5  N   UNL     1     -12.533  13.681  64.425  1.00  0.00    -0.635 NA 
HETATM    6  C   UNL     1     -10.766  11.801  67.037  1.00  0.00    -0.286 A  
HETATM    7  C   UNL     1     -12.043  13.272  65.598  1.00  0.00    -0.441 A  
HETATM    8  C   UNL     1     -11.181  12.177  65.729  1.00  0.00    -0.384 A  
HETATM    9  C   UNL     1     -12.396  14.001  66.722  1.00  0.00    -0.368 A  
HETATM   10  C   UNL     1     -10.806  11.557  64.517  1.00  0.00    -0.327 A  
HETATM   11  N   UNL     1     -11.311  11.962  63.334  1.00  0.00    -0.397 NA 
HETATM   12  C   UNL     1     -12.153  12.996  63.350  1.00  0.00    -0.515 A  
BRANCH   4  13
HETATM   13  O   UNL     1     -10.737  11.998  69.358  1.00  0.00    -0.089 OA 
BRANCH  13  14
HETATM   14  C   UNL     1     -11.106  10.636  69.638  1.00  0.00    -0.284 C  
BRANCH  14  15
HETATM   15  C   UNL     1      -9.847   9.920  70.128  1.00  0.00    -0.272 C  
BRANCH  15  16
HETATM   16  C   UNL     1     -10.099   8.853  71.200  1.00  0.00    -0.271 C  
BRANCH  16  17
HETATM   17  N   UNL     1     -11.408   8.183  71.152  1.00  0.00    -0.264 NA 
HETATM   18  C   UNL     1     -11.827   7.741  72.506  1.00  0.00    -0.302 C  
HETATM   19  C   UNL     1     -11.053   6.514  73.021  1.00  0.00    -0.198 C  
HETATM   20  C   UNL     1     -11.457   7.001  70.263  1.00  0.00    -0.287 C  
HETATM   21  C   UNL     1     -10.752   5.747  70.810  1.00  0.00    -0.271 C  
HETATM   22  O   UNL     1     -11.202   5.406  72.127  1.00  0.00    -0.217 OA 
ENDBRANCH  16  17
ENDBRANCH  15  16
ENDBRANCH  14  15
ENDBRANCH  13  14
ENDBRANCH   4  13
BRANCH  10  23
HETATM   23  N   UNL     1      -9.814  10.542  64.518  1.00  0.00    -0.314 NA 
HETATM   24  H   UNL     1      -9.451  10.292  63.599  1.00  0.00     0.000 HD 
BRANCH  23  25
HETATM   25  C   UNL     1      -9.250   9.826  65.600  1.00  0.00    -0.199 A  
HETATM   26 CL   UNL     1      -5.723   9.849  67.521  1.00  0.00    -0.042 Cl 
HETATM   27  C   UNL     1      -7.952   8.311  67.591  1.00  0.00    -0.118 A  
HETATM   28  C   UNL     1      -7.315   9.411  67.026  1.00  0.00    -0.087 A  
HETATM   29  C   UNL     1      -9.229   7.962  67.183  1.00  0.00    -0.175 A  
HETATM   30  F   UNL     1      -7.342   7.562  68.522  1.00  0.00    -0.086 F  
HETATM   31  C   UNL     1      -9.867   8.711  66.189  1.00  0.00    -0.269 A  
HETATM   32  C   UNL     1      -7.957  10.163  66.036  1.00  0.00    -0.124 A  
ENDBRANCH  23  25
ENDBRANCH  10  23
ENDBRANCH   2   3
TORSDOF 8
ENDMDL
MODEL      123
REMARK 921   NORMALIZED FREE ENERGY PREDICTED BY IDOCK:   -5.17 KCAL/MOL
REMARK 922        TOTAL FREE ENERGY PREDICTED BY IDOCK:   -9.22 KCAL/MOL
REMARK 923 INTER-LIGAND FREE ENERGY PREDICTED BY IDOCK:   -7.73 KCAL/MOL
REMARK 924 INTRA-LIGAND FREE ENERGY PREDICTED BY IDOCK:   -1.49 KCAL/MOL
REMARK 927      BINDING AFFINITY PREDICTED BY RF-SCORE:    0.00 PKD
ROOT
HETATM    1  C   UNL     1      -8.997   8.029  70.221  1.00  0.00    -0.147 C  
HETATM    2  O   UNL     1      -8.304   8.448  69.047  1.00  0.00    -0.117 OA 
ENDROOT
BRANCH   2   3
HETATM    3  C   UNL     1      -7.945   9.771  69.011  1.00  0.00    -0.096 A  
HETATM    4  C   UNL     1      -8.534  10.597  68.053  1.00  0.00    -0.119 A  
HETATM    5  N   UNL     1      -5.678  12.058  70.680  1.00  0.00    -0.256 NA 
HETATM    6  C   UNL     1      -8.059  11.903  67.890  1.00  0.00    -0.147 A  
HETATM    7  C   UNL     1      -6.575  11.637  69.786  1.00  0.00    -0.071 A  
HETATM    8  C   UNL     1      -7.063  12.443  68.751  1.00  0.00    -0.098 A  
HETATM    9  C   UNL     1      -7.010  10.326  69.892  1.00  0.00    -0.142 A  
HETATM   10  C   UNL     1      -6.492  13.732  68.670  1.00  0.00    -0.093 A  
HETATM   11  N   UNL     1      -5.594  14.162  69.580  1.00  0.00    -0.094 NA 
HETATM   12  C   UNL     1      -5.241  13.307  70.541  1.00  0.00    -0.126 A  
BRANCH   4  13
HETATM   13  O   UNL     1      -9.524  10.238  67.175  1.00  0.00    -0.155 OA 
BRANCH  13  14
HETATM   14  C   UNL     1     -10.862  10.223  67.704  1.00  0.00    -0.307 C  
BRANCH  14  15
HETATM   15  C   UNL     1     -11.288  11.679  67.892  1.00  0.00    -0.369 C  
BRANCH  15  16
HETATM   16  C   UNL     1     -11.890  12.332  66.643  1.00  0.00    -0.289 C  
BRANCH  16  17
HETATM   17  N   UNL     1     -10.936  12.721  65.592  1.00  0.00    -0.269 NA 
HETATM   18  C   UNL     1     -11.045  14.171  65.288  1.00  0.00    -0.331 C  
HETATM   19  C   UNL     1     -12.306  14.540  64.486  1.00  0.00    -0.414 C  
HETATM   20  C   UNL     1     -11.098  11.986  64.318  1.00  0.00    -0.351 C  
HETATM   21  C   UNL     1     -12.315  12.408  63.474  1.00  0.00    -0.546 C  
HETATM   22  O   UNL     1     -12.350  13.823  63.248  1.00  0.00    -0.756 OA 
ENDBRANCH  16  17
ENDBRANCH  15  16
ENDBRANCH  14  15
ENDBRANCH  13  14
ENDBRANCH   4  13
BRANCH  10  23
HETATM   23  N   UNL     1      -6.793  14.572  67.567  1.00  0.00    -0.215 NA 
HETATM   24  H   UNL     1      -6.233  14.405  66.731  1.00  0.00     0.000 HD 
BRANCH  23  25
HETATM   25  C   UNL     1      -7.751  15.606  67.449  1.00  0.00    -0.187 A  
HETATM   26 CL   UNL     1     -11.458  16.247  68.856  1.00  0.00    -0.322 Cl 
HETATM   27  C   UNL     1      -9.814  17.495  67.102  1.00  0.00    -0.297 A  
HETATM   28  C   UNL     1      -9.984  16.432  67.983  1.00  0.00    -0.242 A  
HETATM   29  C   UNL     1      -8.628  17.634  66.400  1.00  0.00    -0.269 A  
HETATM   30  F   UNL     1     -10.792  18.391  66.904  1.00  0.00    -0.396 F  
HETATM   31  C   UNL     1      -7.610  16.689  66.568  1.00  0.00    -0.327 A  
HETATM   32  C   UNL     1      -8.961  15.493  68.155  1.00  0.00    -0.179 A  
ENDBRANCH  23  25
ENDBRANCH  10  23
ENDBRANCH   2   3
TORSDOF 8
ENDMDL
MODEL      124
REMARK 921   NORMALIZED FREE ENERGY PREDICTED BY IDOCK:   -5.16 KCAL/MOL
REMARK 922        TOTAL FREE ENERGY PREDICTED BY IDOCK:   -9.21 KCAL/MOL
REMARK 923 INTER-LIGAND FREE ENERGY PREDICTED BY IDOCK:   -8.03 KCAL/MOL
REMARK 924 INTRA-LIGAND FREE ENERGY PREDICTED BY IDOCK:   -1.17 KCAL/MOL
REMARK 927      BINDING AFFINITY PREDICTED BY RF-SCORE:    0.00 PKD
ROOT
HETATM    1  C   UNL     1     -13.997  15.359  71.368  1.00  0.00    -0.467 C  
HETATM    2  O   UNL     1     -13.107  14.339  70.918  1.00  0.00    -0.350 OA 
ENDROOT
BRANCH   2   3
HETATM    3  C   UNL     1     -12.129  14.746  70.049  1.00  0.00    -0.329 A  
HETATM    4  C   UNL     1     -11.502  13.787  69.251  1.00  0.00    -0.293 A  
HETATM    5  N   UNL     1     -10.378  17.776  69.092  1.00  0.00    -0.281 NA 
HETATM    6  C   UNL     1     -10.391  14.155  68.484  1.00  0.00    -0.249 A  
HETATM    7  C   UNL     1     -10.672  16.474  69.125  1.00  0.00    -0.335 A  
HETATM    8  C   UNL     1      -9.952  15.506  68.415  1.00  0.00    -0.214 A  
HETATM    9  C   UNL     1     -11.730  16.083  69.930  1.00  0.00    -0.276 A  
HETATM   10  C   UNL     1      -8.836  15.992  67.698  1.00  0.00    -0.185 A  
HETATM   11  N   UNL     1      -8.546  17.308  67.654  1.00  0.00    -0.215 NA 
HETATM   12  C   UNL     1      -9.336  18.131  68.346  1.00  0.00    -0.309 A  
BRANCH   4  13
HETATM   13  O   UNL     1     -11.828  12.457  69.181  1.00  0.00    -0.301 OA 
BRANCH  13  14
HETATM   14  C   UNL     1     -10.773  11.572  68.762  1.00  0.00    -0.211 C  
BRANCH  14  15
HETATM   15  C   UNL     1     -11.199  10.963  67.426  1.00  0.00    -0.345 C  
BRANCH  15  16
HETATM   16  C   UNL     1     -11.755  11.974  66.416  1.00  0.00    -0.252 C  
BRANCH  16  17
HETATM   17  N   UNL     1     -10.949  12.187  65.204  1.00  0.00    -0.301 NA 
HETATM   18  C   UNL     1     -10.844  13.634  64.884  1.00  0.00    -0.375 C  
HETATM   19  C   UNL     1     -12.139  14.233  64.307  1.00  0.00    -0.441 C  
HETATM   20  C   UNL     1     -11.466  11.502  63.998  1.00  0.00    -0.244 C  
HETATM   21  C   UNL     1     -12.716  12.145  63.371  1.00  0.00    -0.381 C  
HETATM   22  O   UNL     1     -12.533  13.544  63.116  1.00  0.00    -0.759 OA 
ENDBRANCH  16  17
ENDBRANCH  15  16
ENDBRANCH  14  15
ENDBRANCH  13  14
ENDBRANCH   4  13
BRANCH  10  23
HETATM   23  N   UNL     1      -7.943  15.080  67.076  1.00  0.00    -0.282 NA 
HETATM   24  H   UNL     1      -7.730  15.284  66.100  1.00  0.00     0.000 HD 
BRANCH  23  25
HETATM   25  C   UNL     1      -7.304  13.934  67.603  1.00  0.00    -0.174 A  
HETATM   26 CL   UNL     1      -7.481   9.983  66.906  1.00  0.00    -0.094 Cl 
HETATM   27  C   UNL     1      -6.262  11.570  68.731  1.00  0.00    -0.051 A  
HETATM   28  C   UNL     1      -7.080  11.505  67.608  1.00  0.00    -0.098 A  
HETATM   29  C   UNL     1      -5.949  12.798  69.293  1.00  0.00    -0.093 A  
HETATM   30  F   UNL     1      -5.775  10.456  69.298  1.00  0.00    -0.038 F  
HETATM   31  C   UNL     1      -6.475  13.968  68.736  1.00  0.00    -0.093 A  
HETATM   32  C   UNL     1      -7.600  12.677  67.049  1.00  0.00     0.006 A  
ENDBRANCH  23  25
ENDBRANCH  10  23
ENDBRANCH   2   3
TORSDOF 8
ENDMDL
MODEL      125
REMARK 921   NORMALIZED FREE ENERGY PREDICTED BY IDOCK:   -5.15 KCAL/MOL
REMARK 922        TOTAL FREE ENERGY PREDICTED BY IDOCK:   -9.19 KCAL/MOL
REMARK 923 INTER-LIGAND FREE ENERGY PREDICTED BY IDOCK:   -9.06 KCAL/MOL
REMARK 924 INTRA-LIGAND FREE ENERGY PREDICTED BY IDOCK:   -0.13 KCAL/MOL
REMARK 927      BINDING AFFINITY PREDICTED BY RF-SCORE:    0.00 PKD
ROOT
HETATM    1  C   UNL     1     -10.688  19.145  65.886  1.00  0.00    -0.351 C  
HETATM    2  O   UNL     1      -9.908  17.973  65.655  1.00  0.00    -0.494 OA 
ENDROOT
BRANCH   2   3
HETATM    3  C   UNL     1     -10.480  16.792  66.050  1.00  0.00    -0.293 A  
HETATM    4  C   UNL     1     -10.772  16.611  67.403  1.00  0.00    -0.253 A  
HETATM    5  N   UNL     1     -11.512  13.618  64.629  1.00  0.00    -0.350 NA 
HETATM    6  C   UNL     1     -11.197  15.355  67.849  1.00  0.00    -0.329 A  
HETATM    7  C   UNL     1     -11.264  14.530  65.572  1.00  0.00    -0.335 A  
HETATM    8  C   UNL     1     -11.442  14.288  66.939  1.00  0.00    -0.377 A  
HETATM    9  C   UNL     1     -10.780  15.759  65.154  1.00  0.00    -0.455 A  
HETATM   10  C   UNL     1     -11.849  12.978  67.271  1.00  0.00    -0.363 A  
HETATM   11  N   UNL     1     -12.111  12.060  66.319  1.00  0.00    -0.528 NA 
HETATM   12  C   UNL     1     -11.937  12.430  65.049  1.00  0.00    -0.402 A  
BRANCH   4  13
HETATM   13  O   UNL     1     -10.622  17.546  68.394  1.00  0.00    -0.370 OA 
BRANCH  13  14
HETATM   14  C   UNL     1      -9.663  17.228  69.420  1.00  0.00     0.081 C  
BRANCH  14  15
HETATM   15  C   UNL     1      -8.279  17.274  68.772  1.00  0.00    -0.231 C  
BRANCH  15  16
HETATM   16  C   UNL     1      -7.292  16.229  69.307  1.00  0.00    -0.221 C  
BRANCH  16  17
HETATM   17  N   UNL     1      -5.865  16.522  69.102  1.00  0.00    -0.142 NA 
HETATM   18  C   UNL     1      -5.231  16.976  70.366  1.00  0.00    -0.227 C  
HETATM   19  C   UNL     1      -5.619  18.409  70.771  1.00  0.00    -0.131 C  
HETATM   20  C   UNL     1      -5.595  17.551  68.074  1.00  0.00    -0.134 C  
HETATM   21  C   UNL     1      -5.907  18.997  68.504  1.00  0.00    -0.216 C  
HETATM   22  O   UNL     1      -5.272  19.341  69.741  1.00  0.00    -0.189 OA 
ENDBRANCH  16  17
ENDBRANCH  15  16
ENDBRANCH  14  15
ENDBRANCH  13  14
ENDBRANCH   4  13
BRANCH  10  23
HETATM   23  N   UNL     1     -11.904  12.576  68.632  1.00  0.00    -0.312 NA 
HETATM   24  H   UNL     1     -12.302  13.266  69.269  1.00  0.00     0.000 HD 
BRANCH  23  25
HETATM   25  C   UNL     1     -11.492  11.368  69.238  1.00  0.00    -0.303 A  
HETATM   26 CL   UNL     1     -12.834   9.070  72.246  1.00  0.00    -0.467 Cl 
HETATM   27  C   UNL     1     -10.637   9.090  70.663  1.00  0.00    -0.236 A  
HETATM   28  C   UNL     1     -11.850   9.693  70.976  1.00  0.00    -0.347 A  
HETATM   29  C   UNL     1      -9.848   9.601  69.644  1.00  0.00    -0.233 A  
HETATM   30  F   UNL     1     -10.200   8.021  71.345  1.00  0.00    -0.202 F  
HETATM   31  C   UNL     1     -10.272  10.737  68.945  1.00  0.00    -0.219 A  
HETATM   32  C   UNL     1     -12.275  10.825  70.271  1.00  0.00    -0.431 A  
ENDBRANCH  23  25
ENDBRANCH  10  23
ENDBRANCH   2   3
TORSDOF 8
ENDMDL
MODEL      126
REMARK 921   NORMALIZED FREE ENERGY PREDICTED BY IDOCK:   -5.14 KCAL/MOL
REMARK 922        TOTAL FREE ENERGY PREDICTED BY IDOCK:   -9.17 KCAL/MOL
REMARK 923 INTER-LIGAND FREE ENERGY PREDICTED BY IDOCK:   -7.88 KCAL/MOL
REMARK 924 INTRA-LIGAND FREE ENERGY PREDICTED BY IDOCK:   -1.29 KCAL/MOL
REMARK 927      BINDING AFFINITY PREDICTED BY RF-SCORE:    0.00 PKD
ROOT
HETATM    1  C   UNL     1     -10.284   3.798  64.110  1.00  0.00    -0.235 C  
HETATM    2  O   UNL     1      -9.210   4.023  65.021  1.00  0.00    -0.134 OA 
ENDROOT
BRANCH   2   3
HETATM    3  C   UNL     1      -8.851   5.333  65.202  1.00  0.00    -0.129 A  
HETATM    4  C   UNL     1      -9.329   6.009  66.325  1.00  0.00    -0.145 A  
HETATM    5  N   UNL     1      -6.953   7.928  63.521  1.00  0.00    -0.074 NA 
HETATM    6  C   UNL     1      -9.114   7.387  66.439  1.00  0.00    -0.196 A  
HETATM    7  C   UNL     1      -7.749   7.374  64.438  1.00  0.00    -0.120 A  
HETATM    8  C   UNL     1      -8.325   8.095  65.490  1.00  0.00    -0.160 A  
HETATM    9  C   UNL     1      -8.026   6.023  64.305  1.00  0.00    -0.121 A  
HETATM   10  C   UNL     1      -8.058   9.481  65.487  1.00  0.00    -0.116 A  
HETATM   11  N   UNL     1      -7.244  10.039  64.568  1.00  0.00    -0.138 NA 
HETATM   12  C   UNL     1      -6.728   9.234  63.639  1.00  0.00    -0.092 A  
BRANCH   4  13
HETATM   13  O   UNL     1     -10.072   5.463  67.340  1.00  0.00    -0.154 OA 
BRANCH  13  14
HETATM   14  C   UNL     1     -11.134   6.286  67.857  1.00  0.00    -0.258 C  
BRANCH  14  15
HETATM   15  C   UNL     1     -11.057   6.215  69.382  1.00  0.00    -0.479 C  
BRANCH  15  16
HETATM   16  C   UNL     1     -11.028   7.579  70.082  1.00  0.00    -0.254 C  
BRANCH  16  17
HETATM   17  N   UNL     1     -11.431   7.589  71.497  1.00  0.00    -0.258 NA 
HETATM   18  C   UNL     1     -12.704   6.851  71.690  1.00  0.00    -0.352 C  
HETATM   19  C   UNL     1     -13.942   7.610  71.179  1.00  0.00    -0.157 C  
HETATM   20  C   UNL     1     -11.609   8.942  72.071  1.00  0.00    -0.364 C  
HETATM   21  C   UNL     1     -12.887   9.674  71.624  1.00  0.00    -0.405 C  
HETATM   22  O   UNL     1     -14.063   8.881  71.828  1.00  0.00    -0.394 OA 
ENDBRANCH  16  17
ENDBRANCH  15  16
ENDBRANCH  14  15
ENDBRANCH  13  14
ENDBRANCH   4  13
BRANCH  10  23
HETATM   23  N   UNL     1      -8.720  10.332  66.410  1.00  0.00    -0.133 NA 
HETATM   24  H   UNL     1      -8.311  10.358  67.344  1.00  0.00     0.000 HD 
BRANCH  23  25
HETATM   25  C   UNL     1      -9.861  11.149  66.234  1.00  0.00    -0.214 A  
HETATM   26 CL   UNL     1     -12.393  11.916  63.213  1.00  0.00    -0.616 Cl 
HETATM   27  C   UNL     1     -12.002  12.905  65.704  1.00  0.00    -0.440 A  
HETATM   28  C   UNL     1     -11.602  11.983  64.742  1.00  0.00    -0.281 A  
HETATM   29  C   UNL     1     -11.356  12.957  66.929  1.00  0.00    -0.358 A  
HETATM   30  F   UNL     1     -13.002  13.766  65.462  1.00  0.00    -0.524 F  
HETATM   31  C   UNL     1     -10.288  12.090  67.185  1.00  0.00    -0.235 A  
HETATM   32  C   UNL     1     -10.538  11.113  65.003  1.00  0.00    -0.340 A  
ENDBRANCH  23  25
ENDBRANCH  10  23
ENDBRANCH   2   3
TORSDOF 8
ENDMDL
MODEL      127
REMARK 921   NORMALIZED FREE ENERGY PREDICTED BY IDOCK:   -5.10 KCAL/MOL
REMARK 922        TOTAL FREE ENERGY PREDICTED BY IDOCK:   -9.12 KCAL/MOL
REMARK 923 INTER-LIGAND FREE ENERGY PREDICTED BY IDOCK:   -8.16 KCAL/MOL
REMARK 924 INTRA-LIGAND FREE ENERGY PREDICTED BY IDOCK:   -0.96 KCAL/MOL
REMARK 927      BINDING AFFINITY PREDICTED BY RF-SCORE:    0.00 PKD
ROOT
HETATM    1  C   UNL     1     -10.202   8.893  68.893  1.00  0.00    -0.206 C  
HETATM    2  O   UNL     1     -11.392   9.605  68.555  1.00  0.00    -0.024 OA 
ENDROOT
BRANCH   2   3
HETATM    3  C   UNL     1     -11.205  10.865  68.048  1.00  0.00    -0.314 A  
HETATM    4  C   UNL     1     -11.237  11.950  68.926  1.00  0.00    -0.254 A  
HETATM    5  N   UNL     1     -10.694  12.502  64.852  1.00  0.00    -0.284 NA 
HETATM    6  C   UNL     1     -11.218  13.249  68.408  1.00  0.00    -0.314 A  
HETATM    7  C   UNL     1     -10.900  12.389  66.166  1.00  0.00    -0.273 A  
HETATM    8  C   UNL     1     -11.057  13.491  67.015  1.00  0.00    -0.310 A  
HETATM    9  C   UNL     1     -10.987  11.108  66.687  1.00  0.00    -0.289 A  
HETATM   10  C   UNL     1     -11.046  14.750  66.376  1.00  0.00    -0.340 A  
HETATM   11  N   UNL     1     -10.825  14.865  65.051  1.00  0.00    -0.398 NA 
HETATM   12  C   UNL     1     -10.653  13.737  64.360  1.00  0.00    -0.295 A  
BRANCH   4  13
HETATM   13  O   UNL     1     -11.355  11.882  70.290  1.00  0.00    -0.073 OA 
BRANCH  13  14
HETATM   14  C   UNL     1     -12.393  11.020  70.791  1.00  0.00    -0.398 C  
BRANCH  14  15
HETATM   15  C   UNL     1     -13.078  11.761  71.939  1.00  0.00    -0.482 C  
BRANCH  15  16
HETATM   16  C   UNL     1     -14.020  12.888  71.497  1.00  0.00     0.735 C  
BRANCH  16  17
HETATM   17  N   UNL     1     -14.082  14.063  72.379  1.00  0.00    -0.637 NA 
HETATM   18  C   UNL     1     -14.342  15.299  71.597  1.00  0.00    -0.561 C  
HETATM   19  C   UNL     1     -13.125  15.786  70.790  1.00  0.00    -0.102 C  
HETATM   20  C   UNL     1     -12.858  14.292  73.179  1.00  0.00    -0.296 C  
HETATM   21  C   UNL     1     -11.661  14.854  72.389  1.00  0.00    -0.223 C  
HETATM   22  O   UNL     1     -12.008  16.032  71.650  1.00  0.00    -0.441 OA 
ENDBRANCH  16  17
ENDBRANCH  15  16
ENDBRANCH  14  15
ENDBRANCH  13  14
ENDBRANCH   4  13
BRANCH  10  23
HETATM   23  N   UNL     1     -11.357  15.921  67.115  1.00  0.00    -0.062 NA 
HETATM   24  H   UNL     1     -12.334  16.010  67.393  1.00  0.00     0.000 HD 
BRANCH  23  25
HETATM   25  C   UNL     1     -10.519  16.984  67.524  1.00  0.00    -0.334 A  
HETATM   26 CL   UNL     1      -6.808  17.287  69.030  1.00  0.00    -0.236 Cl 
HETATM   27  C   UNL     1      -8.855  19.002  68.575  1.00  0.00    -0.362 A  
HETATM   28  C   UNL     1      -8.392  17.694  68.485  1.00  0.00    -0.291 A  
HETATM   29  C   UNL     1     -10.132  19.320  68.141  1.00  0.00    -0.507 A  
HETATM   30  F   UNL     1      -8.088  19.972  69.095  1.00  0.00    -0.234 F  
HETATM   31  C   UNL     1     -10.958  18.314  67.628  1.00  0.00    -0.134 A  
HETATM   32  C   UNL     1      -9.217  16.691  67.965  1.00  0.00    -0.223 A  
ENDBRANCH  23  25
ENDBRANCH  10  23
ENDBRANCH   2   3
TORSDOF 8
ENDMDL
MODEL      128
REMARK 921   NORMALIZED FREE ENERGY PREDICTED BY IDOCK:   -5.09 KCAL/MOL
REMARK 922        TOTAL FREE ENERGY PREDICTED BY IDOCK:   -9.10 KCAL/MOL
REMARK 923 INTER-LIGAND FREE ENERGY PREDICTED BY IDOCK:   -7.75 KCAL/MOL
REMARK 924 INTRA-LIGAND FREE ENERGY PREDICTED BY IDOCK:   -1.36 KCAL/MOL
REMARK 927      BINDING AFFINITY PREDICTED BY RF-SCORE:    0.00 PKD
ROOT
HETATM    1  C   UNL     1      -6.086   8.578  72.282  1.00  0.00    -0.070 C  
HETATM    2  O   UNL     1      -6.691   8.407  71.002  1.00  0.00    -0.041 OA 
ENDROOT
BRANCH   2   3
HETATM    3  C   UNL     1      -8.019   8.737  70.925  1.00  0.00    -0.135 A  
HETATM    4  C   UNL     1      -8.406   9.752  70.048  1.00  0.00    -0.192 A  
HETATM    5  N   UNL     1     -11.179   7.828  72.458  1.00  0.00    -0.335 NA 
HETATM    6  C   UNL     1      -9.725  10.217  70.079  1.00  0.00    -0.144 A  
HETATM    7  C   UNL     1     -10.328   8.507  71.684  1.00  0.00    -0.263 A  
HETATM    8  C   UNL     1     -10.708   9.606  70.906  1.00  0.00    -0.402 A  
HETATM    9  C   UNL     1      -9.003   8.101  71.691  1.00  0.00    -0.212 A  
HETATM   10  C   UNL     1     -12.058   9.999  71.038  1.00  0.00    -0.373 A  
HETATM   11  N   UNL     1     -12.920   9.307  71.809  1.00  0.00    -0.366 NA 
HETATM   12  C   UNL     1     -12.439   8.255  72.472  1.00  0.00    -0.243 A  
BRANCH   4  13
HETATM   13  O   UNL     1      -7.588  10.415  69.170  1.00  0.00    -0.095 OA 
BRANCH  13  14
HETATM   14  C   UNL     1      -8.219  10.910  67.974  1.00  0.00    -0.121 C  
BRANCH  14  15
HETATM   15  C   UNL     1      -7.115  11.496  67.093  1.00  0.00    -0.140 C  
BRANCH  15  16
HETATM   16  C   UNL     1      -6.567  12.846  67.574  1.00  0.00    -0.157 C  
BRANCH  16  17
HETATM   17  N   UNL     1      -7.530  13.734  68.243  1.00  0.00    -0.108 NA 
HETATM   18  C   UNL     1      -7.949  14.837  67.341  1.00  0.00    -0.197 C  
HETATM   19  C   UNL     1      -6.869  15.915  67.141  1.00  0.00    -0.164 C  
HETATM   20  C   UNL     1      -7.029  14.348  69.492  1.00  0.00    -0.119 C  
HETATM   21  C   UNL     1      -6.006  15.482  69.295  1.00  0.00    -0.112 C  
HETATM   22  O   UNL     1      -6.485  16.490  68.395  1.00  0.00    -0.128 OA 
ENDBRANCH  16  17
ENDBRANCH  15  16
ENDBRANCH  14  15
ENDBRANCH  13  14
ENDBRANCH   4  13
BRANCH  10  23
HETATM   23  N   UNL     1     -12.510  11.195  70.420  1.00  0.00    -0.311 NA 
HETATM   24  H   UNL     1     -12.747  11.108  69.432  1.00  0.00     0.000 HD 
BRANCH  23  25
HETATM   25  C   UNL     1     -12.683  12.488  70.966  1.00  0.00    -0.225 A  
HETATM   26 CL   UNL     1     -11.332  16.168  70.094  1.00  0.00    -0.357 Cl 
HETATM   27  C   UNL     1     -12.777  15.066  72.102  1.00  0.00    -0.331 A  
HETATM   28  C   UNL     1     -12.116  14.860  70.896  1.00  0.00    -0.317 A  
HETATM   29  C   UNL     1     -13.399  14.007  72.744  1.00  0.00    -0.603 A  
HETATM   30  F   UNL     1     -12.812  16.280  72.672  1.00  0.00    -0.476 F  
HETATM   31  C   UNL     1     -13.343  12.728  72.182  1.00  0.00    -0.593 A  
HETATM   32  C   UNL     1     -12.067  13.580  70.332  1.00  0.00    -0.415 A  
ENDBRANCH  23  25
ENDBRANCH  10  23
ENDBRANCH   2   3
TORSDOF 8
ENDMDL
MODEL      129
REMARK 921   NORMALIZED FREE ENERGY PREDICTED BY IDOCK:   -5.09 KCAL/MOL
REMARK 922        TOTAL FREE ENERGY PREDICTED BY IDOCK:   -9.10 KCAL/MOL
REMARK 923 INTER-LIGAND FREE ENERGY PREDICTED BY IDOCK:   -7.67 KCAL/MOL
REMARK 924 INTRA-LIGAND FREE ENERGY PREDICTED BY IDOCK:   -1.43 KCAL/MOL
REMARK 927      BINDING AFFINITY PREDICTED BY RF-SCORE:    0.00 PKD
ROOT
HETATM    1  C   UNL     1      -8.422   4.917  70.501  1.00  0.00    -0.097 C  
HETATM    2  O   UNL     1      -8.597   5.793  71.613  1.00  0.00    -0.130 OA 
ENDROOT
BRANCH   2   3
HETATM    3  C   UNL     1      -9.576   6.743  71.471  1.00  0.00    -0.163 A  
HETATM    4  C   UNL     1      -9.196   8.059  71.204  1.00  0.00    -0.149 A  
HETATM    5  N   UNL     1     -13.187   7.029  71.665  1.00  0.00    -0.359 NA 
HETATM    6  C   UNL     1     -10.166   9.068  71.223  1.00  0.00    -0.384 A  
HETATM    7  C   UNL     1     -11.918   7.427  71.541  1.00  0.00    -0.307 A  
HETATM    8  C   UNL     1     -11.545   8.769  71.401  1.00  0.00    -0.366 A  
HETATM    9  C   UNL     1     -10.940   6.447  71.585  1.00  0.00    -0.302 A  
HETATM   10  C   UNL     1     -12.606   9.698  71.462  1.00  0.00    -0.391 A  
HETATM   11  N   UNL     1     -13.888   9.297  71.574  1.00  0.00    -0.326 NA 
HETATM   12  C   UNL     1     -14.112   7.985  71.661  1.00  0.00    -0.431 A  
BRANCH   4  13
HETATM   13  O   UNL     1      -7.919   8.502  70.979  1.00  0.00    -0.093 OA 
BRANCH  13  14
HETATM   14  C   UNL     1      -7.725   9.292  69.792  1.00  0.00    -0.096 C  
BRANCH  14  15
HETATM   15  C   UNL     1      -6.343   9.936  69.900  1.00  0.00    -0.063 C  
BRANCH  15  16
HETATM   16  C   UNL     1      -6.331  11.455  69.689  1.00  0.00    -0.127 C  
BRANCH  16  17
HETATM   17  N   UNL     1      -5.869  11.922  68.372  1.00  0.00    -0.049 NA 
HETATM   18  C   UNL     1      -5.622  13.386  68.386  1.00  0.00    -0.088 C  
HETATM   19  C   UNL     1      -6.909  14.229  68.396  1.00  0.00    -0.104 C  
HETATM   20  C   UNL     1      -6.804  11.639  67.261  1.00  0.00    -0.129 C  
HETATM   21  C   UNL     1      -8.056  12.533  67.222  1.00  0.00    -0.179 C  
HETATM   22  O   UNL     1      -7.725  13.927  67.259  1.00  0.00    -0.164 OA 
ENDBRANCH  16  17
ENDBRANCH  15  16
ENDBRANCH  14  15
ENDBRANCH  13  14
ENDBRANCH   4  13
BRANCH  10  23
HETATM   23  N   UNL     1     -12.327  11.090  71.493  1.00  0.00    -0.255 NA 
HETATM   24  H   UNL     1     -12.143  11.473  72.420  1.00  0.00     0.000 HD 
BRANCH  23  25
HETATM   25  C   UNL     1     -12.265  12.026  70.435  1.00  0.00    -0.294 A  
HETATM   26 CL   UNL     1     -11.545  11.842  66.488  1.00  0.00    -0.385 Cl 
HETATM   27  C   UNL     1     -11.896  13.826  68.298  1.00  0.00    -0.378 A  
HETATM   28  C   UNL     1     -11.848  12.455  68.069  1.00  0.00    -0.316 A  
HETATM   29  C   UNL     1     -12.134  14.312  69.573  1.00  0.00    -0.376 A  
HETATM   30  F   UNL     1     -11.698  14.700  67.299  1.00  0.00    -0.355 F  
HETATM   31  C   UNL     1     -12.308  13.415  70.633  1.00  0.00    -0.423 A  
HETATM   32  C   UNL     1     -12.029  11.560  69.130  1.00  0.00    -0.386 A  
ENDBRANCH  23  25
ENDBRANCH  10  23
ENDBRANCH   2   3
TORSDOF 8
ENDMDL
MODEL      130
REMARK 921   NORMALIZED FREE ENERGY PREDICTED BY IDOCK:   -5.08 KCAL/MOL
REMARK 922        TOTAL FREE ENERGY PREDICTED BY IDOCK:   -9.09 KCAL/MOL
REMARK 923 INTER-LIGAND FREE ENERGY PREDICTED BY IDOCK:   -7.76 KCAL/MOL
REMARK 924 INTRA-LIGAND FREE ENERGY PREDICTED BY IDOCK:   -1.33 KCAL/MOL
REMARK 927      BINDING AFFINITY PREDICTED BY RF-SCORE:    0.00 PKD
ROOT
HETATM    1  C   UNL     1     -10.433   8.669  70.734  1.00  0.00    -0.204 C  
HETATM    2  O   UNL     1     -10.197   8.767  69.331  1.00  0.00    -0.199 OA 
ENDROOT
BRANCH   2   3
HETATM    3  C   UNL     1      -9.367   9.785  68.938  1.00  0.00    -0.158 A  
HETATM    4  C   UNL     1      -9.907  11.060  68.769  1.00  0.00    -0.198 A  
HETATM    5  N   UNL     1      -5.900  10.311  68.010  1.00  0.00    -0.041 NA 
HETATM    6  C   UNL     1      -9.117  12.070  68.209  1.00  0.00    -0.190 A  
HETATM    7  C   UNL     1      -7.188  10.605  68.204  1.00  0.00    -0.086 A  
HETATM    8  C   UNL     1      -7.742  11.855  67.908  1.00  0.00    -0.131 A  
HETATM    9  C   UNL     1      -8.000   9.597  68.698  1.00  0.00    -0.089 A  
HETATM   10  C   UNL     1      -6.855  12.785  67.323  1.00  0.00    -0.080 A  
HETATM   11  N   UNL     1      -5.552  12.493  67.138  1.00  0.00    -0.322 NA 
HETATM   12  C   UNL     1      -5.141  11.276  67.498  1.00  0.00    -0.043 A  
BRANCH   4  13
HETATM   13  O   UNL     1     -11.198  11.434  69.042  1.00  0.00    -0.214 OA 
BRANCH  13  14
HETATM   14  C   UNL     1     -11.775  12.403  68.148  1.00  0.00    -0.353 C  
BRANCH  14  15
HETATM   15  C   UNL     1     -11.966  13.693  68.946  1.00  0.00    -0.392 C  
BRANCH  15  16
HETATM   16  C   UNL     1     -12.355  13.481  70.414  1.00  0.00    -0.327 C  
BRANCH  16  17
HETATM   17  N   UNL     1     -13.373  14.397  70.952  1.00  0.00    -0.310 NA 
HETATM   18  C   UNL     1     -12.929  15.809  70.838  1.00  0.00    -0.267 C  
HETATM   19  C   UNL     1     -11.836  16.196  71.850  1.00  0.00    -0.525 C  
HETATM   20  C   UNL     1     -13.725  14.154  72.369  1.00  0.00    -0.544 C  
HETATM   21  C   UNL     1     -12.667  14.612  73.389  1.00  0.00    -0.408 C  
HETATM   22  O   UNL     1     -12.283  15.978  73.192  1.00  0.00    -0.447 OA 
ENDBRANCH  16  17
ENDBRANCH  15  16
ENDBRANCH  14  15
ENDBRANCH  13  14
ENDBRANCH   4  13
BRANCH  10  23
HETATM   23  N   UNL     1      -7.347  14.024  66.836  1.00  0.00    -0.270 NA 
HETATM   24  H   UNL     1      -7.673  14.009  65.870  1.00  0.00     0.000 HD 
BRANCH  23  25
HETATM   25  C   UNL     1      -7.456  15.275  67.486  1.00  0.00    -0.190 A  
HETATM   26 CL   UNL     1     -10.468  17.755  68.438  1.00  0.00    -0.368 Cl 
HETATM   27  C   UNL     1      -7.764  17.862  68.562  1.00  0.00    -0.297 A  
HETATM   28  C   UNL     1      -8.884  17.110  68.224  1.00  0.00    -0.245 A  
HETATM   29  C   UNL     1      -6.494  17.339  68.381  1.00  0.00    -0.164 A  
HETATM   30  F   UNL     1      -7.888  19.105  69.052  1.00  0.00    -0.361 F  
HETATM   31  C   UNL     1      -6.345  16.058  67.838  1.00  0.00    -0.155 A  
HETATM   32  C   UNL     1      -8.733  15.827  67.687  1.00  0.00    -0.178 A  
ENDBRANCH  23  25
ENDBRANCH  10  23
ENDBRANCH   2   3
TORSDOF 8
ENDMDL
MODEL      131
REMARK 921   NORMALIZED FREE ENERGY PREDICTED BY IDOCK:   -5.07 KCAL/MOL
REMARK 922        TOTAL FREE ENERGY PREDICTED BY IDOCK:   -9.08 KCAL/MOL
REMARK 923 INTER-LIGAND FREE ENERGY PREDICTED BY IDOCK:   -7.65 KCAL/MOL
REMARK 924 INTRA-LIGAND FREE ENERGY PREDICTED BY IDOCK:   -1.42 KCAL/MOL
REMARK 927      BINDING AFFINITY PREDICTED BY RF-SCORE:    0.00 PKD
ROOT
HETATM    1  C   UNL     1      -5.550   9.631  71.370  1.00  0.00    -0.074 C  
HETATM    2  O   UNL     1      -6.620  10.445  70.894  1.00  0.00    -0.341 OA 
ENDROOT
BRANCH   2   3
HETATM    3  C   UNL     1      -7.308   9.949  69.817  1.00  0.00    -0.129 A  
HETATM    4  C   UNL     1      -7.067  10.500  68.558  1.00  0.00    -0.075 A  
HETATM    5  N   UNL     1      -9.876   7.495  69.080  1.00  0.00    -0.166 NA 
HETATM    6  C   UNL     1      -7.877  10.126  67.480  1.00  0.00    -0.102 A  
HETATM    7  C   UNL     1      -9.011   8.487  68.856  1.00  0.00    -0.146 A  
HETATM    8  C   UNL     1      -8.871   9.117  67.614  1.00  0.00    -0.123 A  
HETATM    9  C   UNL     1      -8.246   8.915  69.928  1.00  0.00    -0.118 A  
HETATM   10  C   UNL     1      -9.759   8.674  66.610  1.00  0.00    -0.247 A  
HETATM   11  N   UNL     1     -10.625   7.664  66.832  1.00  0.00    -0.341 NA 
HETATM   12  C   UNL     1     -10.633   7.123  68.051  1.00  0.00    -0.196 A  
BRANCH   4  13
HETATM   13  O   UNL     1      -6.128  11.453  68.260  1.00  0.00    -0.046 OA 
BRANCH  13  14
HETATM   14  C   UNL     1      -6.475  12.374  67.210  1.00  0.00    -0.140 C  
BRANCH  14  15
HETATM   15  C   UNL     1      -7.056  13.621  67.877  1.00  0.00    -0.151 C  
BRANCH  15  16
HETATM   16  C   UNL     1      -8.345  14.145  67.233  1.00  0.00    -0.196 C  
BRANCH  16  17
HETATM   17  N   UNL     1      -8.889  15.390  67.795  1.00  0.00    -0.167 NA 
HETATM   18  C   UNL     1     -10.152  15.772  67.114  1.00  0.00    -0.251 C  
HETATM   19  C   UNL     1      -9.943  16.330  65.695  1.00  0.00    -0.274 C  
HETATM   20  C   UNL     1      -7.972  16.549  67.714  1.00  0.00    -0.160 C  
HETATM   21  C   UNL     1      -7.822  17.161  66.309  1.00  0.00    -0.316 C  
HETATM   22  O   UNL     1      -9.089  17.479  65.720  1.00  0.00    -0.509 OA 
ENDBRANCH  16  17
ENDBRANCH  15  16
ENDBRANCH  14  15
ENDBRANCH  13  14
ENDBRANCH   4  13
BRANCH  10  23
HETATM   23  N   UNL     1      -9.815   9.352  65.364  1.00  0.00    -0.445 NA 
HETATM   24  H   UNL     1      -9.398   8.850  64.581  1.00  0.00     0.000 HD 
BRANCH  23  25
HETATM   25  C   UNL     1     -10.359  10.617  65.043  1.00  0.00    -0.271 A  
HETATM   26 CL   UNL     1     -12.482  13.402  67.010  1.00  0.00    -0.206 Cl 
HETATM   27  C   UNL     1     -11.676  13.037  64.450  1.00  0.00    -0.373 A  
HETATM   28  C   UNL     1     -11.671  12.548  65.752  1.00  0.00    -0.426 A  
HETATM   29  C   UNL     1     -11.027  12.342  63.443  1.00  0.00    -0.467 A  
HETATM   30  F   UNL     1     -12.318  14.174  64.142  1.00  0.00    -0.467 F  
HETATM   31  C   UNL     1     -10.382  11.136  63.739  1.00  0.00    -0.447 A  
HETATM   32  C   UNL     1     -11.019  11.346  66.048  1.00  0.00    -0.286 A  
ENDBRANCH  23  25
ENDBRANCH  10  23
ENDBRANCH   2   3
TORSDOF 8
ENDMDL
MODEL      132
REMARK 921   NORMALIZED FREE ENERGY PREDICTED BY IDOCK:   -5.06 KCAL/MOL
REMARK 922        TOTAL FREE ENERGY PREDICTED BY IDOCK:   -9.06 KCAL/MOL
REMARK 923 INTER-LIGAND FREE ENERGY PREDICTED BY IDOCK:   -7.67 KCAL/MOL
REMARK 924 INTRA-LIGAND FREE ENERGY PREDICTED BY IDOCK:   -1.39 KCAL/MOL
REMARK 927      BINDING AFFINITY PREDICTED BY RF-SCORE:    0.00 PKD
ROOT
HETATM    1  C   UNL     1      -5.444  15.560  68.392  1.00  0.00    -0.105 C  
HETATM    2  O   UNL     1      -6.001  14.559  69.242  1.00  0.00    -0.098 OA 
ENDROOT
BRANCH   2   3
HETATM    3  C   UNL     1      -7.332  14.293  69.052  1.00  0.00    -0.117 A  
HETATM    4  C   UNL     1      -7.706  13.010  68.650  1.00  0.00    -0.069 A  
HETATM    5  N   UNL     1     -10.529  16.003  69.169  1.00  0.00    -0.232 NA 
HETATM    6  C   UNL     1      -9.036  12.766  68.289  1.00  0.00    -0.175 A  
HETATM    7  C   UNL     1      -9.663  15.010  68.951  1.00  0.00    -0.224 A  
HETATM    8  C   UNL     1     -10.037  13.768  68.426  1.00  0.00    -0.241 A  
HETATM    9  C   UNL     1      -8.331  15.255  69.242  1.00  0.00    -0.243 A  
HETATM   10  C   UNL     1     -11.399  13.648  68.075  1.00  0.00    -0.285 A  
HETATM   11  N   UNL     1     -12.276  14.646  68.306  1.00  0.00    -0.160 NA 
HETATM   12  C   UNL     1     -11.798  15.767  68.847  1.00  0.00    -0.341 A  
BRANCH   4  13
HETATM   13  O   UNL     1      -6.870  11.934  68.501  1.00  0.00    -0.065 OA 
BRANCH  13  14
HETATM   14  C   UNL     1      -6.651  11.138  69.680  1.00  0.00    -0.139 C  
BRANCH  14  15
HETATM   15  C   UNL     1      -7.326   9.787  69.444  1.00  0.00    -0.087 C  
BRANCH  15  16
HETATM   16  C   UNL     1      -8.620   9.575  70.239  1.00  0.00    -0.226 C  
BRANCH  16  17
HETATM   17  N   UNL     1      -9.867   9.577  69.458  1.00  0.00    -0.182 NA 
HETATM   18  C   UNL     1     -10.974  10.199  70.228  1.00  0.00    -0.317 C  
HETATM   19  C   UNL     1     -11.512   9.309  71.363  1.00  0.00    -0.369 C  
HETATM   20  C   UNL     1     -10.321   8.236  69.030  1.00  0.00    -0.221 C  
HETATM   21  C   UNL     1     -10.934   7.371  70.147  1.00  0.00    -0.255 C  
HETATM   22  O   UNL     1     -11.978   8.056  70.850  1.00  0.00    -0.278 OA 
ENDBRANCH  16  17
ENDBRANCH  15  16
ENDBRANCH  14  15
ENDBRANCH  13  14
ENDBRANCH   4  13
BRANCH  10  23
HETATM   23  N   UNL     1     -11.854  12.492  67.387  1.00  0.00    -0.460 NA 
HETATM   24  H   UNL     1     -12.576  11.958  67.870  1.00  0.00     0.000 HD 
BRANCH  23  25
HETATM   25  C   UNL     1     -11.460  11.970  66.134  1.00  0.00    -0.339 A  
HETATM   26 CL   UNL     1      -8.880   9.154  64.890  1.00  0.00    -0.226 Cl 
HETATM   27  C   UNL     1     -10.438  11.013  63.687  1.00  0.00    -0.322 A  
HETATM   28  C   UNL     1     -10.028  10.439  64.885  1.00  0.00    -0.339 A  
HETATM   29  C   UNL     1     -11.357  12.051  63.691  1.00  0.00    -0.536 A  
HETATM   30  F   UNL     1      -9.945  10.590  62.513  1.00  0.00    -0.291 F  
HETATM   31  C   UNL     1     -11.855  12.528  64.908  1.00  0.00    -0.438 A  
HETATM   32  C   UNL     1     -10.532  10.914  66.100  1.00  0.00    -0.290 A  
ENDBRANCH  23  25
ENDBRANCH  10  23
ENDBRANCH   2   3
TORSDOF 8
ENDMDL
MODEL      133
REMARK 921   NORMALIZED FREE ENERGY PREDICTED BY IDOCK:   -5.06 KCAL/MOL
REMARK 922        TOTAL FREE ENERGY PREDICTED BY IDOCK:   -9.06 KCAL/MOL
REMARK 923 INTER-LIGAND FREE ENERGY PREDICTED BY IDOCK:   -8.35 KCAL/MOL
REMARK 924 INTRA-LIGAND FREE ENERGY PREDICTED BY IDOCK:   -0.70 KCAL/MOL
REMARK 927      BINDING AFFINITY PREDICTED BY RF-SCORE:    0.00 PKD
ROOT
HETATM    1  C   UNL     1      -5.412  12.267  70.260  1.00  0.00    -0.139 C  
HETATM    2  O   UNL     1      -5.922  12.013  68.952  1.00  0.00    -0.055 OA 
ENDROOT
BRANCH   2   3
HETATM    3  C   UNL     1      -6.734  12.987  68.432  1.00  0.00    -0.093 A  
HETATM    4  C   UNL     1      -8.112  12.766  68.409  1.00  0.00    -0.129 A  
HETATM    5  N   UNL     1      -6.471  16.242  66.853  1.00  0.00    -0.286 NA 
HETATM    6  C   UNL     1      -8.939  13.669  67.732  1.00  0.00    -0.196 A  
HETATM    7  C   UNL     1      -7.054  15.129  67.306  1.00  0.00    -0.126 A  
HETATM    8  C   UNL     1      -8.421  14.865  67.161  1.00  0.00    -0.244 A  
HETATM    9  C   UNL     1      -6.239  14.193  67.921  1.00  0.00    -0.164 A  
HETATM   10  C   UNL     1      -9.148  15.835  66.438  1.00  0.00    -0.322 A  
HETATM   11  N   UNL     1      -8.564  16.965  65.992  1.00  0.00    -0.516 NA 
HETATM   12  C   UNL     1      -7.260  17.113  66.228  1.00  0.00    -0.273 A  
BRANCH   4  13
HETATM   13  O   UNL     1      -8.766  11.685  68.941  1.00  0.00    -0.059 OA 
BRANCH  13  14
HETATM   14  C   UNL     1     -10.042  11.369  68.355  1.00  0.00    -0.201 C  
BRANCH  14  15
HETATM   15  C   UNL     1     -10.145   9.845  68.295  1.00  0.00    -0.185 C  
BRANCH  15  16
HETATM   16  C   UNL     1     -11.133   9.234  69.296  1.00  0.00    -0.009 C  
BRANCH  16  17
HETATM   17  N   UNL     1     -10.890   9.541  70.714  1.00  0.00    -0.291 NA 
HETATM   18  C   UNL     1     -10.748   8.295  71.509  1.00  0.00    -0.235 C  
HETATM   19  C   UNL     1     -12.078   7.558  71.744  1.00  0.00    -0.308 C  
HETATM   20  C   UNL     1     -11.947  10.357  71.352  1.00  0.00    -0.285 C  
HETATM   21  C   UNL     1     -13.253   9.603  71.662  1.00  0.00    -0.411 C  
HETATM   22  O   UNL     1     -13.019   8.405  72.413  1.00  0.00    -0.322 OA 
ENDBRANCH  16  17
ENDBRANCH  15  16
ENDBRANCH  14  15
ENDBRANCH  13  14
ENDBRANCH   4  13
BRANCH  10  23
HETATM   23  N   UNL     1     -10.504  15.592  66.093  1.00  0.00    -0.305 NA 
HETATM   24  H   UNL     1     -11.152  16.341  66.337  1.00  0.00     0.000 HD 
BRANCH  23  25
HETATM   25  C   UNL     1     -11.092  14.472  65.463  1.00  0.00    -0.339 A  
HETATM   26 CL   UNL     1      -9.827  11.616  62.938  1.00  0.00    -0.323 Cl 
HETATM   27  C   UNL     1     -12.215  12.352  63.983  1.00  0.00    -0.490 A  
HETATM   28  C   UNL     1     -10.846  12.593  63.925  1.00  0.00    -0.429 A  
HETATM   29  C   UNL     1     -13.029  13.146  64.774  1.00  0.00    -0.176 A  
HETATM   30  F   UNL     1     -12.773  11.364  63.267  1.00  0.00    -0.541 F  
HETATM   31  C   UNL     1     -12.469  14.202  65.500  1.00  0.00    -0.495 A  
HETATM   32  C   UNL     1     -10.288  13.646  64.658  1.00  0.00    -0.407 A  
ENDBRANCH  23  25
ENDBRANCH  10  23
ENDBRANCH   2   3
TORSDOF 8
ENDMDL
MODEL      134
REMARK 921   NORMALIZED FREE ENERGY PREDICTED BY IDOCK:   -5.06 KCAL/MOL
REMARK 922        TOTAL FREE ENERGY PREDICTED BY IDOCK:   -9.06 KCAL/MOL
REMARK 923 INTER-LIGAND FREE ENERGY PREDICTED BY IDOCK:   -7.92 KCAL/MOL
REMARK 924 INTRA-LIGAND FREE ENERGY PREDICTED BY IDOCK:   -1.14 KCAL/MOL
REMARK 927      BINDING AFFINITY PREDICTED BY RF-SCORE:    0.00 PKD
ROOT
HETATM    1  C   UNL     1     -11.419  15.607  70.358  1.00  0.00    -0.354 C  
HETATM    2  O   UNL     1     -12.193  14.696  69.581  1.00  0.00    -0.314 OA 
ENDROOT
BRANCH   2   3
HETATM    3  C   UNL     1     -11.999  13.367  69.857  1.00  0.00    -0.338 A  
HETATM    4  C   UNL     1     -11.076  12.653  69.091  1.00  0.00    -0.195 A  
HETATM    5  N   UNL     1     -13.275  10.799  72.078  1.00  0.00    -0.455 NA 
HETATM    6  C   UNL     1     -10.987  11.265  69.244  1.00  0.00    -0.297 A  
HETATM    7  C   UNL     1     -12.565  11.332  71.081  1.00  0.00    -0.397 A  
HETATM    8  C   UNL     1     -11.738  10.579  70.239  1.00  0.00    -0.420 A  
HETATM    9  C   UNL     1     -12.690  12.696  70.873  1.00  0.00    -0.274 A  
HETATM   10  C   UNL     1     -11.750   9.187  70.472  1.00  0.00    -0.152 A  
HETATM   11  N   UNL     1     -12.457   8.649  71.486  1.00  0.00    -0.314 NA 
HETATM   12  C   UNL     1     -13.175   9.482  72.240  1.00  0.00    -0.421 A  
BRANCH   4  13
HETATM   13  O   UNL     1     -10.258  13.172  68.121  1.00  0.00    -0.227 OA 
BRANCH  13  14
HETATM   14  C   UNL     1      -8.943  12.595  68.030  1.00  0.00    -0.200 C  
BRANCH  14  15
HETATM   15  C   UNL     1      -7.945  13.753  67.992  1.00  0.00    -0.156 C  
BRANCH  15  16
HETATM   16  C   UNL     1      -8.548  15.123  68.322  1.00  0.00    -0.164 C  
BRANCH  16  17
HETATM   17  N   UNL     1      -8.247  16.208  67.374  1.00  0.00    -0.155 NA 
HETATM   18  C   UNL     1      -8.900  17.474  67.793  1.00  0.00    -0.241 C  
HETATM   19  C   UNL     1     -10.421  17.492  67.558  1.00  0.00    -0.355 C  
HETATM   20  C   UNL     1      -8.662  15.934  65.980  1.00  0.00    -0.188 C  
HETATM   21  C   UNL     1     -10.177  16.028  65.723  1.00  0.00    -0.377 C  
HETATM   22  O   UNL     1     -10.725  17.272  66.176  1.00  0.00    -0.236 OA 
ENDBRANCH  16  17
ENDBRANCH  15  16
ENDBRANCH  14  15
ENDBRANCH  13  14
ENDBRANCH   4  13
BRANCH  10  23
HETATM   23  N   UNL     1     -11.077   8.314  69.578  1.00  0.00    -0.442 NA 
HETATM   24  H   UNL     1     -11.374   8.380  68.604  1.00  0.00     0.000 HD 
BRANCH  23  25
HETATM   25  C   UNL     1     -10.058   7.367  69.830  1.00  0.00    -0.193 A  
HETATM   26 CL   UNL     1      -9.914   3.654  71.356  1.00  0.00    -0.214 Cl 
HETATM   27  C   UNL     1      -8.087   5.497  70.581  1.00  0.00    -0.115 A  
HETATM   28  C   UNL     1      -9.434   5.180  70.714  1.00  0.00    -0.167 A  
HETATM   29  C   UNL     1      -7.709   6.728  70.070  1.00  0.00    -0.102 A  
HETATM   30  F   UNL     1      -7.132   4.631  70.955  1.00  0.00    -0.033 F  
HETATM   31  C   UNL     1      -8.690   7.657  69.706  1.00  0.00    -0.140 A  
HETATM   32  C   UNL     1     -10.414   6.107  70.344  1.00  0.00    -0.288 A  
ENDBRANCH  23  25
ENDBRANCH  10  23
ENDBRANCH   2   3
TORSDOF 8
ENDMDL
MODEL      135
REMARK 921   NORMALIZED FREE ENERGY PREDICTED BY IDOCK:   -5.04 KCAL/MOL
REMARK 922        TOTAL FREE ENERGY PREDICTED BY IDOCK:   -9.03 KCAL/MOL
REMARK 923 INTER-LIGAND FREE ENERGY PREDICTED BY IDOCK:   -7.80 KCAL/MOL
REMARK 924 INTRA-LIGAND FREE ENERGY PREDICTED BY IDOCK:   -1.24 KCAL/MOL
REMARK 927      BINDING AFFINITY PREDICTED BY RF-SCORE:    0.00 PKD
ROOT
HETATM    1  C   UNL     1     -11.953  13.664  66.812  1.00  0.00    -0.414 C  
HETATM    2  O   UNL     1     -11.159  12.480  66.767  1.00  0.00    -0.256 OA 
ENDROOT
BRANCH   2   3
HETATM    3  C   UNL     1     -11.062  11.786  67.945  1.00  0.00    -0.245 A  
HETATM    4  C   UNL     1      -9.846  11.182  68.268  1.00  0.00    -0.189 A  
HETATM    5  N   UNL     1     -13.147  10.815  70.751  1.00  0.00    -0.252 NA 
HETATM    6  C   UNL     1      -9.776  10.332  69.377  1.00  0.00    -0.242 A  
HETATM    7  C   UNL     1     -12.061  10.869  69.975  1.00  0.00    -0.355 A  
HETATM    8  C   UNL     1     -10.888  10.154  70.247  1.00  0.00    -0.370 A  
HETATM    9  C   UNL     1     -12.134  11.655  68.837  1.00  0.00    -0.253 A  
HETATM   10  C   UNL     1     -10.945   9.311  71.377  1.00  0.00    -0.359 A  
HETATM   11  N   UNL     1     -12.036   9.265  72.168  1.00  0.00    -0.329 NA 
HETATM   12  C   UNL     1     -13.076  10.025  71.819  1.00  0.00    -0.457 A  
BRANCH   4  13
HETATM   13  O   UNL     1      -8.680  11.283  67.553  1.00  0.00    -0.134 OA 
BRANCH  13  14
HETATM   14  C   UNL     1      -7.702  12.204  68.069  1.00  0.00    -0.134 C  
BRANCH  14  15
HETATM   15  C   UNL     1      -7.934  13.544  67.371  1.00  0.00    -0.165 C  
BRANCH  15  16
HETATM   16  C   UNL     1      -8.371  14.680  68.303  1.00  0.00    -0.148 C  
BRANCH  16  17
HETATM   17  N   UNL     1      -7.993  16.040  67.888  1.00  0.00    -0.136 NA 
HETATM   18  C   UNL     1      -8.567  17.054  68.808  1.00  0.00    -0.238 C  
HETATM   19  C   UNL     1     -10.082  17.261  68.631  1.00  0.00    -0.341 C  
HETATM   20  C   UNL     1      -8.414  16.397  66.515  1.00  0.00    -0.301 C  
HETATM   21  C   UNL     1      -9.918  16.683  66.349  1.00  0.00    -0.302 C  
HETATM   22  O   UNL     1     -10.389  17.656  67.290  1.00  0.00    -0.334 OA 
ENDBRANCH  16  17
ENDBRANCH  15  16
ENDBRANCH  14  15
ENDBRANCH  13  14
ENDBRANCH   4  13
BRANCH  10  23
HETATM   23  N   UNL     1      -9.873   8.422  71.651  1.00  0.00    -0.199 NA 
HETATM   24  H   UNL     1      -8.961   8.866  71.758  1.00  0.00     0.000 HD 
BRANCH  23  25
HETATM   25  C   UNL     1      -9.875   7.016  71.799  1.00  0.00    -0.162 A  
HETATM   26 CL   UNL     1      -9.439   3.877  69.331  1.00  0.00    -0.251 Cl 
HETATM   27  C   UNL     1     -10.086   4.208  71.940  1.00  0.00    -0.154 A  
HETATM   28  C   UNL     1      -9.732   4.821  70.743  1.00  0.00    -0.197 A  
HETATM   29  C   UNL     1     -10.327   4.974  73.069  1.00  0.00    -0.233 A  
HETATM   30  F   UNL     1     -10.216   2.875  72.023  1.00  0.00    -0.234 F  
HETATM   31  C   UNL     1     -10.230   6.368  72.993  1.00  0.00    -0.216 A  
HETATM   32  C   UNL     1      -9.630   6.214  70.670  1.00  0.00    -0.195 A  
ENDBRANCH  23  25
ENDBRANCH  10  23
ENDBRANCH   2   3
TORSDOF 8
ENDMDL
MODEL      136
REMARK 921   NORMALIZED FREE ENERGY PREDICTED BY IDOCK:   -5.04 KCAL/MOL
REMARK 922        TOTAL FREE ENERGY PREDICTED BY IDOCK:   -9.03 KCAL/MOL
REMARK 923 INTER-LIGAND FREE ENERGY PREDICTED BY IDOCK:   -8.08 KCAL/MOL
REMARK 924 INTRA-LIGAND FREE ENERGY PREDICTED BY IDOCK:   -0.95 KCAL/MOL
REMARK 927      BINDING AFFINITY PREDICTED BY RF-SCORE:    0.00 PKD
ROOT
HETATM    1  C   UNL     1     -13.182  12.571  72.100  1.00  0.00    -0.403 C  
HETATM    2  O   UNL     1     -12.760  12.825  70.762  1.00  0.00    -0.244 OA 
ENDROOT
BRANCH   2   3
HETATM    3  C   UNL     1     -12.049  11.817  70.163  1.00  0.00    -0.317 A  
HETATM    4  C   UNL     1     -11.712  11.947  68.815  1.00  0.00    -0.321 A  
HETATM    5  N   UNL     1     -10.690   8.551  70.963  1.00  0.00    -0.219 NA 
HETATM    6  C   UNL     1     -11.138  10.861  68.145  1.00  0.00    -0.337 A  
HETATM    7  C   UNL     1     -11.022   9.603  70.212  1.00  0.00    -0.285 A  
HETATM    8  C   UNL     1     -10.791   9.665  68.833  1.00  0.00    -0.201 A  
HETATM    9  C   UNL     1     -11.651  10.663  70.846  1.00  0.00    -0.311 A  
HETATM   10  C   UNL     1     -10.231   8.500  68.263  1.00  0.00    -0.205 A  
HETATM   11  N   UNL     1      -9.884   7.442  69.024  1.00  0.00    -0.164 NA 
HETATM   12  C   UNL     1     -10.124   7.525  70.333  1.00  0.00    -0.196 A  
BRANCH   4  13
HETATM   13  O   UNL     1     -11.949  13.042  68.025  1.00  0.00    -0.350 OA 
BRANCH  13  14
HETATM   14  C   UNL     1     -10.847  13.954  67.866  1.00  0.00    -0.244 C  
BRANCH  14  15
HETATM   15  C   UNL     1     -11.341  15.111  66.996  1.00  0.00    -0.277 C  
BRANCH  15  16
HETATM   16  C   UNL     1     -10.284  16.181  66.702  1.00  0.00    -0.287 C  
BRANCH  16  17
HETATM   17  N   UNL     1     -10.411  17.440  67.452  1.00  0.00    -0.334 NA 
HETATM   18  C   UNL     1     -10.048  18.603  66.603  1.00  0.00    -0.385 C  
HETATM   19  C   UNL     1      -8.536  18.735  66.350  1.00  0.00    -0.284 C  
HETATM   20  C   UNL     1      -9.581  17.507  68.676  1.00  0.00    -0.303 C  
HETATM   21  C   UNL     1      -8.076  17.719  68.430  1.00  0.00    -0.297 C  
HETATM   22  O   UNL     1      -7.821  18.848  67.585  1.00  0.00    -0.240 OA 
ENDBRANCH  16  17
ENDBRANCH  15  16
ENDBRANCH  14  15
ENDBRANCH  13  14
ENDBRANCH   4  13
BRANCH  10  23
HETATM   23  N   UNL     1     -10.104   8.392  66.854  1.00  0.00    -0.267 NA 
HETATM   24  H   UNL     1     -10.768   7.759  66.408  1.00  0.00     0.000 HD 
BRANCH  23  25
HETATM   25  C   UNL     1      -9.198   9.028  65.974  1.00  0.00    -0.226 A  
HETATM   26 CL   UNL     1      -9.505  11.686  62.978  1.00  0.00    -0.354 Cl 
HETATM   27  C   UNL     1      -7.515  10.178  64.027  1.00  0.00    -0.117 A  
HETATM   28  C   UNL     1      -8.855  10.544  64.093  1.00  0.00    -0.194 A  
HETATM   29  C   UNL     1      -7.001   9.254  64.923  1.00  0.00    -0.090 A  
HETATM   30  F   UNL     1      -6.702  10.694  63.093  1.00  0.00    -0.132 F  
HETATM   31  C   UNL     1      -7.842   8.679  65.882  1.00  0.00    -0.102 A  
HETATM   32  C   UNL     1      -9.692   9.973  65.057  1.00  0.00    -0.386 A  
ENDBRANCH  23  25
ENDBRANCH  10  23
ENDBRANCH   2   3
TORSDOF 8
ENDMDL
MODEL      137
REMARK 921   NORMALIZED FREE ENERGY PREDICTED BY IDOCK:   -5.03 KCAL/MOL
REMARK 922        TOTAL FREE ENERGY PREDICTED BY IDOCK:   -9.02 KCAL/MOL
REMARK 923 INTER-LIGAND FREE ENERGY PREDICTED BY IDOCK:   -7.23 KCAL/MOL
REMARK 924 INTRA-LIGAND FREE ENERGY PREDICTED BY IDOCK:   -1.79 KCAL/MOL
REMARK 927      BINDING AFFINITY PREDICTED BY RF-SCORE:    0.00 PKD
ROOT
HETATM    1  C   UNL     1     -11.359  12.243  66.729  1.00  0.00    -0.339 C  
HETATM    2  O   UNL     1     -10.167  11.871  67.419  1.00  0.00    -0.194 OA 
ENDROOT
BRANCH   2   3
HETATM    3  C   UNL     1     -10.350  11.164  68.579  1.00  0.00    -0.193 A  
HETATM    4  C   UNL     1      -9.255  10.505  69.139  1.00  0.00    -0.171 A  
HETATM    5  N   UNL     1     -13.017  10.264  70.867  1.00  0.00    -0.380 NA 
HETATM    6  C   UNL     1      -9.456   9.644  70.223  1.00  0.00    -0.300 A  
HETATM    7  C   UNL     1     -11.791  10.276  70.338  1.00  0.00    -0.309 A  
HETATM    8  C   UNL     1     -10.733   9.508  70.837  1.00  0.00    -0.403 A  
HETATM    9  C   UNL     1     -11.590  11.073  69.223  1.00  0.00    -0.384 A  
HETATM   10  C   UNL     1     -11.061   8.658  71.915  1.00  0.00    -0.346 A  
HETATM   11  N   UNL     1     -12.295   8.655  72.459  1.00  0.00    -0.367 NA 
HETATM   12  C   UNL     1     -13.205   9.463  71.913  1.00  0.00    -0.429 A  
BRANCH   4  13
HETATM   13  O   UNL     1      -7.962  10.559  68.687  1.00  0.00    -0.109 OA 
BRANCH  13  14
HETATM   14  C   UNL     1      -7.406   9.317  68.218  1.00  0.00    -0.078 C  
BRANCH  14  15
HETATM   15  C   UNL     1      -7.871   9.133  66.773  1.00  0.00    -0.101 C  
BRANCH  15  16
HETATM   16  C   UNL     1      -8.519   7.774  66.482  1.00  0.00    -0.132 C  
BRANCH  16  17
HETATM   17  N   UNL     1      -9.064   7.055  67.644  1.00  0.00    -0.123 NA 
HETATM   18  C   UNL     1      -8.282   5.823  67.919  1.00  0.00    -0.101 C  
HETATM   19  C   UNL     1      -8.542   4.690  66.910  1.00  0.00    -0.104 C  
HETATM   20  C   UNL     1     -10.483   6.660  67.507  1.00  0.00    -0.239 C  
HETATM   21  C   UNL     1     -10.740   5.475  66.559  1.00  0.00    -0.240 C  
HETATM   22  O   UNL     1      -9.930   4.338  66.884  1.00  0.00    -0.216 OA 
ENDBRANCH  16  17
ENDBRANCH  15  16
ENDBRANCH  14  15
ENDBRANCH  13  14
ENDBRANCH   4  13
BRANCH  10  23
HETATM   23  N   UNL     1     -10.108   7.721  72.393  1.00  0.00    -0.208 NA 
HETATM   24  H   UNL     1      -9.229   8.125  72.716  1.00  0.00     0.000 HD 
BRANCH  23  25
HETATM   25  C   UNL     1     -10.192   6.313  72.491  1.00  0.00    -0.184 A  
HETATM   26 CL   UNL     1      -9.313   3.219  70.086  1.00  0.00    -0.231 Cl 
HETATM   27  C   UNL     1     -10.523   3.514  72.490  1.00  0.00    -0.068 A  
HETATM   28  C   UNL     1      -9.887   4.140  71.424  1.00  0.00    -0.184 A  
HETATM   29  C   UNL     1     -10.988   4.262  73.560  1.00  0.00    -0.373 A  
HETATM   30  F   UNL     1     -10.714   2.186  72.498  1.00  0.00    -0.225 F  
HETATM   31  C   UNL     1     -10.829   5.652  73.553  1.00  0.00    -0.295 A  
HETATM   32  C   UNL     1      -9.723   5.529  71.422  1.00  0.00    -0.205 A  
ENDBRANCH  23  25
ENDBRANCH  10  23
ENDBRANCH   2   3
TORSDOF 8
ENDMDL
MODEL      138
REMARK 921   NORMALIZED FREE ENERGY PREDICTED BY IDOCK:   -5.03 KCAL/MOL
REMARK 922        TOTAL FREE ENERGY PREDICTED BY IDOCK:   -9.01 KCAL/MOL
REMARK 923 INTER-LIGAND FREE ENERGY PREDICTED BY IDOCK:   -7.07 KCAL/MOL
REMARK 924 INTRA-LIGAND FREE ENERGY PREDICTED BY IDOCK:   -1.94 KCAL/MOL
REMARK 927      BINDING AFFINITY PREDICTED BY RF-SCORE:    0.00 PKD
ROOT
HETATM    1  C   UNL     1      -6.274   9.638  70.766  1.00  0.00    -0.092 C  
HETATM    2  O   UNL     1      -7.009  10.739  70.235  1.00  0.00    -0.233 OA 
ENDROOT
BRANCH   2   3
HETATM    3  C   UNL     1      -7.307  10.663  68.899  1.00  0.00    -0.099 A  
HETATM    4  C   UNL     1      -7.497  11.849  68.189  1.00  0.00    -0.100 A  
HETATM    5  N   UNL     1      -7.920   8.157  66.349  1.00  0.00    -0.102 NA 
HETATM    6  C   UNL     1      -7.966  11.791  66.871  1.00  0.00    -0.149 A  
HETATM    7  C   UNL     1      -7.833   9.372  66.895  1.00  0.00    -0.105 A  
HETATM    8  C   UNL     1      -8.150  10.548  66.204  1.00  0.00    -0.145 A  
HETATM    9  C   UNL     1      -7.432   9.446  68.219  1.00  0.00    -0.078 A  
HETATM   10  C   UNL     1      -8.637  10.363  64.892  1.00  0.00    -0.182 A  
HETATM   11  N   UNL     1      -8.714   9.136  64.336  1.00  0.00    -0.183 NA 
HETATM   12  C   UNL     1      -8.345   8.100  65.090  1.00  0.00    -0.143 A  
BRANCH   4  13
HETATM   13  O   UNL     1      -7.331  13.119  68.677  1.00  0.00    -0.107 OA 
BRANCH  13  14
HETATM   14  C   UNL     1      -7.223  14.164  67.693  1.00  0.00    -0.180 C  
BRANCH  14  15
HETATM   15  C   UNL     1      -8.165  15.288  68.125  1.00  0.00    -0.141 C  
BRANCH  15  16
HETATM   16  C   UNL     1      -9.328  14.836  69.016  1.00  0.00    -0.160 C  
BRANCH  16  17
HETATM   17  N   UNL     1     -10.595  14.544  68.328  1.00  0.00    -0.236 NA 
HETATM   18  C   UNL     1     -11.604  15.598  68.607  1.00  0.00    -0.382 C  
HETATM   19  C   UNL     1     -12.190  15.531  70.028  1.00  0.00    -0.355 C  
HETATM   20  C   UNL     1     -11.200  13.243  68.689  1.00  0.00    -0.274 C  
HETATM   21  C   UNL     1     -11.858  13.195  70.080  1.00  0.00    -0.257 C  
HETATM   22  O   UNL     1     -12.800  14.259  70.269  1.00  0.00    -0.315 OA 
ENDBRANCH  16  17
ENDBRANCH  15  16
ENDBRANCH  14  15
ENDBRANCH  13  14
ENDBRANCH   4  13
BRANCH  10  23
HETATM   23  N   UNL     1      -9.140  11.470  64.160  1.00  0.00    -0.409 NA 
HETATM   24  H   UNL     1      -8.596  11.726  63.336  1.00  0.00     0.000 HD 
BRANCH  23  25
HETATM   25  C   UNL     1     -10.279  12.273  64.399  1.00  0.00    -0.314 A  
HETATM   26 CL   UNL     1     -10.937  16.171  65.108  1.00  0.00    -0.371 Cl 
HETATM   27  C   UNL     1     -12.451  13.925  65.105  1.00  0.00    -0.453 A  
HETATM   28  C   UNL     1     -11.191  14.478  64.907  1.00  0.00    -0.391 A  
HETATM   29  C   UNL     1     -12.646  12.562  64.948  1.00  0.00    -0.469 A  
HETATM   30  F   UNL     1     -13.493  14.690  65.466  1.00  0.00    -0.250 F  
HETATM   31  C   UNL     1     -11.563  11.744  64.606  1.00  0.00    -0.270 A  
HETATM   32  C   UNL     1     -10.111  13.659  64.558  1.00  0.00    -0.120 A  
ENDBRANCH  23  25
ENDBRANCH  10  23
ENDBRANCH   2   3
TORSDOF 8
ENDMDL
MODEL      139
REMARK 921   NORMALIZED FREE ENERGY PREDICTED BY IDOCK:   -5.00 KCAL/MOL
REMARK 922        TOTAL FREE ENERGY PREDICTED BY IDOCK:   -8.96 KCAL/MOL
REMARK 923 INTER-LIGAND FREE ENERGY PREDICTED BY IDOCK:   -7.89 KCAL/MOL
REMARK 924 INTRA-LIGAND FREE ENERGY PREDICTED BY IDOCK:   -1.08 KCAL/MOL
REMARK 927      BINDING AFFINITY PREDICTED BY RF-SCORE:    0.00 PKD
ROOT
HETATM    1  C   UNL     1     -11.811   8.958  72.424  1.00  0.00    -0.222 C  
HETATM    2  O   UNL     1     -12.718   9.381  71.407  1.00  0.00    -0.318 OA 
ENDROOT
BRANCH   2   3
HETATM    3  C   UNL     1     -12.544  10.663  70.954  1.00  0.00    -0.407 A  
HETATM    4  C   UNL     1     -11.917  10.856  69.722  1.00  0.00    -0.351 A  
HETATM    5  N   UNL     1     -13.146  14.073  72.032  1.00  0.00    -0.375 NA 
HETATM    6  C   UNL     1     -11.580  12.154  69.322  1.00  0.00    -0.377 A  
HETATM    7  C   UNL     1     -12.698  13.080  71.262  1.00  0.00    -0.293 A  
HETATM    8  C   UNL     1     -11.959  13.290  70.092  1.00  0.00    -0.388 A  
HETATM    9  C   UNL     1     -12.966  11.785  71.676  1.00  0.00    -0.467 A  
HETATM   10  C   UNL     1     -11.657  14.639  69.804  1.00  0.00    -0.296 A  
HETATM   11  N   UNL     1     -12.120  15.643  70.575  1.00  0.00    -0.379 NA 
HETATM   12  C   UNL     1     -12.846  15.310  71.643  1.00  0.00    -0.395 A  
BRANCH   4  13
HETATM   13  O   UNL     1     -11.521   9.873  68.853  1.00  0.00    -0.080 OA 
BRANCH  13  14
HETATM   14  C   UNL     1     -10.252   9.255  69.136  1.00  0.00    -0.206 C  
BRANCH  14  15
HETATM   15  C   UNL     1     -10.369   7.783  68.742  1.00  0.00    -0.219 C  
BRANCH  15  16
HETATM   16  C   UNL     1     -10.697   6.838  69.904  1.00  0.00    -0.250 C  
BRANCH  16  17
HETATM   17  N   UNL     1      -9.624   5.916  70.310  1.00  0.00    -0.160 NA 
HETATM   18  C   UNL     1     -10.167   4.796  71.121  1.00  0.00    -0.158 C  
HETATM   19  C   UNL     1     -10.559   5.205  72.552  1.00  0.00    -0.220 C  
HETATM   20  C   UNL     1      -8.540   6.548  71.094  1.00  0.00    -0.130 C  
HETATM   21  C   UNL     1      -8.903   6.887  72.551  1.00  0.00    -0.125 C  
HETATM   22  O   UNL     1      -9.437   5.755  73.251  1.00  0.00    -0.142 OA 
ENDBRANCH  16  17
ENDBRANCH  15  16
ENDBRANCH  14  15
ENDBRANCH  13  14
ENDBRANCH   4  13
BRANCH  10  23
HETATM   23  N   UNL     1     -10.780  14.955  68.734  1.00  0.00    -0.244 NA 
HETATM   24  H   UNL     1     -11.122  14.706  67.806  1.00  0.00     0.000 HD 
BRANCH  23  25
HETATM   25  C   UNL     1      -9.503  15.563  68.758  1.00  0.00    -0.210 A  
HETATM   26 CL   UNL     1      -8.070  19.242  68.020  1.00  0.00    -0.331 Cl 
HETATM   27  C   UNL     1      -6.987  16.818  68.555  1.00  0.00    -0.168 A  
HETATM   28  C   UNL     1      -8.151  17.559  68.380  1.00  0.00    -0.266 A  
HETATM   29  C   UNL     1      -7.060  15.464  68.838  1.00  0.00    -0.131 A  
HETATM   30  F   UNL     1      -5.779  17.390  68.438  1.00  0.00    -0.142 F  
HETATM   31  C   UNL     1      -8.311  14.843  68.930  1.00  0.00    -0.178 A  
HETATM   32  C   UNL     1      -9.401  16.937  68.479  1.00  0.00    -0.259 A  
ENDBRANCH  23  25
ENDBRANCH  10  23
ENDBRANCH   2   3
TORSDOF 8
ENDMDL
MODEL      140
REMARK 921   NORMALIZED FREE ENERGY PREDICTED BY IDOCK:   -4.99 KCAL/MOL
REMARK 922        TOTAL FREE ENERGY PREDICTED BY IDOCK:   -8.96 KCAL/MOL
REMARK 923 INTER-LIGAND FREE ENERGY PREDICTED BY IDOCK:   -8.46 KCAL/MOL
REMARK 924 INTRA-LIGAND FREE ENERGY PREDICTED BY IDOCK:   -0.50 KCAL/MOL
REMARK 927      BINDING AFFINITY PREDICTED BY RF-SCORE:    0.00 PKD
ROOT
HETATM    1  C   UNL     1      -7.800   8.018  68.576  1.00  0.00    -0.115 C  
HETATM    2  O   UNL     1      -9.113   7.762  69.071  1.00  0.00    -0.145 OA 
ENDROOT
BRANCH   2   3
HETATM    3  C   UNL     1      -9.918   8.863  69.214  1.00  0.00    -0.192 A  
HETATM    4  C   UNL     1      -9.932   9.817  68.196  1.00  0.00    -0.154 A  
HETATM    5  N   UNL     1     -12.185  10.322  71.641  1.00  0.00    -0.349 NA 
HETATM    6  C   UNL     1     -10.613  11.023  68.397  1.00  0.00    -0.224 A  
HETATM    7  C   UNL     1     -11.455  10.232  70.527  1.00  0.00    -0.343 A  
HETATM    8  C   UNL     1     -11.381  11.254  69.573  1.00  0.00    -0.362 A  
HETATM    9  C   UNL     1     -10.722   9.071  70.341  1.00  0.00    -0.267 A  
HETATM   10  C   UNL     1     -12.088  12.432  69.897  1.00  0.00    -0.247 A  
HETATM   11  N   UNL     1     -12.835  12.519  71.016  1.00  0.00    -0.223 NA 
HETATM   12  C   UNL     1     -12.851  11.459  71.824  1.00  0.00    -0.344 A  
BRANCH   4  13
HETATM   13  O   UNL     1      -9.275   9.728  66.996  1.00  0.00    -0.140 OA 
BRANCH  13  14
HETATM   14  C   UNL     1     -10.107   9.606  65.829  1.00  0.00    -0.204 C  
BRANCH  14  15
HETATM   15  C   UNL     1      -9.639  10.663  64.829  1.00  0.00    -0.334 C  
BRANCH  15  16
HETATM   16  C   UNL     1      -9.716  12.105  65.345  1.00  0.00    -0.162 C  
BRANCH  16  17
HETATM   17  N   UNL     1     -10.270  13.098  64.412  1.00  0.00    -0.357 NA 
HETATM   18  C   UNL     1     -11.067  14.119  65.137  1.00  0.00    -0.348 C  
HETATM   19  C   UNL     1     -12.431  13.603  65.629  1.00  0.00    -0.496 C  
HETATM   20  C   UNL     1     -11.134  12.527  63.355  1.00  0.00    -0.361 C  
HETATM   21  C   UNL     1     -12.530  12.081  63.828  1.00  0.00    -0.485 C  
HETATM   22  O   UNL     1     -13.218  13.121  64.534  1.00  0.00    -0.503 OA 
ENDBRANCH  16  17
ENDBRANCH  15  16
ENDBRANCH  14  15
ENDBRANCH  13  14
ENDBRANCH   4  13
BRANCH  10  23
HETATM   23  N   UNL     1     -11.951  13.586  69.082  1.00  0.00    -0.337 NA 
HETATM   24  H   UNL     1     -12.756  13.796  68.492  1.00  0.00     0.000 HD 
BRANCH  23  25
HETATM   25  C   UNL     1     -10.870  14.490  68.963  1.00  0.00    -0.254 A  
HETATM   26 CL   UNL     1     -10.496  18.449  68.399  1.00  0.00    -0.338 Cl 
HETATM   27  C   UNL     1      -8.798  16.341  68.491  1.00  0.00    -0.219 A  
HETATM   28  C   UNL     1     -10.114  16.779  68.587  1.00  0.00    -0.279 A  
HETATM   29  C   UNL     1      -8.499  14.996  68.636  1.00  0.00    -0.168 A  
HETATM   30  F   UNL     1      -7.799  17.202  68.241  1.00  0.00    -0.193 F  
HETATM   31  C   UNL     1      -9.532  14.079  68.862  1.00  0.00     0.007 A  
HETATM   32  C   UNL     1     -11.144  15.861  68.819  1.00  0.00    -0.328 A  
ENDBRANCH  23  25
ENDBRANCH  10  23
ENDBRANCH   2   3
TORSDOF 8
ENDMDL
MODEL      141
REMARK 921   NORMALIZED FREE ENERGY PREDICTED BY IDOCK:   -4.97 KCAL/MOL
REMARK 922        TOTAL FREE ENERGY PREDICTED BY IDOCK:   -8.92 KCAL/MOL
REMARK 923 INTER-LIGAND FREE ENERGY PREDICTED BY IDOCK:   -8.19 KCAL/MOL
REMARK 924 INTRA-LIGAND FREE ENERGY PREDICTED BY IDOCK:   -0.73 KCAL/MOL
REMARK 927      BINDING AFFINITY PREDICTED BY RF-SCORE:    0.00 PKD
ROOT
HETATM    1  C   UNL     1     -11.885  15.268  64.338  1.00  0.00    -0.281 C  
HETATM    2  O   UNL     1     -12.635  14.064  64.491  1.00  0.00    -0.635 OA 
ENDROOT
BRANCH   2   3
HETATM    3  C   UNL     1     -11.896  12.921  64.651  1.00  0.00    -0.372 A  
HETATM    4  C   UNL     1     -11.801  12.359  65.925  1.00  0.00    -0.405 A  
HETATM    5  N   UNL     1      -9.814  10.689  62.690  1.00  0.00    -0.200 NA 
HETATM    6  C   UNL     1     -10.918  11.295  66.139  1.00  0.00    -0.252 A  
HETATM    7  C   UNL     1     -10.401  11.201  63.775  1.00  0.00    -0.386 A  
HETATM    8  C   UNL     1     -10.195  10.702  65.066  1.00  0.00    -0.380 A  
HETATM    9  C   UNL     1     -11.229  12.296  63.590  1.00  0.00    -0.539 A  
HETATM   10  C   UNL     1      -9.264   9.646  65.163  1.00  0.00    -0.246 A  
HETATM   11  N   UNL     1      -8.680   9.120  64.067  1.00  0.00    -0.178 NA 
HETATM   12  C   UNL     1      -8.991   9.663  62.889  1.00  0.00    -0.245 A  
BRANCH   4  13
HETATM   13  O   UNL     1     -12.455  12.791  67.049  1.00  0.00    -0.278 OA 
BRANCH  13  14
HETATM   14  C   UNL     1     -12.146  14.128  67.483  1.00  0.00    -0.328 C  
BRANCH  14  15
HETATM   15  C   UNL     1     -10.941  14.030  68.419  1.00  0.00    -0.269 C  
BRANCH  15  16
HETATM   16  C   UNL     1     -10.457  15.375  68.976  1.00  0.00    -0.249 C  
BRANCH  16  17
HETATM   17  N   UNL     1      -9.020  15.473  69.274  1.00  0.00    -0.254 NA 
HETATM   18  C   UNL     1      -8.526  16.855  69.053  1.00  0.00    -0.142 C  
HETATM   19  C   UNL     1      -8.394  17.233  67.566  1.00  0.00    -0.196 C  
HETATM   20  C   UNL     1      -8.168  14.563  68.477  1.00  0.00    -0.154 C  
HETATM   21  C   UNL     1      -7.968  14.980  67.008  1.00  0.00    -0.162 C  
HETATM   22  O   UNL     1      -7.510  16.333  66.889  1.00  0.00    -0.197 OA 
ENDBRANCH  16  17
ENDBRANCH  15  16
ENDBRANCH  14  15
ENDBRANCH  13  14
ENDBRANCH   4  13
BRANCH  10  23
HETATM   23  N   UNL     1      -8.859   9.173  66.438  1.00  0.00    -0.135 NA 
HETATM   24  H   UNL     1      -8.133   9.727  66.893  1.00  0.00     0.000 HD 
BRANCH  23  25
HETATM   25  C   UNL     1      -9.308   8.053  67.175  1.00  0.00    -0.149 A  
HETATM   26 CL   UNL     1      -7.614   5.405  69.675  1.00  0.00    -0.069 Cl 
HETATM   27  C   UNL     1     -10.040   5.677  68.504  1.00  0.00    -0.182 A  
HETATM   28  C   UNL     1      -8.764   6.204  68.672  1.00  0.00    -0.112 A  
HETATM   29  C   UNL     1     -10.958   6.322  67.690  1.00  0.00    -0.438 A  
HETATM   30  F   UNL     1     -10.401   4.534  69.107  1.00  0.00    -0.227 F  
HETATM   31  C   UNL     1     -10.588   7.496  67.025  1.00  0.00    -0.409 A  
HETATM   32  C   UNL     1      -8.399   7.382  68.012  1.00  0.00    -0.124 A  
ENDBRANCH  23  25
ENDBRANCH  10  23
ENDBRANCH   2   3
TORSDOF 8
ENDMDL
MODEL      142
REMARK 921   NORMALIZED FREE ENERGY PREDICTED BY IDOCK:   -4.94 KCAL/MOL
REMARK 922        TOTAL FREE ENERGY PREDICTED BY IDOCK:   -8.88 KCAL/MOL
REMARK 923 INTER-LIGAND FREE ENERGY PREDICTED BY IDOCK:   -7.48 KCAL/MOL
REMARK 924 INTRA-LIGAND FREE ENERGY PREDICTED BY IDOCK:   -1.40 KCAL/MOL
REMARK 927      BINDING AFFINITY PREDICTED BY RF-SCORE:    0.00 PKD
ROOT
HETATM    1  C   UNL     1     -11.210   6.225  70.030  1.00  0.00    -0.412 C  
HETATM    2  O   UNL     1     -11.223   7.652  70.015  1.00  0.00    -0.231 OA 
ENDROOT
BRANCH   2   3
HETATM    3  C   UNL     1     -10.443   8.242  69.055  1.00  0.00    -0.197 A  
HETATM    4  C   UNL     1     -10.320   9.632  69.055  1.00  0.00    -0.205 A  
HETATM    5  N   UNL     1      -8.462   7.315  66.160  1.00  0.00    -0.135 NA 
HETATM    6  C   UNL     1      -9.670  10.262  67.988  1.00  0.00    -0.167 A  
HETATM    7  C   UNL     1      -9.065   8.115  67.044  1.00  0.00    -0.143 A  
HETATM    8  C   UNL     1      -9.037   9.512  66.958  1.00  0.00    -0.154 A  
HETATM    9  C   UNL     1      -9.768   7.509  68.072  1.00  0.00    -0.165 A  
HETATM   10  C   UNL     1      -8.375  10.033  65.825  1.00  0.00    -0.132 A  
HETATM   11  N   UNL     1      -7.756   9.226  64.939  1.00  0.00    -0.107 NA 
HETATM   12  C   UNL     1      -7.825   7.912  65.157  1.00  0.00    -0.114 A  
BRANCH   4  13
HETATM   13  O   UNL     1     -10.841  10.489  69.990  1.00  0.00    -0.279 OA 
BRANCH  13  14
HETATM   14  C   UNL     1     -12.016  11.218  69.590  1.00  0.00    -0.353 C  
BRANCH  14  15
HETATM   15  C   UNL     1     -11.921  12.607  70.222  1.00  0.00    -0.363 C  
BRANCH  15  16
HETATM   16  C   UNL     1     -11.164  13.639  69.377  1.00  0.00    -0.196 C  
BRANCH  16  17
HETATM   17  N   UNL     1     -10.805  14.893  70.057  1.00  0.00    -0.215 NA 
HETATM   18  C   UNL     1     -11.596  16.031  69.522  1.00  0.00    -0.304 C  
HETATM   19  C   UNL     1     -11.148  16.489  68.123  1.00  0.00    -0.303 C  
HETATM   20  C   UNL     1      -9.375  15.257  69.952  1.00  0.00     0.037 C  
HETATM   21  C   UNL     1      -8.940  15.791  68.575  1.00  0.00    -0.194 C  
HETATM   22  O   UNL     1      -9.769  16.872  68.129  1.00  0.00    -0.241 OA 
ENDBRANCH  16  17
ENDBRANCH  15  16
ENDBRANCH  14  15
ENDBRANCH  13  14
ENDBRANCH   4  13
BRANCH  10  23
HETATM   23  N   UNL     1      -8.425  11.425  65.553  1.00  0.00    -0.385 NA 
HETATM   24  H   UNL     1      -7.519  11.892  65.524  1.00  0.00     0.000 HD 
BRANCH  23  25
HETATM   25  C   UNL     1      -9.539  12.263  65.316  1.00  0.00    -0.023 A  
HETATM   26 CL   UNL     1     -12.895  12.012  63.125  1.00  0.00    -0.435 Cl 
HETATM   27  C   UNL     1     -11.689  13.938  64.599  1.00  0.00    -0.397 A  
HETATM   28  C   UNL     1     -11.648  12.624  64.144  1.00  0.00    -0.394 A  
HETATM   29  C   UNL     1     -10.679  14.425  65.412  1.00  0.00    -0.359 A  
HETATM   30  F   UNL     1     -12.690  14.760  64.248  1.00  0.00    -0.460 F  
HETATM   31  C   UNL     1      -9.609  13.593  65.759  1.00  0.00    -0.086 A  
HETATM   32  C   UNL     1     -10.580  11.792  64.498  1.00  0.00    -0.364 A  
ENDBRANCH  23  25
ENDBRANCH  10  23
ENDBRANCH   2   3
TORSDOF 8
ENDMDL
MODEL      143
REMARK 921   NORMALIZED FREE ENERGY PREDICTED BY IDOCK:   -4.93 KCAL/MOL
REMARK 922        TOTAL FREE ENERGY PREDICTED BY IDOCK:   -8.87 KCAL/MOL
REMARK 923 INTER-LIGAND FREE ENERGY PREDICTED BY IDOCK:   -7.89 KCAL/MOL
REMARK 924 INTRA-LIGAND FREE ENERGY PREDICTED BY IDOCK:   -0.97 KCAL/MOL
REMARK 927      BINDING AFFINITY PREDICTED BY RF-SCORE:    0.00 PKD
ROOT
HETATM    1  C   UNL     1     -10.910   6.385  73.438  1.00  0.00    -0.217 C  
HETATM    2  O   UNL     1     -10.441   6.504  72.096  1.00  0.00    -0.201 OA 
ENDROOT
BRANCH   2   3
HETATM    3  C   UNL     1     -10.731   7.688  71.470  1.00  0.00    -0.221 A  
HETATM    4  C   UNL     1     -10.078   7.988  70.273  1.00  0.00    -0.192 A  
HETATM    5  N   UNL     1     -12.765  10.649  71.977  1.00  0.00    -0.295 NA 
HETATM    6  C   UNL     1     -10.233   9.260  69.709  1.00  0.00    -0.225 A  
HETATM    7  C   UNL     1     -11.865   9.849  71.400  1.00  0.00    -0.394 A  
HETATM    8  C   UNL     1     -11.125  10.216  70.270  1.00  0.00    -0.384 A  
HETATM    9  C   UNL     1     -11.651   8.610  71.982  1.00  0.00    -0.440 A  
HETATM   10  C   UNL     1     -11.347  11.531  69.806  1.00  0.00    -0.226 A  
HETATM   11  N   UNL     1     -12.264  12.335  70.381  1.00  0.00    -0.329 NA 
HETATM   12  C   UNL     1     -12.930  11.850  71.429  1.00  0.00    -0.284 A  
BRANCH   4  13
HETATM   13  O   UNL     1      -9.218   7.166  69.594  1.00  0.00    -0.147 OA 
BRANCH  13  14
HETATM   14  C   UNL     1      -9.134   7.376  68.173  1.00  0.00    -0.131 C  
BRANCH  14  15
HETATM   15  C   UNL     1     -10.084   6.377  67.512  1.00  0.00    -0.190 C  
BRANCH  15  16
HETATM   16  C   UNL     1      -9.408   5.095  67.009  1.00  0.00    -0.124 C  
BRANCH  16  17
HETATM   17  N   UNL     1      -9.491   4.845  65.562  1.00  0.00    -0.160 NA 
HETATM   18  C   UNL     1      -9.498   3.388  65.275  1.00  0.00    -0.145 C  
HETATM   19  C   UNL     1      -8.127   2.716  65.462  1.00  0.00    -0.087 C  
HETATM   20  C   UNL     1      -8.393   5.448  64.775  1.00  0.00    -0.145 C  
HETATM   21  C   UNL     1      -7.036   4.731  64.897  1.00  0.00    -0.061 C  
HETATM   22  O   UNL     1      -7.141   3.328  64.624  1.00  0.00    -0.055 OA 
ENDBRANCH  16  17
ENDBRANCH  15  16
ENDBRANCH  14  15
ENDBRANCH  13  14
ENDBRANCH   4  13
BRANCH  10  23
HETATM   23  N   UNL     1     -10.536  12.063  68.769  1.00  0.00    -0.318 NA 
HETATM   24  H   UNL     1      -9.531  11.972  68.918  1.00  0.00     0.000 HD 
BRANCH  23  25
HETATM   25  C   UNL     1     -10.908  12.697  67.562  1.00  0.00    -0.239 A  
HETATM   26 CL   UNL     1     -10.400  16.351  65.974  1.00  0.00    -0.352 Cl 
HETATM   27  C   UNL     1     -11.788  14.126  65.296  1.00  0.00    -0.367 A  
HETATM   28  C   UNL     1     -10.925  14.727  66.207  1.00  0.00    -0.330 A  
HETATM   29  C   UNL     1     -12.210  12.821  65.494  1.00  0.00    -0.519 A  
HETATM   30  F   UNL     1     -12.238  14.797  64.225  1.00  0.00    -0.468 F  
HETATM   31  C   UNL     1     -11.778  12.118  66.624  1.00  0.00    -0.385 A  
HETATM   32  C   UNL     1     -10.489  14.020  67.333  1.00  0.00    -0.263 A  
ENDBRANCH  23  25
ENDBRANCH  10  23
ENDBRANCH   2   3
TORSDOF 8
ENDMDL
MODEL      144
REMARK 921   NORMALIZED FREE ENERGY PREDICTED BY IDOCK:   -4.92 KCAL/MOL
REMARK 922        TOTAL FREE ENERGY PREDICTED BY IDOCK:   -8.86 KCAL/MOL
REMARK 923 INTER-LIGAND FREE ENERGY PREDICTED BY IDOCK:   -8.13 KCAL/MOL
REMARK 924 INTRA-LIGAND FREE ENERGY PREDICTED BY IDOCK:   -0.73 KCAL/MOL
REMARK 927      BINDING AFFINITY PREDICTED BY RF-SCORE:    0.00 PKD
ROOT
HETATM    1  C   UNL     1     -11.837   6.893  71.150  1.00  0.00    -0.349 C  
HETATM    2  O   UNL     1     -11.284   7.958  71.921  1.00  0.00    -0.249 OA 
ENDROOT
BRANCH   2   3
HETATM    3  C   UNL     1     -10.373   8.749  71.270  1.00  0.00    -0.261 A  
HETATM    4  C   UNL     1     -10.843   9.795  70.475  1.00  0.00    -0.323 A  
HETATM    5  N   UNL     1      -6.785   9.007  70.801  1.00  0.00    -0.058 NA 
HETATM    6  C   UNL     1      -9.942  10.504  69.674  1.00  0.00    -0.149 A  
HETATM    7  C   UNL     1      -8.079   9.287  70.630  1.00  0.00    -0.176 A  
HETATM    8  C   UNL     1      -8.542  10.255  69.731  1.00  0.00    -0.078 A  
HETATM    9  C   UNL     1      -8.991   8.549  71.368  1.00  0.00    -0.262 A  
HETATM   10  C   UNL     1      -7.544  10.887  68.959  1.00  0.00    -0.135 A  
HETATM   11  N   UNL     1      -6.236  10.614  69.140  1.00  0.00    -0.041 NA 
HETATM   12  C   UNL     1      -5.924   9.696  70.056  1.00  0.00    -0.043 A  
BRANCH   4  13
HETATM   13  O   UNL     1     -12.152  10.180  70.338  1.00  0.00    -0.272 OA 
BRANCH  13  14
HETATM   14  C   UNL     1     -12.408  11.592  70.446  1.00  0.00    -0.305 C  
BRANCH  14  15
HETATM   15  C   UNL     1     -13.402  11.783  71.591  1.00  0.00    -0.242 C  
BRANCH  15  16
HETATM   16  C   UNL     1     -13.234  13.095  72.367  1.00  0.00    -0.414 C  
BRANCH  16  17
HETATM   17  N   UNL     1     -13.803  14.296  71.738  1.00  0.00    -0.409 NA 
HETATM   18  C   UNL     1     -12.975  14.735  70.586  1.00  0.00    -0.324 C  
HETATM   19  C   UNL     1     -11.649  15.399  70.997  1.00  0.00    -0.367 C  
HETATM   20  C   UNL     1     -13.946  15.454  72.650  1.00  0.00    -0.496 C  
HETATM   21  C   UNL     1     -12.629  16.170  73.001  1.00  0.00    -0.467 C  
HETATM   22  O   UNL     1     -11.886  16.538  71.832  1.00  0.00    -0.454 OA 
ENDBRANCH  16  17
ENDBRANCH  15  16
ENDBRANCH  14  15
ENDBRANCH  13  14
ENDBRANCH   4  13
BRANCH  10  23
HETATM   23  N   UNL     1      -7.913  11.766  67.907  1.00  0.00    -0.132 NA 
HETATM   24  H   UNL     1      -7.437  12.668  67.912  1.00  0.00     0.000 HD 
BRANCH  23  25
HETATM   25  C   UNL     1      -8.837  11.581  66.853  1.00  0.00    -0.182 A  
HETATM   26 CL   UNL     1      -8.961   9.360  63.509  1.00  0.00    -0.211 Cl 
HETATM   27  C   UNL     1     -10.502  11.305  64.595  1.00  0.00    -0.325 A  
HETATM   28  C   UNL     1      -9.370  10.508  64.728  1.00  0.00    -0.238 A  
HETATM   29  C   UNL     1     -10.820  12.231  65.576  1.00  0.00    -0.319 A  
HETATM   30  F   UNL     1     -11.294  11.208  63.516  1.00  0.00    -0.431 F  
HETATM   31  C   UNL     1      -9.987  12.371  66.691  1.00  0.00    -0.236 A  
HETATM   32  C   UNL     1      -8.542  10.645  65.847  1.00  0.00    -0.177 A  
ENDBRANCH  23  25
ENDBRANCH  10  23
ENDBRANCH   2   3
TORSDOF 8
ENDMDL
MODEL      145
REMARK 921   NORMALIZED FREE ENERGY PREDICTED BY IDOCK:   -4.92 KCAL/MOL
REMARK 922        TOTAL FREE ENERGY PREDICTED BY IDOCK:   -8.85 KCAL/MOL
REMARK 923 INTER-LIGAND FREE ENERGY PREDICTED BY IDOCK:   -7.67 KCAL/MOL
REMARK 924 INTRA-LIGAND FREE ENERGY PREDICTED BY IDOCK:   -1.18 KCAL/MOL
REMARK 927      BINDING AFFINITY PREDICTED BY RF-SCORE:    0.00 PKD
ROOT
HETATM    1  C   UNL     1     -10.203  19.838  65.976  1.00  0.00    -0.501 C  
HETATM    2  O   UNL     1     -10.781  18.874  66.854  1.00  0.00    -0.421 OA 
ENDROOT
BRANCH   2   3
HETATM    3  C   UNL     1      -9.935  17.890  67.294  1.00  0.00    -0.325 A  
HETATM    4  C   UNL     1     -10.262  16.560  67.028  1.00  0.00    -0.288 A  
HETATM    5  N   UNL     1      -6.862  17.541  69.191  1.00  0.00    -0.248 NA 
HETATM    6  C   UNL     1      -9.503  15.539  67.611  1.00  0.00    -0.208 A  
HETATM    7  C   UNL     1      -7.960  17.163  68.531  1.00  0.00    -0.259 A  
HETATM    8  C   UNL     1      -8.342  15.824  68.382  1.00  0.00    -0.164 A  
HETATM    9  C   UNL     1      -8.758  18.163  68.002  1.00  0.00    -0.276 A  
HETATM   10  C   UNL     1      -7.515  14.885  69.036  1.00  0.00    -0.144 A  
HETATM   11  N   UNL     1      -6.400  15.266  69.691  1.00  0.00    -0.143 NA 
HETATM   12  C   UNL     1      -6.128  16.571  69.728  1.00  0.00    -0.215 A  
BRANCH   4  13
HETATM   13  O   UNL     1     -11.324  16.123  66.280  1.00  0.00     0.117 OA 
BRANCH  13  14
HETATM   14  C   UNL     1     -11.029  15.755  64.920  1.00  0.00    -0.427 C  
BRANCH  14  15
HETATM   15  C   UNL     1     -12.121  14.787  64.468  1.00  0.00    -0.460 C  
BRANCH  15  16
HETATM   16  C   UNL     1     -12.628  13.842  65.565  1.00  0.00    -0.526 C  
BRANCH  16  17
HETATM   17  N   UNL     1     -12.473  12.403  65.302  1.00  0.00    -0.609 NA 
HETATM   18  C   UNL     1     -11.509  11.792  66.252  1.00  0.00    -0.227 C  
HETATM   19  C   UNL     1     -10.041  12.154  65.960  1.00  0.00    -0.235 C  
HETATM   20  C   UNL     1     -12.015  12.078  63.933  1.00  0.00    -0.443 C  
HETATM   21  C   UNL     1     -10.527  12.364  63.660  1.00  0.00    -0.426 C  
HETATM   22  O   UNL     1      -9.672  11.754  64.636  1.00  0.00    -0.227 OA 
ENDBRANCH  16  17
ENDBRANCH  15  16
ENDBRANCH  14  15
ENDBRANCH  13  14
ENDBRANCH   4  13
BRANCH  10  23
HETATM   23  N   UNL     1      -7.897  13.519  69.086  1.00  0.00    -0.327 NA 
HETATM   24  H   UNL     1      -8.704  13.318  69.676  1.00  0.00     0.000 HD 
BRANCH  23  25
HETATM   25  C   UNL     1      -7.330  12.395  68.443  1.00  0.00    -0.113 A  
HETATM   26 CL   UNL     1      -6.745   8.540  69.404  1.00  0.00    -0.045 Cl 
HETATM   27  C   UNL     1      -6.026  10.149  67.348  1.00  0.00    -0.054 A  
HETATM   28  C   UNL     1      -6.707  10.039  68.556  1.00  0.00    -0.054 A  
HETATM   29  C   UNL     1      -5.995  11.359  66.674  1.00  0.00    -0.147 A  
HETATM   30  F   UNL     1      -5.378   9.098  66.822  1.00  0.00    -0.036 F  
HETATM   31  C   UNL     1      -6.636  12.474  67.225  1.00  0.00    -0.125 A  
HETATM   32  C   UNL     1      -7.353  11.153  69.101  1.00  0.00    -0.115 A  
ENDBRANCH  23  25
ENDBRANCH  10  23
ENDBRANCH   2   3
TORSDOF 8
ENDMDL
MODEL      146
REMARK 921   NORMALIZED FREE ENERGY PREDICTED BY IDOCK:   -4.90 KCAL/MOL
REMARK 922        TOTAL FREE ENERGY PREDICTED BY IDOCK:   -8.82 KCAL/MOL
REMARK 923 INTER-LIGAND FREE ENERGY PREDICTED BY IDOCK:   -7.83 KCAL/MOL
REMARK 924 INTRA-LIGAND FREE ENERGY PREDICTED BY IDOCK:   -0.99 KCAL/MOL
REMARK 927      BINDING AFFINITY PREDICTED BY RF-SCORE:    0.00 PKD
ROOT
HETATM    1  C   UNL     1     -12.282  14.632  64.431  1.00  0.00    -0.452 C  
HETATM    2  O   UNL     1     -11.058  14.155  64.987  1.00  0.00    -0.334 OA 
ENDROOT
BRANCH   2   3
HETATM    3  C   UNL     1     -11.173  13.455  66.160  1.00  0.00    -0.295 A  
HETATM    4  C   UNL     1     -10.827  12.103  66.168  1.00  0.00    -0.282 A  
HETATM    5  N   UNL     1     -12.270  13.968  69.580  1.00  0.00    -0.336 NA 
HETATM    6  C   UNL     1     -11.096  11.335  67.306  1.00  0.00    -0.367 A  
HETATM    7  C   UNL     1     -11.834  13.306  68.505  1.00  0.00    -0.349 A  
HETATM    8  C   UNL     1     -11.613  11.923  68.494  1.00  0.00    -0.375 A  
HETATM    9  C   UNL     1     -11.624  14.040  67.350  1.00  0.00    -0.397 A  
HETATM   10  C   UNL     1     -11.944  11.250  69.690  1.00  0.00    -0.353 A  
HETATM   11  N   UNL     1     -12.373  11.921  70.779  1.00  0.00    -0.366 NA 
HETATM   12  C   UNL     1     -12.506  13.243  70.670  1.00  0.00    -0.298 A  
BRANCH   4  13
HETATM   13  O   UNL     1     -10.291  11.400  65.121  1.00  0.00    -0.264 OA 
BRANCH  13  14
HETATM   14  C   UNL     1     -10.005  10.012  65.373  1.00  0.00    -0.294 C  
BRANCH  14  15
HETATM   15  C   UNL     1      -8.577   9.752  64.895  1.00  0.00    -0.183 C  
BRANCH  15  16
HETATM   16  C   UNL     1      -8.410   8.481  64.054  1.00  0.00    -0.093 C  
BRANCH  16  17
HETATM   17  N   UNL     1      -7.513   7.453  64.605  1.00  0.00    -0.086 NA 
HETATM   18  C   UNL     1      -6.092   7.792  64.338  1.00  0.00    -0.048 C  
HETATM   19  C   UNL     1      -5.673   7.582  62.872  1.00  0.00    -0.050 C  
HETATM   20  C   UNL     1      -7.752   6.090  64.081  1.00  0.00    -0.108 C  
HETATM   21  C   UNL     1      -7.262   5.852  62.641  1.00  0.00    -0.051 C  
HETATM   22  O   UNL     1      -5.888   6.225  62.469  1.00  0.00    -0.025 OA 
ENDBRANCH  16  17
ENDBRANCH  15  16
ENDBRANCH  14  15
ENDBRANCH  13  14
ENDBRANCH   4  13
BRANCH  10  23
HETATM   23  N   UNL     1     -11.913   9.832  69.737  1.00  0.00    -0.448 NA 
HETATM   24  H   UNL     1     -12.497   9.364  69.044  1.00  0.00     0.000 HD 
BRANCH  23  25
HETATM   25  C   UNL     1     -11.196   8.969  70.597  1.00  0.00    -0.270 A  
HETATM   26 CL   UNL     1     -12.050   5.638  72.672  1.00  0.00    -0.170 Cl 
HETATM   27  C   UNL     1      -9.930   7.315  72.496  1.00  0.00    -0.177 A  
HETATM   28  C   UNL     1     -11.214   7.012  72.054  1.00  0.00    -0.253 A  
HETATM   29  C   UNL     1      -9.267   8.424  71.999  1.00  0.00    -0.304 A  
HETATM   30  F   UNL     1      -9.320   6.555  73.418  1.00  0.00    -0.131 F  
HETATM   31  C   UNL     1      -9.901   9.248  71.063  1.00  0.00    -0.355 A  
HETATM   32  C   UNL     1     -11.844   7.833  71.112  1.00  0.00    -0.311 A  
ENDBRANCH  23  25
ENDBRANCH  10  23
ENDBRANCH   2   3
TORSDOF 8
ENDMDL
MODEL      147
REMARK 921   NORMALIZED FREE ENERGY PREDICTED BY IDOCK:   -4.89 KCAL/MOL
REMARK 922        TOTAL FREE ENERGY PREDICTED BY IDOCK:   -8.82 KCAL/MOL
REMARK 923 INTER-LIGAND FREE ENERGY PREDICTED BY IDOCK:   -7.68 KCAL/MOL
REMARK 924 INTRA-LIGAND FREE ENERGY PREDICTED BY IDOCK:   -1.14 KCAL/MOL
REMARK 927      BINDING AFFINITY PREDICTED BY RF-SCORE:    0.00 PKD
ROOT
HETATM    1  C   UNL     1      -6.217   6.521  66.016  1.00  0.00    -0.038 C  
HETATM    2  O   UNL     1      -6.376   7.389  67.136  1.00  0.00    -0.051 OA 
ENDROOT
BRANCH   2   3
HETATM    3  C   UNL     1      -7.460   7.134  67.936  1.00  0.00    -0.099 A  
HETATM    4  C   UNL     1      -8.725   7.524  67.492  1.00  0.00    -0.125 A  
HETATM    5  N   UNL     1      -8.211   5.721  71.191  1.00  0.00    -0.120 NA 
HETATM    6  C   UNL     1      -9.816   7.425  68.362  1.00  0.00    -0.165 A  
HETATM    7  C   UNL     1      -8.434   6.336  70.027  1.00  0.00    -0.134 A  
HETATM    8  C   UNL     1      -9.686   6.836  69.651  1.00  0.00    -0.160 A  
HETATM    9  C   UNL     1      -7.351   6.501  69.180  1.00  0.00    -0.093 A  
HETATM   10  C   UNL     1     -10.704   6.703  70.620  1.00  0.00    -0.241 A  
HETATM   11  N   UNL     1     -10.483   6.070  71.790  1.00  0.00    -0.215 NA 
HETATM   12  C   UNL     1      -9.253   5.606  72.012  1.00  0.00    -0.144 A  
BRANCH   4  13
HETATM   13  O   UNL     1      -9.018   8.074  66.271  1.00  0.00    -0.154 OA 
BRANCH  13  14
HETATM   14  C   UNL     1     -10.104   9.018  66.250  1.00  0.00    -0.241 C  
BRANCH  14  15
HETATM   15  C   UNL     1      -9.533  10.351  65.768  1.00  0.00    -0.247 C  
BRANCH  15  16
HETATM   16  C   UNL     1     -10.497  11.184  64.913  1.00  0.00    -0.308 C  
BRANCH  16  17
HETATM   17  N   UNL     1     -11.400  12.084  65.647  1.00  0.00    -0.340 NA 
HETATM   18  C   UNL     1     -12.553  12.483  64.802  1.00  0.00    -0.413 C  
HETATM   19  C   UNL     1     -12.191  13.500  63.705  1.00  0.00    -0.375 C  
HETATM   20  C   UNL     1     -10.759  13.324  66.139  1.00  0.00    -0.279 C  
HETATM   21  C   UNL     1     -10.466  14.378  65.056  1.00  0.00    -0.430 C  
HETATM   22  O   UNL     1     -11.629  14.687  64.276  1.00  0.00    -0.314 OA 
ENDBRANCH  16  17
ENDBRANCH  15  16
ENDBRANCH  14  15
ENDBRANCH  13  14
ENDBRANCH   4  13
BRANCH  10  23
HETATM   23  N   UNL     1     -11.967   7.316  70.410  1.00  0.00    -0.542 NA 
HETATM   24  H   UNL     1     -12.609   6.789  69.818  1.00  0.00     0.000 HD 
BRANCH  23  25
HETATM   25  C   UNL     1     -12.470   8.545  70.894  1.00  0.00     0.008 A  
HETATM   26 CL   UNL     1     -11.895  12.421  70.013  1.00  0.00    -0.392 Cl 
HETATM   27  C   UNL     1     -13.234  11.053  71.930  1.00  0.00    -0.398 A  
HETATM   28  C   UNL     1     -12.438  10.983  70.791  1.00  0.00    -0.396 A  
HETATM   29  C   UNL     1     -13.661   9.892  72.553  1.00  0.00    -0.139 A  
HETATM   30  F   UNL     1     -13.587  12.237  72.453  1.00  0.00    -0.610 F  
HETATM   31  C   UNL     1     -13.273   8.649  72.041  1.00  0.00    -0.422 A  
HETATM   32  C   UNL     1     -12.056   9.738  70.277  1.00  0.00    -0.104 A  
ENDBRANCH  23  25
ENDBRANCH  10  23
ENDBRANCH   2   3
TORSDOF 8
ENDMDL
MODEL      148
REMARK 921   NORMALIZED FREE ENERGY PREDICTED BY IDOCK:   -4.89 KCAL/MOL
REMARK 922        TOTAL FREE ENERGY PREDICTED BY IDOCK:   -8.80 KCAL/MOL
REMARK 923 INTER-LIGAND FREE ENERGY PREDICTED BY IDOCK:   -8.01 KCAL/MOL
REMARK 924 INTRA-LIGAND FREE ENERGY PREDICTED BY IDOCK:   -0.80 KCAL/MOL
REMARK 927      BINDING AFFINITY PREDICTED BY RF-SCORE:    0.00 PKD
ROOT
HETATM    1  C   UNL     1     -11.445  15.080  64.621  1.00  0.00    -0.381 C  
HETATM    2  O   UNL     1     -10.964  14.928  65.955  1.00  0.00    -0.324 OA 
ENDROOT
BRANCH   2   3
HETATM    3  C   UNL     1     -11.078  13.670  66.487  1.00  0.00    -0.305 A  
HETATM    4  C   UNL     1     -11.730  13.519  67.712  1.00  0.00    -0.359 A  
HETATM    5  N   UNL     1     -10.073  10.264  65.748  1.00  0.00    -0.263 NA 
HETATM    6  C   UNL     1     -11.708  12.273  68.349  1.00  0.00    -0.390 A  
HETATM    7  C   UNL     1     -10.594  11.277  66.443  1.00  0.00    -0.266 A  
HETATM    8  C   UNL     1     -11.131  11.131  67.727  1.00  0.00    -0.344 A  
HETATM    9  C   UNL     1     -10.566  12.531  65.854  1.00  0.00    -0.292 A  
HETATM   10  C   UNL     1     -11.030   9.835  68.279  1.00  0.00    -0.164 A  
HETATM   11  N   UNL     1     -10.515   8.809  67.572  1.00  0.00    -0.272 NA 
HETATM   12  C   UNL     1     -10.071   9.074  66.343  1.00  0.00    -0.281 A  
BRANCH   4  13
HETATM   13  O   UNL     1     -12.360  14.510  68.419  1.00  0.00    -0.173 OA 
BRANCH  13  14
HETATM   14  C   UNL     1     -11.564  15.670  68.723  1.00  0.00    -0.384 C  
BRANCH  14  15
HETATM   15  C   UNL     1     -10.377  15.195  69.561  1.00  0.00    -0.251 C  
BRANCH  15  16
HETATM   16  C   UNL     1      -9.068  15.947  69.293  1.00  0.00    -0.253 C  
BRANCH  16  17
HETATM   17  N   UNL     1      -7.992  15.169  68.660  1.00  0.00    -0.142 NA 
HETATM   18  C   UNL     1      -6.802  15.093  69.545  1.00  0.00    -0.179 C  
HETATM   19  C   UNL     1      -6.006  16.408  69.623  1.00  0.00    -0.191 C  
HETATM   20  C   UNL     1      -7.541  15.699  67.354  1.00  0.00    -0.198 C  
HETATM   21  C   UNL     1      -6.677  16.971  67.432  1.00  0.00    -0.149 C  
HETATM   22  O   UNL     1      -5.565  16.815  68.323  1.00  0.00    -0.111 OA 
ENDBRANCH  16  17
ENDBRANCH  15  16
ENDBRANCH  14  15
ENDBRANCH  13  14
ENDBRANCH   4  13
BRANCH  10  23
HETATM   23  N   UNL     1     -11.394   9.611  69.632  1.00  0.00    -0.415 NA 
HETATM   24  H   UNL     1     -12.214  10.128  69.949  1.00  0.00     0.000 HD 
BRANCH  23  25
HETATM   25  C   UNL     1     -10.794   8.782  70.607  1.00  0.00    -0.232 A  
HETATM   26 CL   UNL     1     -11.914   5.528  72.679  1.00  0.00    -0.221 Cl 
HETATM   27  C   UNL     1      -9.784   7.201  72.711  1.00  0.00    -0.158 A  
HETATM   28  C   UNL     1     -11.002   6.879  72.121  1.00  0.00    -0.236 A  
HETATM   29  C   UNL     1      -9.059   8.292  72.261  1.00  0.00    -0.289 A  
HETATM   30  F   UNL     1      -9.297   6.476  73.730  1.00  0.00    -0.132 F  
HETATM   31  C   UNL     1      -9.568   9.080  71.222  1.00  0.00    -0.361 A  
HETATM   32  C   UNL     1     -11.506   7.664  71.078  1.00  0.00    -0.294 A  
ENDBRANCH  23  25
ENDBRANCH  10  23
ENDBRANCH   2   3
TORSDOF 8
ENDMDL
MODEL      149
REMARK 921   NORMALIZED FREE ENERGY PREDICTED BY IDOCK:   -4.87 KCAL/MOL
REMARK 922        TOTAL FREE ENERGY PREDICTED BY IDOCK:   -8.77 KCAL/MOL
REMARK 923 INTER-LIGAND FREE ENERGY PREDICTED BY IDOCK:   -7.66 KCAL/MOL
REMARK 924 INTRA-LIGAND FREE ENERGY PREDICTED BY IDOCK:   -1.12 KCAL/MOL
REMARK 927      BINDING AFFINITY PREDICTED BY RF-SCORE:    0.00 PKD
ROOT
HETATM    1  C   UNL     1     -13.330  14.700  72.650  1.00  0.00    -0.482 C  
HETATM    2  O   UNL     1     -13.766  14.534  71.302  1.00  0.00    -0.378 OA 
ENDROOT
BRANCH   2   3
HETATM    3  C   UNL     1     -12.774  14.520  70.355  1.00  0.00    -0.322 A  
HETATM    4  C   UNL     1     -12.123  13.315  70.087  1.00  0.00    -0.333 A  
HETATM    5  N   UNL     1     -11.035  16.818  68.152  1.00  0.00    -0.349 NA 
HETATM    6  C   UNL     1     -11.000  13.315  69.252  1.00  0.00    -0.140 A  
HETATM    7  C   UNL     1     -11.317  15.667  68.768  1.00  0.00    -0.349 A  
HETATM    8  C   UNL     1     -10.573  14.496  68.584  1.00  0.00    -0.255 A  
HETATM    9  C   UNL     1     -12.386  15.664  69.649  1.00  0.00    -0.178 A  
HETATM   10  C   UNL     1      -9.448  14.624  67.740  1.00  0.00    -0.205 A  
HETATM   11  N   UNL     1      -9.170  15.782  67.108  1.00  0.00    -0.205 NA 
HETATM   12  C   UNL     1      -9.981  16.815  67.340  1.00  0.00    -0.267 A  
BRANCH   4  13
HETATM   13  O   UNL     1     -12.433  12.092  70.624  1.00  0.00    -0.316 OA 
BRANCH  13  14
HETATM   14  C   UNL     1     -11.520  11.021  70.321  1.00  0.00    -0.273 C  
BRANCH  14  15
HETATM   15  C   UNL     1     -11.786   9.904  71.330  1.00  0.00    -0.476 C  
BRANCH  15  16
HETATM   16  C   UNL     1     -11.775   8.492  70.733  1.00  0.00    -0.205 C  
BRANCH  16  17
HETATM   17  N   UNL     1     -11.944   7.385  71.686  1.00  0.00    -0.293 NA 
HETATM   18  C   UNL     1     -11.278   7.691  72.978  1.00  0.00    -0.333 C  
HETATM   19  C   UNL     1      -9.743   7.601  72.917  1.00  0.00    -0.226 C  
HETATM   20  C   UNL     1     -11.417   6.085  71.212  1.00  0.00    -0.183 C  
HETATM   21  C   UNL     1      -9.882   5.962  71.225  1.00  0.00    -0.176 C  
HETATM   22  O   UNL     1      -9.325   6.296  72.503  1.00  0.00    -0.147 OA 
ENDBRANCH  16  17
ENDBRANCH  15  16
ENDBRANCH  14  15
ENDBRANCH  13  14
ENDBRANCH   4  13
BRANCH  10  23
HETATM   23  N   UNL     1      -8.534  13.546  67.611  1.00  0.00    -0.170 NA 
HETATM   24  H   UNL     1      -7.615  13.708  68.022  1.00  0.00     0.000 HD 
BRANCH  23  25
HETATM   25  C   UNL     1      -8.702  12.282  67.000  1.00  0.00    -0.199 A  
HETATM   26 CL   UNL     1     -10.104  10.972  63.472  1.00  0.00    -0.399 Cl 
HETATM   27  C   UNL     1      -9.290   9.810  65.778  1.00  0.00    -0.221 A  
HETATM   28  C   UNL     1      -9.485  10.996  65.079  1.00  0.00    -0.233 A  
HETATM   29  C   UNL     1      -8.798   9.838  67.073  1.00  0.00    -0.145 A  
HETATM   30  F   UNL     1      -9.587   8.625  65.225  1.00  0.00    -0.170 F  
HETATM   31  C   UNL     1      -8.515  11.068  67.679  1.00  0.00    -0.121 A  
HETATM   32  C   UNL     1      -9.196  12.224  65.685  1.00  0.00     0.091 A  
ENDBRANCH  23  25
ENDBRANCH  10  23
ENDBRANCH   2   3
TORSDOF 8
ENDMDL
MODEL      150
REMARK 921   NORMALIZED FREE ENERGY PREDICTED BY IDOCK:   -4.86 KCAL/MOL
REMARK 922        TOTAL FREE ENERGY PREDICTED BY IDOCK:   -8.77 KCAL/MOL
REMARK 923 INTER-LIGAND FREE ENERGY PREDICTED BY IDOCK:   -7.26 KCAL/MOL
REMARK 924 INTRA-LIGAND FREE ENERGY PREDICTED BY IDOCK:   -1.51 KCAL/MOL
REMARK 927      BINDING AFFINITY PREDICTED BY RF-SCORE:    0.00 PKD
ROOT
HETATM    1  C   UNL     1      -6.148   9.200  71.528  1.00  0.00    -0.076 C  
HETATM    2  O   UNL     1      -6.449  10.464  70.940  1.00  0.00    -0.327 OA 
ENDROOT
BRANCH   2   3
HETATM    3  C   UNL     1      -6.867  10.426  69.635  1.00  0.00    -0.108 A  
HETATM    4  C   UNL     1      -6.879  11.614  68.902  1.00  0.00    -0.101 A  
HETATM    5  N   UNL     1      -8.175   8.048  67.228  1.00  0.00    -0.120 NA 
HETATM    6  C   UNL     1      -7.459  11.627  67.629  1.00  0.00    -0.116 A  
HETATM    7  C   UNL     1      -7.804   9.231  67.723  1.00  0.00    -0.092 A  
HETATM    8  C   UNL     1      -7.940  10.434  67.020  1.00  0.00    -0.116 A  
HETATM    9  C   UNL     1      -7.287   9.247  69.008  1.00  0.00    -0.072 A  
HETATM   10  C   UNL     1      -8.562  10.326  65.758  1.00  0.00    -0.154 A  
HETATM   11  N   UNL     1      -8.926   9.130  65.252  1.00  0.00    -0.200 NA 
HETATM   12  C   UNL     1      -8.707   8.054  66.008  1.00  0.00    -0.157 A  
BRANCH   4  13
HETATM   13  O   UNL     1      -6.424  12.833  69.333  1.00  0.00    -0.111 OA 
BRANCH  13  14
HETATM   14  C   UNL     1      -6.750  13.958  68.496  1.00  0.00    -0.100 C  
BRANCH  14  15
HETATM   15  C   UNL     1      -7.568  14.930  69.346  1.00  0.00    -0.162 C  
BRANCH  15  16
HETATM   16  C   UNL     1      -8.834  15.462  68.662  1.00  0.00    -0.186 C  
BRANCH  16  17
HETATM   17  N   UNL     1      -8.627  16.227  67.423  1.00  0.00    -0.175 NA 
HETATM   18  C   UNL     1      -7.718  17.378  67.657  1.00  0.00    -0.193 C  
HETATM   19  C   UNL     1      -8.372  18.533  68.435  1.00  0.00    -0.332 C  
HETATM   20  C   UNL     1      -9.869  16.757  66.818  1.00  0.00    -0.276 C  
HETATM   21  C   UNL     1     -10.485  17.964  67.549  1.00  0.00    -0.390 C  
HETATM   22  O   UNL     1      -9.533  19.017  67.750  1.00  0.00    -0.294 OA 
ENDBRANCH  16  17
ENDBRANCH  15  16
ENDBRANCH  14  15
ENDBRANCH  13  14
ENDBRANCH   4  13
BRANCH  10  23
HETATM   23  N   UNL     1      -8.897  11.499  65.031  1.00  0.00    -0.388 NA 
HETATM   24  H   UNL     1      -8.189  11.811  64.366  1.00  0.00     0.000 HD 
BRANCH  23  25
HETATM   25  C   UNL     1     -10.060  12.300  65.088  1.00  0.00    -0.261 A  
HETATM   26 CL   UNL     1     -12.134  14.133  67.998  1.00  0.00    -0.362 Cl 
HETATM   27  C   UNL     1     -12.485  13.714  65.345  1.00  0.00    -0.499 A  
HETATM   28  C   UNL     1     -11.668  13.525  66.455  1.00  0.00    -0.369 A  
HETATM   29  C   UNL     1     -12.106  13.217  64.109  1.00  0.00    -0.496 A  
HETATM   30  F   UNL     1     -13.655  14.363  65.451  1.00  0.00    -0.311 F  
HETATM   31  C   UNL     1     -10.906  12.508  63.987  1.00  0.00    -0.446 A  
HETATM   32  C   UNL     1     -10.465  12.822  66.329  1.00  0.00    -0.273 A  
ENDBRANCH  23  25
ENDBRANCH  10  23
ENDBRANCH   2   3
TORSDOF 8
ENDMDL
MODEL      151
REMARK 921   NORMALIZED FREE ENERGY PREDICTED BY IDOCK:   -4.86 KCAL/MOL
REMARK 922        TOTAL FREE ENERGY PREDICTED BY IDOCK:   -8.77 KCAL/MOL
REMARK 923 INTER-LIGAND FREE ENERGY PREDICTED BY IDOCK:   -7.49 KCAL/MOL
REMARK 924 INTRA-LIGAND FREE ENERGY PREDICTED BY IDOCK:   -1.27 KCAL/MOL
REMARK 927      BINDING AFFINITY PREDICTED BY RF-SCORE:    0.00 PKD
ROOT
HETATM    1  C   UNL     1      -6.224  17.205  66.587  1.00  0.00    -0.214 C  
HETATM    2  O   UNL     1      -6.899  16.810  67.781  1.00  0.00    -0.131 OA 
ENDROOT
BRANCH   2   3
HETATM    3  C   UNL     1      -7.114  15.464  67.922  1.00  0.00    -0.140 A  
HETATM    4  C   UNL     1      -8.429  15.000  67.972  1.00  0.00    -0.149 A  
HETATM    5  N   UNL     1      -5.221  12.399  68.347  1.00  0.00    -0.052 NA 
HETATM    6  C   UNL     1      -8.670  13.657  68.285  1.00  0.00    -0.171 A  
HETATM    7  C   UNL     1      -6.293  13.192  68.268  1.00  0.00    -0.096 A  
HETATM    8  C   UNL     1      -7.602  12.730  68.447  1.00  0.00    -0.133 A  
HETATM    9  C   UNL     1      -6.070  14.537  68.023  1.00  0.00    -0.161 A  
HETATM   10  C   UNL     1      -7.719  11.365  68.784  1.00  0.00    -0.135 A  
HETATM   11  N   UNL     1      -6.638  10.561  68.852  1.00  0.00    -0.052 NA 
HETATM   12  C   UNL     1      -5.448  11.118  68.622  1.00  0.00    -0.043 A  
BRANCH   4  13
HETATM   13  O   UNL     1      -9.560  15.756  67.805  1.00  0.00    -0.213 OA 
BRANCH  13  14
HETATM   14  C   UNL     1     -10.811  15.063  67.965  1.00  0.00    -0.270 C  
BRANCH  14  15
HETATM   15  C   UNL     1     -11.754  16.003  68.716  1.00  0.00    -0.302 C  
BRANCH  15  16
HETATM   16  C   UNL     1     -12.565  15.332  69.832  1.00  0.00    -0.177 C  
BRANCH  16  17
HETATM   17  N   UNL     1     -11.797  14.525  70.793  1.00  0.00    -0.308 NA 
HETATM   18  C   UNL     1     -12.546  13.299  71.172  1.00  0.00    -0.325 C  
HETATM   19  C   UNL     1     -13.730  13.567  72.118  1.00  0.00    -0.559 C  
HETATM   20  C   UNL     1     -11.444  15.234  72.042  1.00  0.00    -0.413 C  
HETATM   21  C   UNL     1     -12.610  15.435  73.028  1.00  0.00    -0.434 C  
HETATM   22  O   UNL     1     -13.287  14.206  73.320  1.00  0.00    -0.567 OA 
ENDBRANCH  16  17
ENDBRANCH  15  16
ENDBRANCH  14  15
ENDBRANCH  13  14
ENDBRANCH   4  13
BRANCH  10  23
HETATM   23  N   UNL     1      -8.983  10.830  69.145  1.00  0.00    -0.328 NA 
HETATM   24  H   UNL     1      -9.487  11.357  69.858  1.00  0.00     0.000 HD 
BRANCH  23  25
HETATM   25  C   UNL     1      -9.651   9.679  68.667  1.00  0.00    -0.150 A  
HETATM   26 CL   UNL     1     -11.128   6.332  70.324  1.00  0.00    -0.396 Cl 
HETATM   27  C   UNL     1     -10.783   7.248  67.799  1.00  0.00    -0.197 A  
HETATM   28  C   UNL     1     -10.638   7.502  69.158  1.00  0.00    -0.197 A  
HETATM   29  C   UNL     1     -10.380   8.191  66.867  1.00  0.00    -0.401 A  
HETATM   30  F   UNL     1     -11.296   6.087  67.364  1.00  0.00    -0.345 F  
HETATM   31  C   UNL     1      -9.811   9.393  67.302  1.00  0.00    -0.232 A  
HETATM   32  C   UNL     1     -10.074   8.707  69.591  1.00  0.00    -0.201 A  
ENDBRANCH  23  25
ENDBRANCH  10  23
ENDBRANCH   2   3
TORSDOF 8
ENDMDL
MODEL      152
REMARK 921   NORMALIZED FREE ENERGY PREDICTED BY IDOCK:   -4.85 KCAL/MOL
REMARK 922        TOTAL FREE ENERGY PREDICTED BY IDOCK:   -8.75 KCAL/MOL
REMARK 923 INTER-LIGAND FREE ENERGY PREDICTED BY IDOCK:   -7.07 KCAL/MOL
REMARK 924 INTRA-LIGAND FREE ENERGY PREDICTED BY IDOCK:   -1.68 KCAL/MOL
REMARK 927      BINDING AFFINITY PREDICTED BY RF-SCORE:    0.00 PKD
ROOT
HETATM    1  C   UNL     1     -10.445  19.615  66.264  1.00  0.00    -0.519 C  
HETATM    2  O   UNL     1     -10.756  18.850  67.427  1.00  0.00    -0.444 OA 
ENDROOT
BRANCH   2   3
HETATM    3  C   UNL     1      -9.796  17.956  67.823  1.00  0.00    -0.300 A  
HETATM    4  C   UNL     1     -10.048  16.592  67.665  1.00  0.00    -0.266 A  
HETATM    5  N   UNL     1      -6.522  17.937  69.386  1.00  0.00    -0.247 NA 
HETATM    6  C   UNL     1      -9.157  15.664  68.215  1.00  0.00    -0.187 A  
HETATM    7  C   UNL     1      -7.652  17.444  68.872  1.00  0.00    -0.224 A  
HETATM    8  C   UNL     1      -7.945  16.076  68.837  1.00  0.00    -0.212 A  
HETATM    9  C   UNL     1      -8.575  18.353  68.381  1.00  0.00    -0.345 A  
HETATM   10  C   UNL     1      -6.985  15.238  69.445  1.00  0.00    -0.180 A  
HETATM   11  N   UNL     1      -5.839  15.735  69.952  1.00  0.00    -0.148 NA 
HETATM   12  C   UNL     1      -5.664  17.055  69.890  1.00  0.00    -0.222 A  
BRANCH   4  13
HETATM   13  O   UNL     1     -11.147  16.038  67.063  1.00  0.00    -0.222 OA 
BRANCH  13  14
HETATM   14  C   UNL     1     -10.897  14.896  66.223  1.00  0.00    -0.331 C  
BRANCH  14  15
HETATM   15  C   UNL     1     -12.157  14.030  66.253  1.00  0.00    -0.482 C  
BRANCH  15  16
HETATM   16  C   UNL     1     -11.971  12.660  66.917  1.00  0.00    -0.275 C  
BRANCH  16  17
HETATM   17  N   UNL     1     -10.975  12.595  67.998  1.00  0.00    -0.225 NA 
HETATM   18  C   UNL     1     -10.035  11.465  67.784  1.00  0.00    -0.178 C  
HETATM   19  C   UNL     1     -10.654  10.085  68.071  1.00  0.00    -0.235 C  
HETATM   20  C   UNL     1     -11.552  12.443  69.352  1.00  0.00    -0.307 C  
HETATM   21  C   UNL     1     -12.101  11.041  69.671  1.00  0.00    -0.340 C  
HETATM   22  O   UNL     1     -11.136  10.012  69.417  1.00  0.00    -0.232 OA 
ENDBRANCH  16  17
ENDBRANCH  15  16
ENDBRANCH  14  15
ENDBRANCH  13  14
ENDBRANCH   4  13
BRANCH  10  23
HETATM   23  N   UNL     1      -7.255  13.854  69.609  1.00  0.00    -0.330 NA 
HETATM   24  H   UNL     1      -7.832  13.620  70.416  1.00  0.00     0.000 HD 
BRANCH  23  25
HETATM   25  C   UNL     1      -6.847  12.752  68.824  1.00  0.00    -0.096 A  
HETATM   26 CL   UNL     1      -5.703   8.974  69.571  1.00  0.00    -0.034 Cl 
HETATM   27  C   UNL     1      -5.807  10.565  67.381  1.00  0.00    -0.045 A  
HETATM   28  C   UNL     1      -6.051  10.446  68.745  1.00  0.00    -0.040 A  
HETATM   29  C   UNL     1      -6.083  11.754  66.725  1.00  0.00    -0.102 A  
HETATM   30  F   UNL     1      -5.290   9.544  66.680  1.00  0.00    -0.041 F  
HETATM   31  C   UNL     1      -6.591  12.840  67.447  1.00  0.00    -0.140 A  
HETATM   32  C   UNL     1      -6.565  11.531  69.463  1.00  0.00    -0.120 A  
ENDBRANCH  23  25
ENDBRANCH  10  23
ENDBRANCH   2   3
TORSDOF 8
ENDMDL
MODEL      153
REMARK 921   NORMALIZED FREE ENERGY PREDICTED BY IDOCK:   -4.84 KCAL/MOL
REMARK 922        TOTAL FREE ENERGY PREDICTED BY IDOCK:   -8.74 KCAL/MOL
REMARK 923 INTER-LIGAND FREE ENERGY PREDICTED BY IDOCK:   -7.95 KCAL/MOL
REMARK 924 INTRA-LIGAND FREE ENERGY PREDICTED BY IDOCK:   -0.79 KCAL/MOL
REMARK 927      BINDING AFFINITY PREDICTED BY RF-SCORE:    0.00 PKD
ROOT
HETATM    1  C   UNL     1     -12.347  14.627  64.582  1.00  0.00    -0.375 C  
HETATM    2  O   UNL     1     -12.752  13.352  65.078  1.00  0.00    -0.623 OA 
ENDROOT
BRANCH   2   3
HETATM    3  C   UNL     1     -11.737  12.477  65.364  1.00  0.00    -0.398 A  
HETATM    4  C   UNL     1     -11.507  12.134  66.697  1.00  0.00    -0.365 A  
HETATM    5  N   UNL     1      -9.120  10.638  63.654  1.00  0.00    -0.214 NA 
HETATM    6  C   UNL     1     -10.374  11.379  67.024  1.00  0.00    -0.258 A  
HETATM    7  C   UNL     1      -9.831  11.114  64.678  1.00  0.00    -0.280 A  
HETATM    8  C   UNL     1      -9.511  10.863  66.017  1.00  0.00    -0.235 A  
HETATM    9  C   UNL     1     -10.919  11.917  64.376  1.00  0.00    -0.392 A  
HETATM   10  C   UNL     1      -8.333  10.113  66.224  1.00  0.00    -0.130 A  
HETATM   11  N   UNL     1      -7.621   9.621  65.190  1.00  0.00    -0.109 NA 
HETATM   12  C   UNL     1      -8.055   9.901  63.961  1.00  0.00    -0.152 A  
BRANCH   4  13
HETATM   13  O   UNL     1     -12.262  12.522  67.774  1.00  0.00    -0.372 OA 
BRANCH  13  14
HETATM   14  C   UNL     1     -12.332  13.939  68.016  1.00  0.00     0.039 C  
BRANCH  14  15
HETATM   15  C   UNL     1     -10.898  14.438  68.190  1.00  0.00    -0.251 C  
BRANCH  15  16
HETATM   16  C   UNL     1     -10.778  15.935  68.496  1.00  0.00    -0.274 C  
BRANCH  16  17
HETATM   17  N   UNL     1      -9.607  16.621  67.927  1.00  0.00    -0.231 NA 
HETATM   18  C   UNL     1      -9.561  18.040  68.362  1.00  0.00    -0.334 C  
HETATM   19  C   UNL     1     -10.606  18.932  67.667  1.00  0.00    -0.428 C  
HETATM   20  C   UNL     1      -9.550  16.606  66.449  1.00  0.00    -0.285 C  
HETATM   21  C   UNL     1     -10.540  17.557  65.750  1.00  0.00    -0.174 C  
HETATM   22  O   UNL     1     -10.440  18.898  66.245  1.00  0.00    -0.417 OA 
ENDBRANCH  16  17
ENDBRANCH  15  16
ENDBRANCH  14  15
ENDBRANCH  13  14
ENDBRANCH   4  13
BRANCH  10  23
HETATM   23  N   UNL     1      -7.828   9.937  67.539  1.00  0.00    -0.098 NA 
HETATM   24  H   UNL     1      -6.934  10.392  67.722  1.00  0.00     0.000 HD 
BRANCH  23  25
HETATM   25  C   UNL     1      -8.374   9.227  68.633  1.00  0.00    -0.118 A  
HETATM   26 CL   UNL     1     -10.187   5.677  69.125  1.00  0.00    -0.278 Cl 
HETATM   27  C   UNL     1      -9.689   7.826  70.696  1.00  0.00    -0.177 A  
HETATM   28  C   UNL     1      -9.547   7.245  69.440  1.00  0.00    -0.154 A  
HETATM   29  C   UNL     1      -9.178   9.091  70.940  1.00  0.00    -0.320 A  
HETATM   30  F   UNL     1     -10.334   7.187  71.684  1.00  0.00    -0.197 F  
HETATM   31  C   UNL     1      -8.533   9.786  69.911  1.00  0.00    -0.217 A  
HETATM   32  C   UNL     1      -8.896   7.940  68.415  1.00  0.00    -0.130 A  
ENDBRANCH  23  25
ENDBRANCH  10  23
ENDBRANCH   2   3
TORSDOF 8
ENDMDL
MODEL      154
REMARK 921   NORMALIZED FREE ENERGY PREDICTED BY IDOCK:   -4.83 KCAL/MOL
REMARK 922        TOTAL FREE ENERGY PREDICTED BY IDOCK:   -8.73 KCAL/MOL
REMARK 923 INTER-LIGAND FREE ENERGY PREDICTED BY IDOCK:   -7.53 KCAL/MOL
REMARK 924 INTRA-LIGAND FREE ENERGY PREDICTED BY IDOCK:   -1.19 KCAL/MOL
REMARK 927      BINDING AFFINITY PREDICTED BY RF-SCORE:    0.00 PKD
ROOT
HETATM    1  C   UNL     1     -13.490  15.520  72.474  1.00  0.00    -0.526 C  
HETATM    2  O   UNL     1     -12.988  14.345  71.840  1.00  0.00    -0.319 OA 
ENDROOT
BRANCH   2   3
HETATM    3  C   UNL     1     -12.221  14.555  70.723  1.00  0.00    -0.333 A  
HETATM    4  C   UNL     1     -12.006  13.488  69.850  1.00  0.00    -0.348 A  
HETATM    5  N   UNL     1     -10.291  17.200  69.163  1.00  0.00    -0.317 NA 
HETATM    6  C   UNL     1     -11.093  13.636  68.800  1.00  0.00    -0.302 A  
HETATM    7  C   UNL     1     -10.787  15.975  69.350  1.00  0.00    -0.300 A  
HETATM    8  C   UNL     1     -10.460  14.883  68.537  1.00  0.00    -0.242 A  
HETATM    9  C   UNL     1     -11.642  15.794  70.424  1.00  0.00    -0.376 A  
HETATM   10  C   UNL     1      -9.509  15.146  67.528  1.00  0.00    -0.206 A  
HETATM   11  N   UNL     1      -9.018  16.387  67.330  1.00  0.00    -0.190 NA 
HETATM   12  C   UNL     1      -9.439  17.349  68.152  1.00  0.00    -0.288 A  
BRANCH   4  13
HETATM   13  O   UNL     1     -12.564  12.239  69.947  1.00  0.00     0.028 OA 
BRANCH  13  14
HETATM   14  C   UNL     1     -11.876  11.307  70.801  1.00  0.00    -0.183 C  
BRANCH  14  15
HETATM   15  C   UNL     1     -11.315  10.204  69.904  1.00  0.00    -0.335 C  
BRANCH  15  16
HETATM   16  C   UNL     1     -11.306   8.809  70.540  1.00  0.00    -0.227 C  
BRANCH  16  17
HETATM   17  N   UNL     1      -9.990   8.164  70.670  1.00  0.00    -0.188 NA 
HETATM   18  C   UNL     1     -10.111   6.688  70.571  1.00  0.00    -0.187 C  
HETATM   19  C   UNL     1     -10.719   6.033  71.824  1.00  0.00    -0.244 C  
HETATM   20  C   UNL     1      -9.283   8.469  71.934  1.00  0.00    -0.255 C  
HETATM   21  C   UNL     1      -9.839   7.753  73.179  1.00  0.00    -0.298 C  
HETATM   22  O   UNL     1      -9.941   6.337  72.986  1.00  0.00    -0.167 OA 
ENDBRANCH  16  17
ENDBRANCH  15  16
ENDBRANCH  14  15
ENDBRANCH  13  14
ENDBRANCH   4  13
BRANCH  10  23
HETATM   23  N   UNL     1      -8.986  14.079  66.752  1.00  0.00    -0.365 NA 
HETATM   24  H   UNL     1      -8.848  14.291  65.764  1.00  0.00     0.000 HD 
BRANCH  23  25
HETATM   25  C   UNL     1      -8.627  12.768  67.139  1.00  0.00    -0.197 A  
HETATM   26 CL   UNL     1      -9.871   9.065  66.204  1.00  0.00    -0.356 Cl 
HETATM   27  C   UNL     1      -8.148  10.128  68.004  1.00  0.00    -0.112 A  
HETATM   28  C   UNL     1      -9.038  10.369  66.962  1.00  0.00    -0.139 A  
HETATM   29  C   UNL     1      -7.488  11.182  68.613  1.00  0.00    -0.119 A  
HETATM   30  F   UNL     1      -7.925   8.881  68.447  1.00  0.00    -0.099 F  
HETATM   31  C   UNL     1      -7.734  12.492  68.187  1.00  0.00    -0.141 A  
HETATM   32  C   UNL     1      -9.278  11.679  66.533  1.00  0.00    -0.205 A  
ENDBRANCH  23  25
ENDBRANCH  10  23
ENDBRANCH   2   3
TORSDOF 8
ENDMDL
MODEL      155
REMARK 921   NORMALIZED FREE ENERGY PREDICTED BY IDOCK:   -4.82 KCAL/MOL
REMARK 922        TOTAL FREE ENERGY PREDICTED BY IDOCK:   -8.71 KCAL/MOL
REMARK 923 INTER-LIGAND FREE ENERGY PREDICTED BY IDOCK:   -7.77 KCAL/MOL
REMARK 924 INTRA-LIGAND FREE ENERGY PREDICTED BY IDOCK:   -0.94 KCAL/MOL
REMARK 927      BINDING AFFINITY PREDICTED BY RF-SCORE:    0.00 PKD
ROOT
HETATM    1  C   UNL     1      -9.912   6.370  71.268  1.00  0.00    -0.182 C  
HETATM    2  O   UNL     1     -10.676   7.566  71.117  1.00  0.00    -0.225 OA 
ENDROOT
BRANCH   2   3
HETATM    3  C   UNL     1     -10.186   8.473  70.214  1.00  0.00    -0.193 A  
HETATM    4  C   UNL     1     -10.699   9.770  70.224  1.00  0.00    -0.302 A  
HETATM    5  N   UNL     1      -7.826   8.623  67.463  1.00  0.00    -0.101 NA 
HETATM    6  C   UNL     1     -10.336  10.658  69.206  1.00  0.00    -0.240 A  
HETATM    7  C   UNL     1      -8.776   9.040  68.304  1.00  0.00    -0.130 A  
HETATM    8  C   UNL     1      -9.372  10.304  68.221  1.00  0.00    -0.140 A  
HETATM    9  C   UNL     1      -9.194   8.151  69.279  1.00  0.00    -0.151 A  
HETATM   10  C   UNL     1      -8.945  11.102  67.138  1.00  0.00    -0.145 A  
HETATM   11  N   UNL     1      -7.977  10.687  66.296  1.00  0.00    -0.144 NA 
HETATM   12  C   UNL     1      -7.463   9.474  66.507  1.00  0.00    -0.093 A  
BRANCH   4  13
HETATM   13  O   UNL     1     -11.606  10.273  71.121  1.00  0.00    -0.355 OA 
BRANCH  13  14
HETATM   14  C   UNL     1     -12.158  11.563  70.803  1.00  0.00    -0.309 C  
BRANCH  14  15
HETATM   15  C   UNL     1     -13.397  11.752  71.679  1.00  0.00    -0.242 C  
BRANCH  15  16
HETATM   16  C   UNL     1     -13.404  13.047  72.500  1.00  0.00    -0.366 C  
BRANCH  16  17
HETATM   17  N   UNL     1     -13.826  14.263  71.786  1.00  0.00    -0.409 NA 
HETATM   18  C   UNL     1     -12.830  14.644  70.753  1.00  0.00    -0.358 C  
HETATM   19  C   UNL     1     -11.541  15.253  71.333  1.00  0.00    -0.391 C  
HETATM   20  C   UNL     1     -14.035  15.440  72.658  1.00  0.00    -0.496 C  
HETATM   21  C   UNL     1     -12.746  16.102  73.177  1.00  0.00    -0.478 C  
HETATM   22  O   UNL     1     -11.835  16.416  72.116  1.00  0.00    -0.525 OA 
ENDBRANCH  16  17
ENDBRANCH  15  16
ENDBRANCH  14  15
ENDBRANCH  13  14
ENDBRANCH   4  13
BRANCH  10  23
HETATM   23  N   UNL     1      -9.597  12.333  66.864  1.00  0.00    -0.207 NA 
HETATM   24  H   UNL     1     -10.364  12.276  66.194  1.00  0.00     0.000 HD 
BRANCH  23  25
HETATM   25  C   UNL     1      -9.347  13.626  67.380  1.00  0.00    -0.227 A  
HETATM   26 CL   UNL     1      -9.238  17.342  65.860  1.00  0.00    -0.092 Cl 
HETATM   27  C   UNL     1      -8.648  16.214  68.251  1.00  0.00    -0.182 A  
HETATM   28  C   UNL     1      -9.108  16.016  66.953  1.00  0.00    -0.228 A  
HETATM   29  C   UNL     1      -8.540  15.142  69.122  1.00  0.00    -0.218 A  
HETATM   30  F   UNL     1      -8.286  17.433  68.677  1.00  0.00    -0.246 F  
HETATM   31  C   UNL     1      -8.880  13.857  68.683  1.00  0.00    -0.076 A  
HETATM   32  C   UNL     1      -9.454  14.732  66.519  1.00  0.00    -0.316 A  
ENDBRANCH  23  25
ENDBRANCH  10  23
ENDBRANCH   2   3
TORSDOF 8
ENDMDL
MODEL      156
REMARK 921   NORMALIZED FREE ENERGY PREDICTED BY IDOCK:   -4.76 KCAL/MOL
REMARK 922        TOTAL FREE ENERGY PREDICTED BY IDOCK:   -8.62 KCAL/MOL
REMARK 923 INTER-LIGAND FREE ENERGY PREDICTED BY IDOCK:   -7.37 KCAL/MOL
REMARK 924 INTRA-LIGAND FREE ENERGY PREDICTED BY IDOCK:   -1.25 KCAL/MOL
REMARK 927      BINDING AFFINITY PREDICTED BY RF-SCORE:    0.00 PKD
ROOT
HETATM    1  C   UNL     1     -10.893  15.881  69.245  1.00  0.00    -0.276 C  
HETATM    2  O   UNL     1     -11.388  14.865  68.374  1.00  0.00    -0.276 OA 
ENDROOT
BRANCH   2   3
HETATM    3  C   UNL     1     -11.393  13.594  68.888  1.00  0.00    -0.290 A  
HETATM    4  C   UNL     1     -10.624  12.615  68.258  1.00  0.00    -0.237 A  
HETATM    5  N   UNL     1     -12.967  11.707  71.558  1.00  0.00    -0.415 NA 
HETATM    6  C   UNL     1     -10.748  11.281  68.663  1.00  0.00    -0.241 A  
HETATM    7  C   UNL     1     -12.222  11.931  70.472  1.00  0.00    -0.336 A  
HETATM    8  C   UNL     1     -11.557  10.915  69.775  1.00  0.00    -0.399 A  
HETATM    9  C   UNL     1     -12.140  13.237  70.017  1.00  0.00    -0.385 A  
HETATM   10  C   UNL     1     -11.777   9.608  70.260  1.00  0.00    -0.155 A  
HETATM   11  N   UNL     1     -12.519   9.383  71.364  1.00  0.00    -0.333 NA 
HETATM   12  C   UNL     1     -13.068  10.443  71.958  1.00  0.00    -0.416 A  
BRANCH   4  13
HETATM   13  O   UNL     1      -9.775  12.812  67.200  1.00  0.00    -0.207 OA 
BRANCH  13  14
HETATM   14  C   UNL     1      -8.459  13.292  67.530  1.00  0.00    -0.202 C  
BRANCH  14  15
HETATM   15  C   UNL     1      -7.596  12.068  67.838  1.00  0.00    -0.124 C  
BRANCH  15  16
HETATM   16  C   UNL     1      -6.933  11.432  66.610  1.00  0.00    -0.102 C  
BRANCH  16  17
HETATM   17  N   UNL     1      -7.125   9.983  66.450  1.00  0.00    -0.098 NA 
HETATM   18  C   UNL     1      -6.731   9.544  65.087  1.00  0.00    -0.088 C  
HETATM   19  C   UNL     1      -7.737   9.946  63.994  1.00  0.00    -0.141 C  
HETATM   20  C   UNL     1      -8.511   9.520  66.683  1.00  0.00    -0.133 C  
HETATM   21  C   UNL     1      -9.505   9.851  65.555  1.00  0.00    -0.252 C  
HETATM   22  O   UNL     1      -9.035   9.411  64.275  1.00  0.00    -0.219 OA 
ENDBRANCH  16  17
ENDBRANCH  15  16
ENDBRANCH  14  15
ENDBRANCH  13  14
ENDBRANCH   4  13
BRANCH  10  23
HETATM   23  N   UNL     1     -11.285   8.492  69.535  1.00  0.00    -0.440 NA 
HETATM   24  H   UNL     1     -11.416   8.541  68.525  1.00  0.00     0.000 HD 
BRANCH  23  25
HETATM   25  C   UNL     1     -10.641   7.321  70.000  1.00  0.00    -0.233 A  
HETATM   26 CL   UNL     1      -7.724   6.514  72.639  1.00  0.00    -0.102 Cl 
HETATM   27  C   UNL     1      -9.141   5.083  70.828  1.00  0.00    -0.134 A  
HETATM   28  C   UNL     1      -8.923   6.325  71.416  1.00  0.00    -0.139 A  
HETATM   29  C   UNL     1     -10.102   4.941  69.841  1.00  0.00    -0.332 A  
HETATM   30  F   UNL     1      -8.421   4.011  71.190  1.00  0.00    -0.071 F  
HETATM   31  C   UNL     1     -10.839   6.055  69.426  1.00  0.00    -0.433 A  
HETATM   32  C   UNL     1      -9.665   7.437  71.005  1.00  0.00    -0.164 A  
ENDBRANCH  23  25
ENDBRANCH  10  23
ENDBRANCH   2   3
TORSDOF 8
ENDMDL
MODEL      157
REMARK 921   NORMALIZED FREE ENERGY PREDICTED BY IDOCK:   -4.75 KCAL/MOL
REMARK 922        TOTAL FREE ENERGY PREDICTED BY IDOCK:   -8.61 KCAL/MOL
REMARK 923 INTER-LIGAND FREE ENERGY PREDICTED BY IDOCK:   -7.53 KCAL/MOL
REMARK 924 INTRA-LIGAND FREE ENERGY PREDICTED BY IDOCK:   -1.07 KCAL/MOL
REMARK 927      BINDING AFFINITY PREDICTED BY RF-SCORE:    0.00 PKD
ROOT
HETATM    1  C   UNL     1      -6.675   5.019  64.937  1.00  0.00    -0.048 C  
HETATM    2  O   UNL     1      -7.274   5.459  66.154  1.00  0.00    -0.074 OA 
ENDROOT
BRANCH   2   3
HETATM    3  C   UNL     1      -7.911   6.671  66.097  1.00  0.00    -0.110 A  
HETATM    4  C   UNL     1      -8.571   7.134  67.236  1.00  0.00    -0.121 A  
HETATM    5  N   UNL     1      -8.608   9.309  63.706  1.00  0.00    -0.203 NA 
HETATM    6  C   UNL     1      -9.366   8.282  67.148  1.00  0.00    -0.189 A  
HETATM    7  C   UNL     1      -8.661   8.637  64.858  1.00  0.00    -0.135 A  
HETATM    8  C   UNL     1      -9.431   9.050  65.952  1.00  0.00    -0.317 A  
HETATM    9  C   UNL     1      -7.931   7.463  64.942  1.00  0.00    -0.128 A  
HETATM   10  C   UNL     1     -10.211  10.207  65.737  1.00  0.00    -0.213 A  
HETATM   11  N   UNL     1     -10.148  10.892  64.578  1.00  0.00    -0.315 NA 
HETATM   12  C   UNL     1      -9.346  10.413  63.627  1.00  0.00    -0.291 A  
BRANCH   4  13
HETATM   13  O   UNL     1      -8.580   6.529  68.466  1.00  0.00    -0.123 OA 
BRANCH  13  14
HETATM   14  C   UNL     1      -7.946   7.260  69.532  1.00  0.00    -0.127 C  
BRANCH  14  15
HETATM   15  C   UNL     1      -8.412   6.634  70.847  1.00  0.00    -0.133 C  
BRANCH  15  16
HETATM   16  C   UNL     1      -9.717   7.216  71.401  1.00  0.00    -0.168 C  
BRANCH  16  17
HETATM   17  N   UNL     1     -10.708   7.648  70.403  1.00  0.00    -0.232 NA 
HETATM   18  C   UNL     1     -11.066   9.077  70.595  1.00  0.00    -0.265 C  
HETATM   19  C   UNL     1     -11.968   9.328  71.816  1.00  0.00    -0.385 C  
HETATM   20  C   UNL     1     -11.967   6.869  70.416  1.00  0.00    -0.258 C  
HETATM   21  C   UNL     1     -12.909   7.176  71.594  1.00  0.00    -0.379 C  
HETATM   22  O   UNL     1     -13.182   8.577  71.716  1.00  0.00    -0.338 OA 
ENDBRANCH  16  17
ENDBRANCH  15  16
ENDBRANCH  14  15
ENDBRANCH  13  14
ENDBRANCH   4  13
BRANCH  10  23
HETATM   23  N   UNL     1     -11.149  10.621  66.719  1.00  0.00    -0.147 NA 
HETATM   24  H   UNL     1     -11.805   9.901  67.020  1.00  0.00     0.000 HD 
BRANCH  23  25
HETATM   25  C   UNL     1     -11.311  11.879  67.344  1.00  0.00    -0.324 A  
HETATM   26 CL   UNL     1     -12.488  13.143  70.970  1.00  0.00    -0.448 Cl 
HETATM   27  C   UNL     1     -11.884  14.330  68.612  1.00  0.00    -0.344 A  
HETATM   28  C   UNL     1     -11.989  13.138  69.321  1.00  0.00    -0.292 A  
HETATM   29  C   UNL     1     -11.489  14.318  67.284  1.00  0.00    -0.371 A  
HETATM   30  F   UNL     1     -12.176  15.506  69.189  1.00  0.00    -0.340 F  
HETATM   31  C   UNL     1     -11.214  13.098  66.655  1.00  0.00    -0.335 A  
HETATM   32  C   UNL     1     -11.707  11.920  68.692  1.00  0.00    -0.380 A  
ENDBRANCH  23  25
ENDBRANCH  10  23
ENDBRANCH   2   3
TORSDOF 8
ENDMDL
MODEL      158
REMARK 921   NORMALIZED FREE ENERGY PREDICTED BY IDOCK:   -4.72 KCAL/MOL
REMARK 922        TOTAL FREE ENERGY PREDICTED BY IDOCK:   -8.57 KCAL/MOL
REMARK 923 INTER-LIGAND FREE ENERGY PREDICTED BY IDOCK:   -7.00 KCAL/MOL
REMARK 924 INTRA-LIGAND FREE ENERGY PREDICTED BY IDOCK:   -1.57 KCAL/MOL
REMARK 927      BINDING AFFINITY PREDICTED BY RF-SCORE:    0.00 PKD
ROOT
HETATM    1  C   UNL     1      -8.319   6.085  66.437  1.00  0.00    -0.118 C  
HETATM    2  O   UNL     1      -7.984   7.330  67.048  1.00  0.00    -0.106 OA 
ENDROOT
BRANCH   2   3
HETATM    3  C   UNL     1      -8.947   7.869  67.860  1.00  0.00    -0.129 A  
HETATM    4  C   UNL     1      -9.889   8.732  67.298  1.00  0.00    -0.201 A  
HETATM    5  N   UNL     1      -9.913   7.882  71.357  1.00  0.00    -0.170 NA 
HETATM    6  C   UNL     1     -10.771   9.423  68.137  1.00  0.00    -0.230 A  
HETATM    7  C   UNL     1      -9.934   8.221  70.065  1.00  0.00    -0.188 A  
HETATM    8  C   UNL     1     -10.802   9.184  69.539  1.00  0.00    -0.194 A  
HETATM    9  C   UNL     1      -9.023   7.594  69.231  1.00  0.00    -0.135 A  
HETATM   10  C   UNL     1     -11.627   9.832  70.484  1.00  0.00    -0.292 A  
HETATM   11  N   UNL     1     -11.615   9.482  71.786  1.00  0.00    -0.375 NA 
HETATM   12  C   UNL     1     -10.766   8.521  72.153  1.00  0.00    -0.356 A  
BRANCH   4  13
HETATM   13  O   UNL     1     -10.010   9.040  65.968  1.00  0.00    -0.283 OA 
BRANCH  13  14
HETATM   14  C   UNL     1      -8.955   9.844  65.409  1.00  0.00    -0.184 C  
BRANCH  14  15
HETATM   15  C   UNL     1      -9.041  11.221  66.067  1.00  0.00    -0.221 C  
BRANCH  15  16
HETATM   16  C   UNL     1      -7.824  11.594  66.922  1.00  0.00    -0.156 C  
BRANCH  16  17
HETATM   17  N   UNL     1      -8.103  11.968  68.317  1.00  0.00    -0.150 NA 
HETATM   18  C   UNL     1      -7.605  13.337  68.608  1.00  0.00    -0.094 C  
HETATM   19  C   UNL     1      -6.073  13.421  68.737  1.00  0.00    -0.086 C  
HETATM   20  C   UNL     1      -7.514  11.057  69.323  1.00  0.00    -0.100 C  
HETATM   21  C   UNL     1      -5.992  11.194  69.512  1.00  0.00    -0.072 C  
HETATM   22  O   UNL     1      -5.599  12.548  69.768  1.00  0.00    -0.083 OA 
ENDBRANCH  16  17
ENDBRANCH  15  16
ENDBRANCH  14  15
ENDBRANCH  13  14
ENDBRANCH   4  13
BRANCH  10  23
HETATM   23  N   UNL     1     -12.428  10.934  70.086  1.00  0.00    -0.308 NA 
HETATM   24  H   UNL     1     -13.390  10.702  69.840  1.00  0.00     0.000 HD 
BRANCH  23  25
HETATM   25  C   UNL     1     -12.096  12.304  69.980  1.00  0.00    -0.273 A  
HETATM   26 CL   UNL     1     -12.981  15.633  72.047  1.00  0.00    -0.498 Cl 
HETATM   27  C   UNL     1     -11.684  15.082  69.734  1.00  0.00    -0.307 A  
HETATM   28  C   UNL     1     -12.366  14.574  70.835  1.00  0.00    -0.345 A  
HETATM   29  C   UNL     1     -11.198  14.225  68.759  1.00  0.00    -0.286 A  
HETATM   30  F   UNL     1     -11.499  16.403  69.584  1.00  0.00    -0.307 F  
HETATM   31  C   UNL     1     -11.412  12.848  68.881  1.00  0.00    -0.350 A  
HETATM   32  C   UNL     1     -12.573  13.196  70.957  1.00  0.00    -0.397 A  
ENDBRANCH  23  25
ENDBRANCH  10  23
ENDBRANCH   2   3
TORSDOF 8
ENDMDL
MODEL      159
REMARK 921   NORMALIZED FREE ENERGY PREDICTED BY IDOCK:   -4.71 KCAL/MOL
REMARK 922        TOTAL FREE ENERGY PREDICTED BY IDOCK:   -8.55 KCAL/MOL
REMARK 923 INTER-LIGAND FREE ENERGY PREDICTED BY IDOCK:   -7.35 KCAL/MOL
REMARK 924 INTRA-LIGAND FREE ENERGY PREDICTED BY IDOCK:   -1.20 KCAL/MOL
REMARK 927      BINDING AFFINITY PREDICTED BY RF-SCORE:    0.00 PKD
ROOT
HETATM    1  C   UNL     1      -7.101   9.141  67.243  1.00  0.00    -0.079 C  
HETATM    2  O   UNL     1      -7.612  10.173  66.401  1.00  0.00    -0.101 OA 
ENDROOT
BRANCH   2   3
HETATM    3  C   UNL     1      -7.967  11.335  67.036  1.00  0.00    -0.150 A  
HETATM    4  C   UNL     1      -9.289  11.489  67.455  1.00  0.00    -0.166 A  
HETATM    5  N   UNL     1      -6.497  14.505  68.009  1.00  0.00    -0.135 NA 
HETATM    6  C   UNL     1      -9.710  12.729  67.950  1.00  0.00    -0.217 A  
HETATM    7  C   UNL     1      -7.447  13.585  67.827  1.00  0.00    -0.166 A  
HETATM    8  C   UNL     1      -8.795  13.803  68.137  1.00  0.00    -0.185 A  
HETATM    9  C   UNL     1      -7.060  12.374  67.277  1.00  0.00    -0.128 A  
HETATM   10  C   UNL     1      -9.104  15.098  68.604  1.00  0.00    -0.195 A  
HETATM   11  N   UNL     1      -8.143  16.024  68.800  1.00  0.00    -0.198 NA 
HETATM   12  C   UNL     1      -6.890  15.677  68.500  1.00  0.00    -0.115 A  
BRANCH   4  13
HETATM   13  O   UNL     1     -10.278  10.544  67.375  1.00  0.00    -0.191 OA 
BRANCH  13  14
HETATM   14  C   UNL     1     -11.135  10.428  68.525  1.00  0.00    -0.266 C  
BRANCH  14  15
HETATM   15  C   UNL     1     -10.323   9.744  69.625  1.00  0.00    -0.259 C  
BRANCH  15  16
HETATM   16  C   UNL     1      -9.946   8.288  69.324  1.00  0.00    -0.192 C  
BRANCH  16  17
HETATM   17  N   UNL     1     -10.980   7.475  68.665  1.00  0.00     0.014 NA 
HETATM   18  C   UNL     1     -11.325   6.288  69.487  1.00  0.00    -0.404 C  
HETATM   19  C   UNL     1     -10.244   5.192  69.473  1.00  0.00    -0.248 C  
HETATM   20  C   UNL     1     -10.607   6.989  67.317  1.00  0.00    -0.325 C  
HETATM   21  C   UNL     1      -9.585   5.838  67.301  1.00  0.00    -0.117 C  
HETATM   22  O   UNL     1      -9.988   4.745  68.137  1.00  0.00    -0.145 OA 
ENDBRANCH  16  17
ENDBRANCH  15  16
ENDBRANCH  14  15
ENDBRANCH  13  14
ENDBRANCH   4  13
BRANCH  10  23
HETATM   23  N   UNL     1     -10.458  15.478  68.794  1.00  0.00    -0.227 NA 
HETATM   24  H   UNL     1     -10.842  16.085  68.070  1.00  0.00     0.000 HD 
BRANCH  23  25
HETATM   25  C   UNL     1     -11.356  15.143  69.834  1.00  0.00    -0.284 A  
HETATM   26 CL   UNL     1     -12.109  16.535  73.525  1.00  0.00    -0.539 Cl 
HETATM   27  C   UNL     1     -12.942  14.422  72.050  1.00  0.00    -0.353 A  
HETATM   28  C   UNL     1     -12.148  15.562  72.103  1.00  0.00    -0.423 A  
HETATM   29  C   UNL     1     -12.963  13.641  70.905  1.00  0.00    -0.256 A  
HETATM   30  F   UNL     1     -13.685  14.047  73.102  1.00  0.00    -0.471 F  
HETATM   31  C   UNL     1     -12.168  13.998  69.810  1.00  0.00    -0.396 A  
HETATM   32  C   UNL     1     -11.359  15.921  71.005  1.00  0.00    -0.434 A  
ENDBRANCH  23  25
ENDBRANCH  10  23
ENDBRANCH   2   3
TORSDOF 8
ENDMDL
MODEL      160
REMARK 921   NORMALIZED FREE ENERGY PREDICTED BY IDOCK:   -4.69 KCAL/MOL
REMARK 922        TOTAL FREE ENERGY PREDICTED BY IDOCK:   -8.51 KCAL/MOL
REMARK 923 INTER-LIGAND FREE ENERGY PREDICTED BY IDOCK:   -6.85 KCAL/MOL
REMARK 924 INTRA-LIGAND FREE ENERGY PREDICTED BY IDOCK:   -1.67 KCAL/MOL
REMARK 927      BINDING AFFINITY PREDICTED BY RF-SCORE:    0.00 PKD
ROOT
HETATM    1  C   UNL     1      -5.787  18.352  70.141  1.00  0.00    -0.187 C  
HETATM    2  O   UNL     1      -6.760  18.033  69.148  1.00  0.00    -0.255 OA 
ENDROOT
BRANCH   2   3
HETATM    3  C   UNL     1      -6.724  16.747  68.674  1.00  0.00    -0.174 A  
HETATM    4  C   UNL     1      -7.460  16.436  67.530  1.00  0.00    -0.141 A  
HETATM    5  N   UNL     1      -5.281  13.532  69.536  1.00  0.00    -0.083 NA 
HETATM    6  C   UNL     1      -7.570  15.099  67.130  1.00  0.00    -0.204 A  
HETATM    7  C   UNL     1      -6.029  14.415  68.869  1.00  0.00    -0.086 A  
HETATM    8  C   UNL     1      -6.862  14.063  67.800  1.00  0.00    -0.187 A  
HETATM    9  C   UNL     1      -5.982  15.733  69.292  1.00  0.00    -0.121 A  
HETATM   10  C   UNL     1      -6.912  12.684  67.505  1.00  0.00    -0.150 A  
HETATM   11  N   UNL     1      -6.148  11.793  68.169  1.00  0.00    -0.049 NA 
HETATM   12  C   UNL     1      -5.368  12.264  69.143  1.00  0.00    -0.063 A  
BRANCH   4  13
HETATM   13  O   UNL     1      -8.168  17.321  66.759  1.00  0.00    -0.215 OA 
BRANCH  13  14
HETATM   14  C   UNL     1      -9.414  16.836  66.227  1.00  0.00    -0.286 C  
BRANCH  14  15
HETATM   15  C   UNL     1     -10.525  17.353  67.141  1.00  0.00    -0.305 C  
BRANCH  15  16
HETATM   16  C   UNL     1     -11.304  16.257  67.877  1.00  0.00    -0.141 C  
BRANCH  16  17
HETATM   17  N   UNL     1     -10.646  15.678  69.059  1.00  0.00    -0.222 NA 
HETATM   18  C   UNL     1     -10.629  14.195  68.982  1.00  0.00    -0.213 C  
HETATM   19  C   UNL     1     -12.001  13.548  69.246  1.00  0.00    -0.330 C  
HETATM   20  C   UNL     1     -11.269  16.049  70.348  1.00  0.00    -0.387 C  
HETATM   21  C   UNL     1     -12.604  15.344  70.653  1.00  0.00    -0.439 C  
HETATM   22  O   UNL     1     -12.500  13.919  70.535  1.00  0.00    -0.334 OA 
ENDBRANCH  16  17
ENDBRANCH  15  16
ENDBRANCH  14  15
ENDBRANCH  13  14
ENDBRANCH   4  13
BRANCH  10  23
HETATM   23  N   UNL     1      -7.843  12.197  66.550  1.00  0.00    -0.385 NA 
HETATM   24  H   UNL     1      -7.886  12.728  65.680  1.00  0.00     0.000 HD 
BRANCH  23  25
HETATM   25  C   UNL     1      -8.719  11.090  66.620  1.00  0.00    -0.160 A  
HETATM   26 CL   UNL     1     -11.035   9.448  69.460  1.00  0.00    -0.225 Cl 
HETATM   27  C   UNL     1     -10.309   8.784  66.937  1.00  0.00    -0.274 A  
HETATM   28  C   UNL     1     -10.208   9.708  67.971  1.00  0.00    -0.194 A  
HETATM   29  C   UNL     1      -9.636   8.998  65.745  1.00  0.00    -0.287 A  
HETATM   30  F   UNL     1     -11.040   7.668  67.076  1.00  0.00    -0.396 F  
HETATM   31  C   UNL     1      -8.841  10.139  65.594  1.00  0.00    -0.185 A  
HETATM   32  C   UNL     1      -9.418  10.852  67.816  1.00  0.00    -0.165 A  
ENDBRANCH  23  25
ENDBRANCH  10  23
ENDBRANCH   2   3
TORSDOF 8
ENDMDL
MODEL      161
REMARK 921   NORMALIZED FREE ENERGY PREDICTED BY IDOCK:   -4.68 KCAL/MOL
REMARK 922        TOTAL FREE ENERGY PREDICTED BY IDOCK:   -8.50 KCAL/MOL
REMARK 923 INTER-LIGAND FREE ENERGY PREDICTED BY IDOCK:   -7.32 KCAL/MOL
REMARK 924 INTRA-LIGAND FREE ENERGY PREDICTED BY IDOCK:   -1.18 KCAL/MOL
REMARK 927      BINDING AFFINITY PREDICTED BY RF-SCORE:    0.00 PKD
ROOT
HETATM    1  C   UNL     1      -9.161   4.042  63.639  1.00  0.00    -0.128 C  
HETATM    2  O   UNL     1      -9.188   4.314  65.039  1.00  0.00    -0.140 OA 
ENDROOT
BRANCH   2   3
HETATM    3  C   UNL     1      -8.947   5.615  65.395  1.00  0.00    -0.069 A  
HETATM    4  C   UNL     1      -9.681   6.168  66.446  1.00  0.00    -0.110 A  
HETATM    5  N   UNL     1      -6.896   8.422  64.358  1.00  0.00    -0.069 NA 
HETATM    6  C   UNL     1      -9.570   7.537  66.712  1.00  0.00    -0.265 A  
HETATM    7  C   UNL     1      -7.829   7.757  65.043  1.00  0.00    -0.125 A  
HETATM    8  C   UNL     1      -8.647   8.358  66.008  1.00  0.00    -0.164 A  
HETATM    9  C   UNL     1      -7.997   6.414  64.747  1.00  0.00    -0.121 A  
HETATM   10  C   UNL     1      -8.463   9.748  66.171  1.00  0.00    -0.124 A  
HETATM   11  N   UNL     1      -7.512  10.418  65.489  1.00  0.00    -0.149 NA 
HETATM   12  C   UNL     1      -6.774   9.720  64.625  1.00  0.00    -0.113 A  
BRANCH   4  13
HETATM   13  O   UNL     1     -10.582   5.505  67.238  1.00  0.00    -0.240 OA 
BRANCH  13  14
HETATM   14  C   UNL     1     -10.025   4.584  68.193  1.00  0.00    -0.031 C  
BRANCH  14  15
HETATM   15  C   UNL     1      -9.839   5.350  69.502  1.00  0.00    -0.264 C  
BRANCH  15  16
HETATM   16  C   UNL     1     -11.118   5.998  70.047  1.00  0.00    -0.381 C  
BRANCH  16  17
HETATM   17  N   UNL     1     -11.105   7.465  70.154  1.00  0.00    -0.263 NA 
HETATM   18  C   UNL     1      -9.720   7.972  70.329  1.00  0.00    -0.175 C  
HETATM   19  C   UNL     1      -9.142   7.717  71.732  1.00  0.00    -0.137 C  
HETATM   20  C   UNL     1     -11.919   8.003  71.267  1.00  0.00    -0.296 C  
HETATM   21  C   UNL     1     -11.307   7.821  72.668  1.00  0.00    -0.393 C  
HETATM   22  O   UNL     1      -9.965   8.318  72.739  1.00  0.00    -0.283 OA 
ENDBRANCH  16  17
ENDBRANCH  15  16
ENDBRANCH  14  15
ENDBRANCH  13  14
ENDBRANCH   4  13
BRANCH  10  23
HETATM   23  N   UNL     1      -9.346  10.486  67.003  1.00  0.00    -0.154 NA 
HETATM   24  H   UNL     1      -9.189  10.374  68.005  1.00  0.00     0.000 HD 
BRANCH  23  25
HETATM   25  C   UNL     1     -10.408  11.352  66.655  1.00  0.00    -0.233 A  
HETATM   26 CL   UNL     1     -12.241  12.406  63.241  1.00  0.00    -0.586 Cl 
HETATM   27  C   UNL     1     -12.357  13.211  65.824  1.00  0.00    -0.435 A  
HETATM   28  C   UNL     1     -11.784  12.343  64.901  1.00  0.00    -0.365 A  
HETATM   29  C   UNL     1     -11.979  13.159  67.156  1.00  0.00    -0.397 A  
HETATM   30  F   UNL     1     -13.268  14.120  65.445  1.00  0.00    -0.521 F  
HETATM   31  C   UNL     1     -11.005  12.240  67.563  1.00  0.00    -0.298 A  
HETATM   32  C   UNL     1     -10.815  11.421  65.311  1.00  0.00    -0.297 A  
ENDBRANCH  23  25
ENDBRANCH  10  23
ENDBRANCH   2   3
TORSDOF 8
ENDMDL
MODEL      162
REMARK 921   NORMALIZED FREE ENERGY PREDICTED BY IDOCK:   -4.67 KCAL/MOL
REMARK 922        TOTAL FREE ENERGY PREDICTED BY IDOCK:   -8.48 KCAL/MOL
REMARK 923 INTER-LIGAND FREE ENERGY PREDICTED BY IDOCK:   -7.12 KCAL/MOL
REMARK 924 INTRA-LIGAND FREE ENERGY PREDICTED BY IDOCK:   -1.36 KCAL/MOL
REMARK 927      BINDING AFFINITY PREDICTED BY RF-SCORE:    0.00 PKD
ROOT
HETATM    1  C   UNL     1     -13.365   7.620  71.927  1.00  0.00    -0.245 C  
HETATM    2  O   UNL     1     -13.071   8.866  71.297  1.00  0.00    -0.292 OA 
ENDROOT
BRANCH   2   3
HETATM    3  C   UNL     1     -11.748   9.091  71.018  1.00  0.00    -0.296 A  
HETATM    4  C   UNL     1     -11.402  10.238  70.302  1.00  0.00    -0.323 A  
HETATM    5  N   UNL     1      -8.523   7.498  71.485  1.00  0.00    -0.114 NA 
HETATM    6  C   UNL     1     -10.083  10.399  69.863  1.00  0.00    -0.144 A  
HETATM    7  C   UNL     1      -9.408   8.397  71.048  1.00  0.00    -0.171 A  
HETATM    8  C   UNL     1      -9.063   9.474  70.223  1.00  0.00    -0.296 A  
HETATM    9  C   UNL     1     -10.730   8.217  71.419  1.00  0.00    -0.282 A  
HETATM   10  C   UNL     1      -7.710   9.518  69.823  1.00  0.00    -0.123 A  
HETATM   11  N   UNL     1      -6.813   8.618  70.275  1.00  0.00    -0.039 NA 
HETATM   12  C   UNL     1      -7.264   7.661  71.088  1.00  0.00    -0.062 A  
BRANCH   4  13
HETATM   13  O   UNL     1     -12.258  11.234  69.910  1.00  0.00    -0.299 OA 
BRANCH  13  14
HETATM   14  C   UNL     1     -11.641  12.453  69.456  1.00  0.00    -0.286 C  
BRANCH  14  15
HETATM   15  C   UNL     1     -12.153  12.718  68.041  1.00  0.00    -0.174 C  
BRANCH  15  16
HETATM   16  C   UNL     1     -11.371  13.789  67.271  1.00  0.00    -0.321 C  
BRANCH  16  17
HETATM   17  N   UNL     1     -10.705  13.343  66.037  1.00  0.00    -0.276 NA 
HETATM   18  C   UNL     1     -10.565  14.465  65.075  1.00  0.00    -0.432 C  
HETATM   19  C   UNL     1     -11.886  14.863  64.394  1.00  0.00    -0.360 C  
HETATM   20  C   UNL     1     -11.398  12.239  65.335  1.00  0.00    -0.343 C  
HETATM   21  C   UNL     1     -12.679  12.649  64.585  1.00  0.00    -0.377 C  
HETATM   22  O   UNL     1     -12.455  13.750  63.696  1.00  0.00    -0.718 OA 
ENDBRANCH  16  17
ENDBRANCH  15  16
ENDBRANCH  14  15
ENDBRANCH  13  14
ENDBRANCH   4  13
BRANCH  10  23
HETATM   23  N   UNL     1      -7.286  10.471  68.861  1.00  0.00    -0.090 NA 
HETATM   24  H   UNL     1      -7.218  10.119  67.906  1.00  0.00     0.000 HD 
BRANCH  23  25
HETATM   25  C   UNL     1      -6.946  11.834  69.023  1.00  0.00    -0.107 A  
HETATM   26 CL   UNL     1      -7.694  15.230  67.014  1.00  0.00    -0.235 Cl 
HETATM   27  C   UNL     1      -6.143  14.534  69.122  1.00  0.00    -0.096 A  
HETATM   28  C   UNL     1      -7.058  14.114  68.162  1.00  0.00    -0.127 A  
HETATM   29  C   UNL     1      -5.631  13.629  70.038  1.00  0.00    -0.115 A  
HETATM   30  F   UNL     1      -5.729  15.809  69.171  1.00  0.00    -0.102 F  
HETATM   31  C   UNL     1      -6.025  12.288  69.980  1.00  0.00    -0.153 A  
HETATM   32  C   UNL     1      -7.456  12.774  68.110  1.00  0.00    -0.124 A  
ENDBRANCH  23  25
ENDBRANCH  10  23
ENDBRANCH   2   3
TORSDOF 8
ENDMDL
MODEL      163
REMARK 921   NORMALIZED FREE ENERGY PREDICTED BY IDOCK:   -4.65 KCAL/MOL
REMARK 922        TOTAL FREE ENERGY PREDICTED BY IDOCK:   -8.46 KCAL/MOL
REMARK 923 INTER-LIGAND FREE ENERGY PREDICTED BY IDOCK:   -7.21 KCAL/MOL
REMARK 924 INTRA-LIGAND FREE ENERGY PREDICTED BY IDOCK:   -1.25 KCAL/MOL
REMARK 927      BINDING AFFINITY PREDICTED BY RF-SCORE:    0.00 PKD
ROOT
HETATM    1  C   UNL     1      -8.683   4.895  71.295  1.00  0.00    -0.128 C  
HETATM    2  O   UNL     1      -9.009   5.822  72.329  1.00  0.00    -0.139 OA 
ENDROOT
BRANCH   2   3
HETATM    3  C   UNL     1      -9.926   6.784  71.996  1.00  0.00    -0.171 A  
HETATM    4  C   UNL     1      -9.476   8.084  71.762  1.00  0.00    -0.169 A  
HETATM    5  N   UNL     1     -13.510   7.143  71.563  1.00  0.00    -0.372 NA 
HETATM    6  C   UNL     1     -10.410   9.111  71.588  1.00  0.00    -0.388 A  
HETATM    7  C   UNL     1     -12.230   7.513  71.647  1.00  0.00    -0.322 A  
HETATM    8  C   UNL     1     -11.807   8.843  71.536  1.00  0.00    -0.402 A  
HETATM    9  C   UNL     1     -11.296   6.518  71.884  1.00  0.00    -0.327 A  
HETATM   10  C   UNL     1     -12.840   9.794  71.389  1.00  0.00    -0.392 A  
HETATM   11  N   UNL     1     -14.132   9.420  71.292  1.00  0.00    -0.103 NA 
HETATM   12  C   UNL     1     -14.399   8.116  71.375  1.00  0.00    -0.365 A  
BRANCH   4  13
HETATM   13  O   UNL     1      -8.168   8.496  71.747  1.00  0.00    -0.143 OA 
BRANCH  13  14
HETATM   14  C   UNL     1      -7.416   8.161  70.566  1.00  0.00    -0.063 C  
BRANCH  14  15
HETATM   15  C   UNL     1      -6.510   9.352  70.256  1.00  0.00    -0.064 C  
BRANCH  15  16
HETATM   16  C   UNL     1      -6.066   9.449  68.792  1.00  0.00    -0.043 C  
BRANCH  16  17
HETATM   17  N   UNL     1      -7.136   9.381  67.785  1.00  0.00    -0.081 NA 
HETATM   18  C   UNL     1      -7.028   8.138  66.980  1.00  0.00    -0.074 C  
HETATM   19  C   UNL     1      -5.872   8.159  65.964  1.00  0.00    -0.040 C  
HETATM   20  C   UNL     1      -7.161  10.521  66.842  1.00  0.00    -0.106 C  
HETATM   21  C   UNL     1      -6.053  10.505  65.773  1.00  0.00    -0.133 C  
HETATM   22  O   UNL     1      -6.008   9.262  65.061  1.00  0.00    -0.062 OA 
ENDBRANCH  16  17
ENDBRANCH  15  16
ENDBRANCH  14  15
ENDBRANCH  13  14
ENDBRANCH   4  13
BRANCH  10  23
HETATM   23  N   UNL     1     -12.538  11.180  71.429  1.00  0.00    -0.388 NA 
HETATM   24  H   UNL     1     -12.418  11.569  72.364  1.00  0.00     0.000 HD 
BRANCH  23  25
HETATM   25  C   UNL     1     -12.377  12.104  70.371  1.00  0.00    -0.233 A  
HETATM   26 CL   UNL     1     -11.348  11.868  66.496  1.00  0.00    -0.397 Cl 
HETATM   27  C   UNL     1     -11.810  13.876  68.253  1.00  0.00    -0.376 A  
HETATM   28  C   UNL     1     -11.766  12.502  68.042  1.00  0.00    -0.355 A  
HETATM   29  C   UNL     1     -12.141  14.378  69.501  1.00  0.00    -0.366 A  
HETATM   30  F   UNL     1     -11.520  14.736  67.266  1.00  0.00    -0.322 F  
HETATM   31  C   UNL     1     -12.414  13.496  70.552  1.00  0.00    -0.373 A  
HETATM   32  C   UNL     1     -12.045  11.621  69.093  1.00  0.00    -0.315 A  
ENDBRANCH  23  25
ENDBRANCH  10  23
ENDBRANCH   2   3
TORSDOF 8
ENDMDL
MODEL      164
REMARK 921   NORMALIZED FREE ENERGY PREDICTED BY IDOCK:   -4.65 KCAL/MOL
REMARK 922        TOTAL FREE ENERGY PREDICTED BY IDOCK:   -8.45 KCAL/MOL
REMARK 923 INTER-LIGAND FREE ENERGY PREDICTED BY IDOCK:   -7.41 KCAL/MOL
REMARK 924 INTRA-LIGAND FREE ENERGY PREDICTED BY IDOCK:   -1.04 KCAL/MOL
REMARK 927      BINDING AFFINITY PREDICTED BY RF-SCORE:    0.00 PKD
ROOT
HETATM    1  C   UNL     1     -11.705  16.186  64.120  1.00  0.00     0.133 C  
HETATM    2  O   UNL     1     -11.230  15.790  65.406  1.00  0.00    -0.254 OA 
ENDROOT
BRANCH   2   3
HETATM    3  C   UNL     1     -11.133  14.438  65.611  1.00  0.00    -0.321 A  
HETATM    4  C   UNL     1     -11.592  13.911  66.819  1.00  0.00    -0.378 A  
HETATM    5  N   UNL     1      -9.871  11.480  63.934  1.00  0.00    -0.284 NA 
HETATM    6  C   UNL     1     -11.348  12.565  67.115  1.00  0.00    -0.381 A  
HETATM    7  C   UNL     1     -10.401  12.216  64.913  1.00  0.00    -0.289 A  
HETATM    8  C   UNL     1     -10.739  11.696  66.168  1.00  0.00    -0.325 A  
HETATM    9  C   UNL     1     -10.590  13.565  64.661  1.00  0.00    -0.441 A  
HETATM   10  C   UNL     1     -10.423  10.333  66.360  1.00  0.00    -0.163 A  
HETATM   11  N   UNL     1      -9.899   9.586  65.367  1.00  0.00    -0.266 NA 
HETATM   12  C   UNL     1      -9.658  10.195  64.205  1.00  0.00    -0.290 A  
BRANCH   4  13
HETATM   13  O   UNL     1     -12.224  14.608  67.816  1.00  0.00    -0.254 OA 
BRANCH  13  14
HETATM   14  C   UNL     1     -11.370  15.190  68.817  1.00  0.00    -0.300 C  
BRANCH  14  15
HETATM   15  C   UNL     1     -11.521  16.708  68.711  1.00  0.00    -0.042 C  
BRANCH  15  16
HETATM   16  C   UNL     1     -10.343  17.418  68.034  1.00  0.00    -0.362 C  
BRANCH  16  17
HETATM   17  N   UNL     1      -9.682  18.470  68.822  1.00  0.00    -0.367 NA 
HETATM   18  C   UNL     1     -10.116  19.818  68.376  1.00  0.00    -0.454 C  
HETATM   19  C   UNL     1      -9.513  20.245  67.025  1.00  0.00    -0.412 C  
HETATM   20  C   UNL     1      -8.204  18.438  68.765  1.00  0.00    -0.233 C  
HETATM   21  C   UNL     1      -7.593  18.939  67.444  1.00  0.00    -0.230 C  
HETATM   22  O   UNL     1      -8.083  20.236  67.081  1.00  0.00    -0.315 OA 
ENDBRANCH  16  17
ENDBRANCH  15  16
ENDBRANCH  14  15
ENDBRANCH  13  14
ENDBRANCH   4  13
BRANCH  10  23
HETATM   23  N   UNL     1     -10.573   9.745  67.643  1.00  0.00    -0.259 NA 
HETATM   24  H   UNL     1     -11.533   9.695  67.985  1.00  0.00     0.000 HD 
BRANCH  23  25
HETATM   25  C   UNL     1      -9.597   9.219  68.519  1.00  0.00    -0.147 A  
HETATM   26 CL   UNL     1      -6.444  10.702  70.517  1.00  0.00    -0.101 Cl 
HETATM   27  C   UNL     1      -7.474   8.234  70.091  1.00  0.00    -0.060 A  
HETATM   28  C   UNL     1      -7.595   9.600  69.862  1.00  0.00    -0.138 A  
HETATM   29  C   UNL     1      -8.400   7.353  69.556  1.00  0.00    -0.132 A  
HETATM   30  F   UNL     1      -6.457   7.742  70.816  1.00  0.00    -0.037 F  
HETATM   31  C   UNL     1      -9.447   7.845  68.769  1.00  0.00    -0.147 A  
HETATM   32  C   UNL     1      -8.647  10.090  69.080  1.00  0.00    -0.158 A  
ENDBRANCH  23  25
ENDBRANCH  10  23
ENDBRANCH   2   3
TORSDOF 8
ENDMDL
MODEL      165
REMARK 921   NORMALIZED FREE ENERGY PREDICTED BY IDOCK:   -4.62 KCAL/MOL
REMARK 922        TOTAL FREE ENERGY PREDICTED BY IDOCK:   -8.42 KCAL/MOL
REMARK 923 INTER-LIGAND FREE ENERGY PREDICTED BY IDOCK:   -7.08 KCAL/MOL
REMARK 924 INTRA-LIGAND FREE ENERGY PREDICTED BY IDOCK:   -1.33 KCAL/MOL
REMARK 927      BINDING AFFINITY PREDICTED BY RF-SCORE:    0.00 PKD
ROOT
HETATM    1  C   UNL     1      -6.438   8.140  72.321  1.00  0.00    -0.069 C  
HETATM    2  O   UNL     1      -6.661   8.703  71.029  1.00  0.00    -0.042 OA 
ENDROOT
BRANCH   2   3
HETATM    3  C   UNL     1      -7.969   8.959  70.711  1.00  0.00    -0.131 A  
HETATM    4  C   UNL     1      -8.271   9.385  69.417  1.00  0.00    -0.119 A  
HETATM    5  N   UNL     1     -11.234   8.991  72.291  1.00  0.00    -0.224 NA 
HETATM    6  C   UNL     1      -9.571   9.812  69.123  1.00  0.00    -0.192 A  
HETATM    7  C   UNL     1     -10.320   9.170  71.335  1.00  0.00    -0.338 A  
HETATM    8  C   UNL     1     -10.617   9.719  70.082  1.00  0.00    -0.337 A  
HETATM    9  C   UNL     1      -9.014   8.814  71.631  1.00  0.00    -0.301 A  
HETATM   10  C   UNL     1     -11.955  10.137  69.910  1.00  0.00    -0.086 A  
HETATM   11  N   UNL     1     -12.881   9.945  70.870  1.00  0.00    -0.310 NA 
HETATM   12  C   UNL     1     -12.475   9.376  72.006  1.00  0.00    -0.365 A  
BRANCH   4  13
HETATM   13  O   UNL     1      -7.386   9.498  68.376  1.00  0.00    -0.075 OA 
BRANCH  13  14
HETATM   14  C   UNL     1      -6.660  10.738  68.298  1.00  0.00    -0.058 C  
BRANCH  14  15
HETATM   15  C   UNL     1      -7.557  11.740  67.571  1.00  0.00    -0.135 C  
BRANCH  15  16
HETATM   16  C   UNL     1      -6.923  13.119  67.352  1.00  0.00    -0.107 C  
BRANCH  16  17
HETATM   17  N   UNL     1      -7.801  14.278  67.575  1.00  0.00    -0.181 NA 
HETATM   18  C   UNL     1      -7.158  15.530  67.103  1.00  0.00    -0.136 C  
HETATM   19  C   UNL     1      -6.025  16.025  68.019  1.00  0.00    -0.123 C  
HETATM   20  C   UNL     1      -8.193  14.484  68.987  1.00  0.00    -0.076 C  
HETATM   21  C   UNL     1      -7.085  15.055  69.892  1.00  0.00    -0.121 C  
HETATM   22  O   UNL     1      -6.507  16.249  69.349  1.00  0.00    -0.175 OA 
ENDBRANCH  16  17
ENDBRANCH  15  16
ENDBRANCH  14  15
ENDBRANCH  13  14
ENDBRANCH   4  13
BRANCH  10  23
HETATM   23  N   UNL     1     -12.328  10.852  68.742  1.00  0.00    -0.772 NA 
HETATM   24  H   UNL     1     -13.008  10.380  68.145  1.00  0.00     0.000 HD 
BRANCH  23  25
HETATM   25  C   UNL     1     -11.903  12.118  68.279  1.00  0.00    -0.301 A  
HETATM   26 CL   UNL     1     -12.038  15.875  69.692  1.00  0.00    -0.294 Cl 
HETATM   27  C   UNL     1     -11.301  14.714  67.359  1.00  0.00    -0.356 A  
HETATM   28  C   UNL     1     -11.784  14.527  68.650  1.00  0.00    -0.329 A  
HETATM   29  C   UNL     1     -11.106  13.625  66.524  1.00  0.00    -0.310 A  
HETATM   30  F   UNL     1     -11.032  15.943  66.893  1.00  0.00    -0.322 F  
HETATM   31  C   UNL     1     -11.414  12.339  66.982  1.00  0.00    -0.419 A  
HETATM   32  C   UNL     1     -12.085  13.240  69.107  1.00  0.00    -0.283 A  
ENDBRANCH  23  25
ENDBRANCH  10  23
ENDBRANCH   2   3
TORSDOF 8
ENDMDL
MODEL      166
REMARK 921   NORMALIZED FREE ENERGY PREDICTED BY IDOCK:   -4.61 KCAL/MOL
REMARK 922        TOTAL FREE ENERGY PREDICTED BY IDOCK:   -8.40 KCAL/MOL
REMARK 923 INTER-LIGAND FREE ENERGY PREDICTED BY IDOCK:   -7.45 KCAL/MOL
REMARK 924 INTRA-LIGAND FREE ENERGY PREDICTED BY IDOCK:   -0.95 KCAL/MOL
REMARK 927      BINDING AFFINITY PREDICTED BY RF-SCORE:    0.00 PKD
ROOT
HETATM    1  C   UNL     1      -9.202  15.535  68.934  1.00  0.00    -0.218 C  
HETATM    2  O   UNL     1     -10.150  14.480  69.081  1.00  0.00    -0.214 OA 
ENDROOT
BRANCH   2   3
HETATM    3  C   UNL     1     -10.548  13.874  67.918  1.00  0.00    -0.245 A  
HETATM    4  C   UNL     1     -10.246  12.524  67.731  1.00  0.00    -0.217 A  
HETATM    5  N   UNL     1     -12.215  14.708  64.806  1.00  0.00    -0.420 NA 
HETATM    6  C   UNL     1     -10.493  11.934  66.486  1.00  0.00    -0.256 A  
HETATM    7  C   UNL     1     -11.553  13.963  65.695  1.00  0.00    -0.333 A  
HETATM    8  C   UNL     1     -11.144  12.649  65.442  1.00  0.00    -0.327 A  
HETATM    9  C   UNL     1     -11.242  14.552  66.910  1.00  0.00    -0.340 A  
HETATM   10  C   UNL     1     -11.425  12.170  64.144  1.00  0.00    -0.387 A  
HETATM   11  N   UNL     1     -12.104  12.916  63.250  1.00  0.00    -0.573 NA 
HETATM   12  C   UNL     1     -12.470  14.141  63.629  1.00  0.00     0.176 A  
BRANCH   4  13
HETATM   13  O   UNL     1      -9.651  11.694  68.646  1.00  0.00    -0.190 OA 
BRANCH  13  14
HETATM   14  C   UNL     1     -10.008  10.303  68.560  1.00  0.00    -0.164 C  
BRANCH  14  15
HETATM   15  C   UNL     1      -9.085   9.542  69.511  1.00  0.00    -0.193 C  
BRANCH  15  16
HETATM   16  C   UNL     1      -9.799   8.874  70.692  1.00  0.00    -0.212 C  
BRANCH  16  17
HETATM   17  N   UNL     1      -9.364   7.508  71.024  1.00  0.00    -0.156 NA 
HETATM   18  C   UNL     1     -10.189   6.501  70.308  1.00  0.00    -0.192 C  
HETATM   19  C   UNL     1     -11.608   6.346  70.881  1.00  0.00    -0.331 C  
HETATM   20  C   UNL     1      -9.418   7.183  72.466  1.00  0.00    -0.142 C  
HETATM   21  C   UNL     1     -10.833   6.949  73.027  1.00  0.00    -0.296 C  
HETATM   22  O   UNL     1     -11.562   5.979  72.264  1.00  0.00    -0.301 OA 
ENDBRANCH  16  17
ENDBRANCH  15  16
ENDBRANCH  14  15
ENDBRANCH  13  14
ENDBRANCH   4  13
BRANCH  10  23
HETATM   23  N   UNL     1     -10.914  10.913  63.727  1.00  0.00    -0.428 NA 
HETATM   24  H   UNL     1     -11.619  10.195  63.558  1.00  0.00     0.000 HD 
BRANCH  23  25
HETATM   25  C   UNL     1      -9.578  10.503  63.510  1.00  0.00    -0.326 A  
HETATM   26 CL   UNL     1      -6.883   8.329  65.546  1.00  0.00    -0.065 Cl 
HETATM   27  C   UNL     1      -6.852   9.822  63.286  1.00  0.00    -0.117 A  
HETATM   28  C   UNL     1      -7.607   9.335  64.348  1.00  0.00    -0.115 A  
HETATM   29  C   UNL     1      -7.439  10.636  62.330  1.00  0.00    -0.158 A  
HETATM   30  F   UNL     1      -5.547   9.530  63.174  1.00  0.00    -0.077 F  
HETATM   31  C   UNL     1      -8.790  10.978  62.450  1.00  0.00    -0.358 A  
HETATM   32  C   UNL     1      -8.959   9.674  64.462  1.00  0.00    -0.278 A  
ENDBRANCH  23  25
ENDBRANCH  10  23
ENDBRANCH   2   3
TORSDOF 8
ENDMDL
MODEL      167
REMARK 921   NORMALIZED FREE ENERGY PREDICTED BY IDOCK:   -4.58 KCAL/MOL
REMARK 922        TOTAL FREE ENERGY PREDICTED BY IDOCK:   -8.36 KCAL/MOL
REMARK 923 INTER-LIGAND FREE ENERGY PREDICTED BY IDOCK:   -7.37 KCAL/MOL
REMARK 924 INTRA-LIGAND FREE ENERGY PREDICTED BY IDOCK:   -0.99 KCAL/MOL
REMARK 927      BINDING AFFINITY PREDICTED BY RF-SCORE:    0.00 PKD
ROOT
HETATM    1  C   UNL     1      -7.438   9.922  62.628  1.00  0.00    -0.121 C  
HETATM    2  O   UNL     1      -7.251  10.050  64.036  1.00  0.00    -0.128 OA 
ENDROOT
BRANCH   2   3
HETATM    3  C   UNL     1      -8.119   9.331  64.817  1.00  0.00    -0.133 A  
HETATM    4  C   UNL     1      -9.032  10.025  65.613  1.00  0.00    -0.172 A  
HETATM    5  N   UNL     1      -8.853   5.882  65.664  1.00  0.00    -0.144 NA 
HETATM    6  C   UNL     1      -9.807   9.318  66.539  1.00  0.00    -0.331 A  
HETATM    7  C   UNL     1      -8.934   7.213  65.717  1.00  0.00    -0.008 A  
HETATM    8  C   UNL     1      -9.764   7.897  66.612  1.00  0.00    -0.305 A  
HETATM    9  C   UNL     1      -8.125   7.932  64.851  1.00  0.00    -0.144 A  
HETATM   10  C   UNL     1     -10.478   7.080  67.515  1.00  0.00    -0.250 A  
HETATM   11  N   UNL     1     -10.407   5.735  67.455  1.00  0.00    -0.199 NA 
HETATM   12  C   UNL     1      -9.606   5.206  66.529  1.00  0.00    -0.158 A  
BRANCH   4  13
HETATM   13  O   UNL     1      -9.216  11.383  65.635  1.00  0.00    -0.215 OA 
BRANCH  13  14
HETATM   14  C   UNL     1      -8.796  12.056  66.836  1.00  0.00    -0.197 C  
BRANCH  14  15
HETATM   15  C   UNL     1      -9.940  12.977  67.260  1.00  0.00    -0.232 C  
BRANCH  15  16
HETATM   16  C   UNL     1      -9.583  14.468  67.276  1.00  0.00    -0.226 C  
BRANCH  16  17
HETATM   17  N   UNL     1     -10.713  15.406  67.187  1.00  0.00    -0.310 NA 
HETATM   18  C   UNL     1     -10.309  16.660  66.503  1.00  0.00    -0.299 C  
HETATM   19  C   UNL     1      -9.425  17.577  67.367  1.00  0.00    -0.255 C  
HETATM   20  C   UNL     1     -11.299  15.781  68.493  1.00  0.00    -0.374 C  
HETATM   21  C   UNL     1     -10.455  16.761  69.328  1.00  0.00    -0.331 C  
HETATM   22  O   UNL     1     -10.094  17.931  68.583  1.00  0.00    -0.362 OA 
ENDBRANCH  16  17
ENDBRANCH  15  16
ENDBRANCH  14  15
ENDBRANCH  13  14
ENDBRANCH   4  13
BRANCH  10  23
HETATM   23  N   UNL     1     -11.224   7.672  68.568  1.00  0.00    -0.278 NA 
HETATM   24  H   UNL     1     -11.924   8.352  68.272  1.00  0.00     0.000 HD 
BRANCH  23  25
HETATM   25  C   UNL     1     -11.143   7.464  69.964  1.00  0.00    -0.220 A  
HETATM   26 CL   UNL     1      -8.529   8.426  72.857  1.00  0.00    -0.251 Cl 
HETATM   27  C   UNL     1     -10.771   6.914  72.704  1.00  0.00    -0.244 A  
HETATM   28  C   UNL     1      -9.878   7.743  72.032  1.00  0.00    -0.174 A  
HETATM   29  C   UNL     1     -11.850   6.363  72.032  1.00  0.00    -0.382 A  
HETATM   30  F   UNL     1     -10.597   6.619  74.001  1.00  0.00    -0.318 F  
HETATM   31  C   UNL     1     -12.027   6.631  70.670  1.00  0.00    -0.404 A  
HETATM   32  C   UNL     1     -10.061   8.015  70.672  1.00  0.00    -0.203 A  
ENDBRANCH  23  25
ENDBRANCH  10  23
ENDBRANCH   2   3
TORSDOF 8
ENDMDL
MODEL      168
REMARK 921   NORMALIZED FREE ENERGY PREDICTED BY IDOCK:   -4.58 KCAL/MOL
REMARK 922        TOTAL FREE ENERGY PREDICTED BY IDOCK:   -8.35 KCAL/MOL
REMARK 923 INTER-LIGAND FREE ENERGY PREDICTED BY IDOCK:   -6.93 KCAL/MOL
REMARK 924 INTRA-LIGAND FREE ENERGY PREDICTED BY IDOCK:   -1.42 KCAL/MOL
REMARK 927      BINDING AFFINITY PREDICTED BY RF-SCORE:    0.00 PKD
ROOT
HETATM    1  C   UNL     1     -10.758  19.524  65.985  1.00  0.00    -0.430 C  
HETATM    2  O   UNL     1     -10.812  18.548  67.024  1.00  0.00    -0.364 OA 
ENDROOT
BRANCH   2   3
HETATM    3  C   UNL     1      -9.793  17.631  67.030  1.00  0.00    -0.307 A  
HETATM    4  C   UNL     1     -10.045  16.348  66.542  1.00  0.00    -0.295 A  
HETATM    5  N   UNL     1      -6.330  17.366  68.080  1.00  0.00    -0.152 NA 
HETATM    6  C   UNL     1      -9.072  15.354  66.695  1.00  0.00    -0.310 A  
HETATM    7  C   UNL     1      -7.514  16.970  67.606  1.00  0.00    -0.164 A  
HETATM    8  C   UNL     1      -7.790  15.648  67.239  1.00  0.00    -0.230 A  
HETATM    9  C   UNL     1      -8.511  17.928  67.508  1.00  0.00    -0.232 A  
HETATM   10  C   UNL     1      -6.742  14.729  67.462  1.00  0.00    -0.130 A  
HETATM   11  N   UNL     1      -5.542  15.131  67.929  1.00  0.00    -0.184 NA 
HETATM   12  C   UNL     1      -5.396  16.427  68.206  1.00  0.00    -0.106 A  
BRANCH   4  13
HETATM   13  O   UNL     1     -11.211  15.919  65.964  1.00  0.00    -0.105 OA 
BRANCH  13  14
HETATM   14  C   UNL     1     -11.120  15.518  64.584  1.00  0.00    -0.359 C  
BRANCH  14  15
HETATM   15  C   UNL     1     -12.215  14.479  64.344  1.00  0.00    -0.480 C  
BRANCH  15  16
HETATM   16  C   UNL     1     -11.698  13.083  63.979  1.00  0.00    -0.436 C  
BRANCH  16  17
HETATM   17  N   UNL     1     -10.276  12.827  64.254  1.00  0.00    -0.358 NA 
HETATM   18  C   UNL     1      -9.681  11.959  63.206  1.00  0.00    -0.252 C  
HETATM   19  C   UNL     1     -10.117  10.486  63.303  1.00  0.00    -0.058 C  
HETATM   20  C   UNL     1     -10.013  12.188  65.563  1.00  0.00    -0.246 C  
HETATM   21  C   UNL     1     -10.374  10.693  65.640  1.00  0.00    -0.216 C  
HETATM   22  O   UNL     1      -9.774   9.937  64.580  1.00  0.00    -0.303 OA 
ENDBRANCH  16  17
ENDBRANCH  15  16
ENDBRANCH  14  15
ENDBRANCH  13  14
ENDBRANCH   4  13
BRANCH  10  23
HETATM   23  N   UNL     1      -6.966  13.340  67.278  1.00  0.00    -0.350 NA 
HETATM   24  H   UNL     1      -7.167  13.059  66.319  1.00  0.00     0.000 HD 
BRANCH  23  25
HETATM   25  C   UNL     1      -6.953  12.287  68.221  1.00  0.00    -0.082 A  
HETATM   26 CL   UNL     1      -9.726   9.923  69.910  1.00  0.00    -0.268 Cl 
HETATM   27  C   UNL     1      -7.072  10.335  70.252  1.00  0.00    -0.105 A  
HETATM   28  C   UNL     1      -8.220  10.674  69.544  1.00  0.00    -0.021 A  
HETATM   29  C   UNL     1      -5.865  10.949  69.956  1.00  0.00    -0.089 A  
HETATM   30  F   UNL     1      -7.111   9.428  71.240  1.00  0.00    -0.098 F  
HETATM   31  C   UNL     1      -5.812  11.923  68.954  1.00  0.00    -0.052 A  
HETATM   32  C   UNL     1      -8.163  11.644  68.537  1.00  0.00    -0.144 A  
ENDBRANCH  23  25
ENDBRANCH  10  23
ENDBRANCH   2   3
TORSDOF 8
ENDMDL
MODEL      169
REMARK 921   NORMALIZED FREE ENERGY PREDICTED BY IDOCK:   -4.57 KCAL/MOL
REMARK 922        TOTAL FREE ENERGY PREDICTED BY IDOCK:   -8.33 KCAL/MOL
REMARK 923 INTER-LIGAND FREE ENERGY PREDICTED BY IDOCK:   -7.09 KCAL/MOL
REMARK 924 INTRA-LIGAND FREE ENERGY PREDICTED BY IDOCK:   -1.25 KCAL/MOL
REMARK 927      BINDING AFFINITY PREDICTED BY RF-SCORE:    0.00 PKD
ROOT
HETATM    1  C   UNL     1      -6.484  17.620  69.528  1.00  0.00    -0.193 C  
HETATM    2  O   UNL     1      -6.916  16.873  68.392  1.00  0.00    -0.161 OA 
ENDROOT
BRANCH   2   3
HETATM    3  C   UNL     1      -7.957  16.009  68.612  1.00  0.00    -0.174 A  
HETATM    4  C   UNL     1      -7.862  14.708  68.117  1.00  0.00    -0.128 A  
HETATM    5  N   UNL     1     -11.254  15.995  70.125  1.00  0.00    -0.350 NA 
HETATM    6  C   UNL     1      -8.979  13.867  68.183  1.00  0.00    -0.185 A  
HETATM    7  C   UNL     1     -10.204  15.535  69.441  1.00  0.00    -0.262 A  
HETATM    8  C   UNL     1     -10.174  14.271  68.840  1.00  0.00    -0.203 A  
HETATM    9  C   UNL     1      -9.113  16.379  69.310  1.00  0.00    -0.144 A  
HETATM   10  C   UNL     1     -11.366  13.523  68.951  1.00  0.00    -0.289 A  
HETATM   11  N   UNL     1     -12.423  13.982  69.652  1.00  0.00    -0.252 NA 
HETATM   12  C   UNL     1     -12.309  15.188  70.208  1.00  0.00    -0.352 A  
BRANCH   4  13
HETATM   13  O   UNL     1      -6.773  14.160  67.489  1.00  0.00    -0.180 OA 
BRANCH  13  14
HETATM   14  C   UNL     1      -5.950  13.297  68.295  1.00  0.00    -0.090 C  
BRANCH  14  15
HETATM   15  C   UNL     1      -5.754  12.000  67.510  1.00  0.00    -0.107 C  
BRANCH  15  16
HETATM   16  C   UNL     1      -6.055  10.724  68.306  1.00  0.00    -0.046 C  
BRANCH  16  17
HETATM   17  N   UNL     1      -7.391  10.139  68.111  1.00  0.00    -0.081 NA 
HETATM   18  C   UNL     1      -8.198  10.236  69.353  1.00  0.00    -0.165 C  
HETATM   19  C   UNL     1      -7.764   9.248  70.450  1.00  0.00    -0.143 C  
HETATM   20  C   UNL     1      -7.381   8.719  67.697  1.00  0.00    -0.085 C  
HETATM   21  C   UNL     1      -7.024   7.719  68.812  1.00  0.00    -0.067 C  
HETATM   22  O   UNL     1      -7.838   7.898  69.978  1.00  0.00    -0.101 OA 
ENDBRANCH  16  17
ENDBRANCH  15  16
ENDBRANCH  14  15
ENDBRANCH  13  14
ENDBRANCH   4  13
BRANCH  10  23
HETATM   23  N   UNL     1     -11.503  12.299  68.244  1.00  0.00    -0.291 NA 
HETATM   24  H   UNL     1     -11.928  11.539  68.774  1.00  0.00     0.000 HD 
BRANCH  23  25
HETATM   25  C   UNL     1     -11.139  11.973  66.917  1.00  0.00    -0.302 A  
HETATM   26 CL   UNL     1     -12.384  13.065  63.258  1.00  0.00    -0.525 Cl 
HETATM   27  C   UNL     1     -10.651  11.231  64.242  1.00  0.00    -0.358 A  
HETATM   28  C   UNL     1     -11.549  12.254  64.528  1.00  0.00    -0.353 A  
HETATM   29  C   UNL     1      -9.988  10.579  65.269  1.00  0.00    -0.364 A  
HETATM   30  F   UNL     1     -10.424  10.845  62.977  1.00  0.00    -0.359 F  
HETATM   31  C   UNL     1     -10.239  10.945  66.596  1.00  0.00    -0.282 A  
HETATM   32  C   UNL     1     -11.793  12.623  65.855  1.00  0.00    -0.499 A  
ENDBRANCH  23  25
ENDBRANCH  10  23
ENDBRANCH   2   3
TORSDOF 8
ENDMDL
MODEL      170
REMARK 921   NORMALIZED FREE ENERGY PREDICTED BY IDOCK:   -4.57 KCAL/MOL
REMARK 922        TOTAL FREE ENERGY PREDICTED BY IDOCK:   -8.33 KCAL/MOL
REMARK 923 INTER-LIGAND FREE ENERGY PREDICTED BY IDOCK:   -7.02 KCAL/MOL
REMARK 924 INTRA-LIGAND FREE ENERGY PREDICTED BY IDOCK:   -1.31 KCAL/MOL
REMARK 927      BINDING AFFINITY PREDICTED BY RF-SCORE:    0.00 PKD
ROOT
HETATM    1  C   UNL     1      -6.046  17.461  69.255  1.00  0.00    -0.231 C  
HETATM    2  O   UNL     1      -6.686  16.873  68.124  1.00  0.00    -0.140 OA 
ENDROOT
BRANCH   2   3
HETATM    3  C   UNL     1      -7.766  16.076  68.402  1.00  0.00    -0.147 A  
HETATM    4  C   UNL     1      -7.732  14.740  68.000  1.00  0.00    -0.125 A  
HETATM    5  N   UNL     1     -11.059  16.324  69.905  1.00  0.00    -0.351 NA 
HETATM    6  C   UNL     1      -8.887  13.959  68.123  1.00  0.00    -0.184 A  
HETATM    7  C   UNL     1     -10.032  15.768  69.257  1.00  0.00    -0.262 A  
HETATM    8  C   UNL     1     -10.062  14.464  68.748  1.00  0.00    -0.234 A  
HETATM    9  C   UNL     1      -8.903  16.548  69.069  1.00  0.00    -0.223 A  
HETATM   10  C   UNL     1     -11.287  13.783  68.908  1.00  0.00    -0.288 A  
HETATM   11  N   UNL     1     -12.320  14.339  69.572  1.00  0.00    -0.291 NA 
HETATM   12  C   UNL     1     -12.150  15.575  70.042  1.00  0.00    -0.368 A  
BRANCH   4  13
HETATM   13  O   UNL     1      -6.671  14.099  67.416  1.00  0.00    -0.252 OA 
BRANCH  13  14
HETATM   14  C   UNL     1      -6.408  12.763  67.883  1.00  0.00    -0.118 C  
BRANCH  14  15
HETATM   15  C   UNL     1      -5.763  12.001  66.725  1.00  0.00     0.017 C  
BRANCH  15  16
HETATM   16  C   UNL     1      -6.534  10.752  66.279  1.00  0.00    -0.134 C  
BRANCH  16  17
HETATM   17  N   UNL     1      -5.792   9.800  65.437  1.00  0.00    -0.065 NA 
HETATM   18  C   UNL     1      -5.911  10.159  64.001  1.00  0.00    -0.140 C  
HETATM   19  C   UNL     1      -7.291   9.844  63.398  1.00  0.00    -0.134 C  
HETATM   20  C   UNL     1      -6.225   8.392  65.581  1.00  0.00    -0.048 C  
HETATM   21  C   UNL     1      -7.569   8.054  64.910  1.00  0.00    -0.106 C  
HETATM   22  O   UNL     1      -7.601   8.453  63.534  1.00  0.00    -0.118 OA 
ENDBRANCH  16  17
ENDBRANCH  15  16
ENDBRANCH  14  15
ENDBRANCH  13  14
ENDBRANCH   4  13
BRANCH  10  23
HETATM   23  N   UNL     1     -11.482  12.520  68.289  1.00  0.00    -0.285 NA 
HETATM   24  H   UNL     1     -11.891  11.804  68.889  1.00  0.00     0.000 HD 
BRANCH  23  25
HETATM   25  C   UNL     1     -11.194  12.103  66.969  1.00  0.00    -0.314 A  
HETATM   26 CL   UNL     1     -12.298  13.281  63.291  1.00  0.00    -0.477 Cl 
HETATM   27  C   UNL     1     -10.870  11.218  64.312  1.00  0.00    -0.328 A  
HETATM   28  C   UNL     1     -11.587  12.381  64.577  1.00  0.00    -0.348 A  
HETATM   29  C   UNL     1     -10.306  10.496  65.352  1.00  0.00    -0.292 A  
HETATM   30  F   UNL     1     -10.726  10.766  63.057  1.00  0.00    -0.268 F  
HETATM   31  C   UNL     1     -10.477  10.934  66.670  1.00  0.00    -0.307 A  
HETATM   32  C   UNL     1     -11.750  12.820  65.895  1.00  0.00    -0.464 A  
ENDBRANCH  23  25
ENDBRANCH  10  23
ENDBRANCH   2   3
TORSDOF 8
ENDMDL
MODEL      171
REMARK 921   NORMALIZED FREE ENERGY PREDICTED BY IDOCK:   -4.54 KCAL/MOL
REMARK 922        TOTAL FREE ENERGY PREDICTED BY IDOCK:   -8.30 KCAL/MOL
REMARK 923 INTER-LIGAND FREE ENERGY PREDICTED BY IDOCK:   -6.82 KCAL/MOL
REMARK 924 INTRA-LIGAND FREE ENERGY PREDICTED BY IDOCK:   -1.48 KCAL/MOL
REMARK 927      BINDING AFFINITY PREDICTED BY RF-SCORE:    0.00 PKD
ROOT
HETATM    1  C   UNL     1     -12.015  15.553  69.792  1.00  0.00    -0.364 C  
HETATM    2  O   UNL     1     -11.195  16.184  68.810  1.00  0.00    -0.331 OA 
ENDROOT
BRANCH   2   3
HETATM    3  C   UNL     1     -10.007  15.557  68.538  1.00  0.00    -0.208 A  
HETATM    4  C   UNL     1      -9.882  14.852  67.340  1.00  0.00    -0.221 A  
HETATM    5  N   UNL     1      -6.777  14.980  70.085  1.00  0.00    -0.144 NA 
HETATM    6  C   UNL     1      -8.744  14.068  67.122  1.00  0.00    -0.234 A  
HETATM    7  C   UNL     1      -7.753  14.873  69.180  1.00  0.00    -0.164 A  
HETATM    8  C   UNL     1      -7.661  14.060  68.045  1.00  0.00    -0.143 A  
HETATM    9  C   UNL     1      -8.914  15.592  69.412  1.00  0.00    -0.275 A  
HETATM   10  C   UNL     1      -6.477  13.296  67.945  1.00  0.00    -0.147 A  
HETATM   11  N   UNL     1      -5.486  13.413  68.852  1.00  0.00    -0.072 NA 
HETATM   12  C   UNL     1      -5.684  14.253  69.869  1.00  0.00    -0.111 A  
BRANCH   4  13
HETATM   13  O   UNL     1     -10.818  14.787  66.340  1.00  0.00    -0.310 OA 
BRANCH  13  14
HETATM   14  C   UNL     1     -11.956  13.944  66.595  1.00  0.00    -0.442 C  
BRANCH  14  15
HETATM   15  C   UNL     1     -11.451  12.502  66.627  1.00  0.00    -0.417 C  
BRANCH  15  16
HETATM   16  C   UNL     1     -11.934  11.685  67.831  1.00  0.00    -0.089 C  
BRANCH  16  17
HETATM   17  N   UNL     1     -11.239  11.934  69.103  1.00  0.00    -0.248 NA 
HETATM   18  C   UNL     1     -10.152  10.944  69.316  1.00  0.00    -0.140 C  
HETATM   19  C   UNL     1     -10.660   9.543  69.699  1.00  0.00    -0.228 C  
HETATM   20  C   UNL     1     -12.114  11.897  70.295  1.00  0.00    -0.325 C  
HETATM   21  C   UNL     1     -12.561  10.488  70.729  1.00  0.00    -0.382 C  
HETATM   22  O   UNL     1     -11.452   9.596  70.891  1.00  0.00    -0.296 OA 
ENDBRANCH  16  17
ENDBRANCH  15  16
ENDBRANCH  14  15
ENDBRANCH  13  14
ENDBRANCH   4  13
BRANCH  10  23
HETATM   23  N   UNL     1      -6.349  12.320  66.923  1.00  0.00    -0.437 NA 
HETATM   24  H   UNL     1      -5.575  12.472  66.275  1.00  0.00     0.000 HD 
BRANCH  23  25
HETATM   25  C   UNL     1      -7.128  11.169  66.665  1.00  0.00    -0.141 A  
HETATM   26 CL   UNL     1     -10.124  10.244  64.154  1.00  0.00    -0.274 Cl 
HETATM   27  C   UNL     1      -8.887   9.010  66.224  1.00  0.00    -0.151 A  
HETATM   28  C   UNL     1      -8.956  10.141  65.417  1.00  0.00    -0.177 A  
HETATM   29  C   UNL     1      -7.949   8.938  67.241  1.00  0.00    -0.097 A  
HETATM   30  F   UNL     1      -9.731   7.983  66.047  1.00  0.00    -0.245 F  
HETATM   31  C   UNL     1      -7.083  10.015  67.462  1.00  0.00    -0.087 A  
HETATM   32  C   UNL     1      -8.085  11.214  65.635  1.00  0.00     0.085 A  
ENDBRANCH  23  25
ENDBRANCH  10  23
ENDBRANCH   2   3
TORSDOF 8
ENDMDL
MODEL      172
REMARK 921   NORMALIZED FREE ENERGY PREDICTED BY IDOCK:   -4.52 KCAL/MOL
REMARK 922        TOTAL FREE ENERGY PREDICTED BY IDOCK:   -8.26 KCAL/MOL
REMARK 923 INTER-LIGAND FREE ENERGY PREDICTED BY IDOCK:   -7.52 KCAL/MOL
REMARK 924 INTRA-LIGAND FREE ENERGY PREDICTED BY IDOCK:   -0.75 KCAL/MOL
REMARK 927      BINDING AFFINITY PREDICTED BY RF-SCORE:    0.00 PKD
ROOT
HETATM    1  C   UNL     1      -6.364  16.595  67.958  1.00  0.00    -0.137 C  
HETATM    2  O   UNL     1      -6.574  15.543  68.898  1.00  0.00    -0.106 OA 
ENDROOT
BRANCH   2   3
HETATM    3  C   UNL     1      -7.125  14.395  68.390  1.00  0.00    -0.106 A  
HETATM    4  C   UNL     1      -8.493  14.178  68.562  1.00  0.00    -0.157 A  
HETATM    5  N   UNL     1      -6.102  11.382  66.649  1.00  0.00    -0.143 NA 
HETATM    6  C   UNL     1      -9.040  12.942  68.202  1.00  0.00    -0.207 A  
HETATM    7  C   UNL     1      -6.915  12.228  67.286  1.00  0.00    -0.142 A  
HETATM    8  C   UNL     1      -8.256  11.940  67.564  1.00  0.00    -0.155 A  
HETATM    9  C   UNL     1      -6.373  13.431  67.708  1.00  0.00    -0.164 A  
HETATM   10  C   UNL     1      -8.689  10.654  67.177  1.00  0.00    -0.130 A  
HETATM   11  N   UNL     1      -7.872   9.804  66.522  1.00  0.00    -0.108 NA 
HETATM   12  C   UNL     1      -6.626  10.214  66.286  1.00  0.00    -0.094 A  
BRANCH   4  13
HETATM   13  O   UNL     1      -9.385  15.053  69.126  1.00  0.00    -0.205 OA 
BRANCH  13  14
HETATM   14  C   UNL     1     -10.569  14.465  69.696  1.00  0.00     0.005 C  
BRANCH  14  15
HETATM   15  C   UNL     1     -11.763  15.003  68.906  1.00  0.00    -0.354 C  
BRANCH  15  16
HETATM   16  C   UNL     1     -11.424  15.483  67.490  1.00  0.00    -0.183 C  
BRANCH  16  17
HETATM   17  N   UNL     1     -11.005  14.444  66.537  1.00  0.00    -0.310 NA 
HETATM   18  C   UNL     1     -10.507  15.051  65.277  1.00  0.00    -0.403 C  
HETATM   19  C   UNL     1     -11.622  15.626  64.386  1.00  0.00    -0.249 C  
HETATM   20  C   UNL     1     -12.069  13.481  66.177  1.00  0.00    -0.436 C  
HETATM   21  C   UNL     1     -13.145  14.029  65.221  1.00  0.00    -0.136 C  
HETATM   22  O   UNL     1     -12.574  14.613  64.043  1.00  0.00    -0.819 OA 
ENDBRANCH  16  17
ENDBRANCH  15  16
ENDBRANCH  14  15
ENDBRANCH  13  14
ENDBRANCH   4  13
BRANCH  10  23
HETATM   23  N   UNL     1      -9.980  10.198  67.553  1.00  0.00    -0.183 NA 
HETATM   24  H   UNL     1     -10.670  10.190  66.803  1.00  0.00     0.000 HD 
BRANCH  23  25
HETATM   25  C   UNL     1     -10.454   9.753  68.809  1.00  0.00    -0.218 A  
HETATM   26 CL   UNL     1     -12.877  11.241  71.645  1.00  0.00    -0.530 Cl 
HETATM   27  C   UNL     1     -11.279   9.066  71.415  1.00  0.00    -0.324 A  
HETATM   28  C   UNL     1     -11.773  10.216  70.808  1.00  0.00    -0.357 A  
HETATM   29  C   UNL     1     -10.387   8.250  70.738  1.00  0.00    -0.221 A  
HETATM   30  F   UNL     1     -11.640   8.735  72.664  1.00  0.00    -0.409 F  
HETATM   31  C   UNL     1      -9.973   8.599  69.448  1.00  0.00    -0.197 A  
HETATM   32  C   UNL     1     -11.363  10.559  69.515  1.00  0.00    -0.341 A  
ENDBRANCH  23  25
ENDBRANCH  10  23
ENDBRANCH   2   3
TORSDOF 8
ENDMDL
MODEL      173
REMARK 921   NORMALIZED FREE ENERGY PREDICTED BY IDOCK:   -4.51 KCAL/MOL
REMARK 922        TOTAL FREE ENERGY PREDICTED BY IDOCK:   -8.25 KCAL/MOL
REMARK 923 INTER-LIGAND FREE ENERGY PREDICTED BY IDOCK:   -7.24 KCAL/MOL
REMARK 924 INTRA-LIGAND FREE ENERGY PREDICTED BY IDOCK:   -1.01 KCAL/MOL
REMARK 927      BINDING AFFINITY PREDICTED BY RF-SCORE:    0.00 PKD
ROOT
HETATM    1  C   UNL     1      -6.903   7.189  67.466  1.00  0.00    -0.070 C  
HETATM    2  O   UNL     1      -8.250   7.436  67.866  1.00  0.00    -0.118 OA 
ENDROOT
BRANCH   2   3
HETATM    3  C   UNL     1      -8.688   8.725  67.709  1.00  0.00    -0.136 A  
HETATM    4  C   UNL     1      -8.560   9.609  68.782  1.00  0.00    -0.125 A  
HETATM    5  N   UNL     1     -10.320  10.798  65.220  1.00  0.00    -0.277 NA 
HETATM    6  C   UNL     1      -9.152  10.875  68.700  1.00  0.00    -0.175 A  
HETATM    7  C   UNL     1      -9.795  10.464  66.401  1.00  0.00    -0.213 A  
HETATM    8  C   UNL     1      -9.789  11.321  67.508  1.00  0.00    -0.195 A  
HETATM    9  C   UNL     1      -9.262   9.191  66.520  1.00  0.00    -0.221 A  
HETATM   10  C   UNL     1     -10.438  12.559  67.315  1.00  0.00    -0.220 A  
HETATM   11  N   UNL     1     -10.957  12.903  66.118  1.00  0.00    -0.277 NA 
HETATM   12  C   UNL     1     -10.864  12.009  65.133  1.00  0.00    -0.300 A  
BRANCH   4  13
HETATM   13  O   UNL     1      -7.949   9.343  69.979  1.00  0.00    -0.101 OA 
BRANCH  13  14
HETATM   14  C   UNL     1      -8.821   8.979  71.065  1.00  0.00    -0.230 C  
BRANCH  14  15
HETATM   15  C   UNL     1      -7.994   8.152  72.049  1.00  0.00    -0.160 C  
BRANCH  15  16
HETATM   16  C   UNL     1      -8.659   6.845  72.497  1.00  0.00    -0.121 C  
BRANCH  16  17
HETATM   17  N   UNL     1      -9.725   6.329  71.625  1.00  0.00    -0.162 NA 
HETATM   18  C   UNL     1     -11.008   6.219  72.363  1.00  0.00    -0.254 C  
HETATM   19  C   UNL     1     -11.050   5.045  73.357  1.00  0.00    -0.335 C  
HETATM   20  C   UNL     1      -9.439   5.003  71.031  1.00  0.00    -0.162 C  
HETATM   21  C   UNL     1      -9.558   3.816  72.004  1.00  0.00    -0.147 C  
HETATM   22  O   UNL     1     -10.818   3.802  72.687  1.00  0.00    -0.083 OA 
ENDBRANCH  16  17
ENDBRANCH  15  16
ENDBRANCH  14  15
ENDBRANCH  13  14
ENDBRANCH   4  13
BRANCH  10  23
HETATM   23  N   UNL     1     -10.632  13.436  68.414  1.00  0.00    -0.243 NA 
HETATM   24  H   UNL     1     -10.023  14.255  68.425  1.00  0.00     0.000 HD 
BRANCH  23  25
HETATM   25  C   UNL     1     -11.539  13.348  69.495  1.00  0.00    -0.290 A  
HETATM   26 CL   UNL     1     -12.808  15.841  72.377  1.00  0.00    -0.509 Cl 
HETATM   27  C   UNL     1     -13.149  13.216  71.805  1.00  0.00    -0.383 A  
HETATM   28  C   UNL     1     -12.568  14.423  71.429  1.00  0.00    -0.354 A  
HETATM   29  C   UNL     1     -12.946  12.078  71.041  1.00  0.00    -0.175 A  
HETATM   30  F   UNL     1     -13.898  13.126  72.915  1.00  0.00    -0.530 F  
HETATM   31  C   UNL     1     -12.139  12.146  69.900  1.00  0.00    -0.324 A  
HETATM   32  C   UNL     1     -11.767  14.489  70.284  1.00  0.00    -0.356 A  
ENDBRANCH  23  25
ENDBRANCH  10  23
ENDBRANCH   2   3
TORSDOF 8
ENDMDL
MODEL      174
REMARK 921   NORMALIZED FREE ENERGY PREDICTED BY IDOCK:   -4.50 KCAL/MOL
REMARK 922        TOTAL FREE ENERGY PREDICTED BY IDOCK:   -8.24 KCAL/MOL
REMARK 923 INTER-LIGAND FREE ENERGY PREDICTED BY IDOCK:   -7.30 KCAL/MOL
REMARK 924 INTRA-LIGAND FREE ENERGY PREDICTED BY IDOCK:   -0.93 KCAL/MOL
REMARK 927      BINDING AFFINITY PREDICTED BY RF-SCORE:    0.00 PKD
ROOT
HETATM    1  C   UNL     1      -9.729   8.118  67.291  1.00  0.00    -0.178 C  
HETATM    2  O   UNL     1     -10.863   8.931  67.583  1.00  0.00    -0.205 OA 
ENDROOT
BRANCH   2   3
HETATM    3  C   UNL     1     -10.738  10.259  67.265  1.00  0.00    -0.263 A  
HETATM    4  C   UNL     1     -10.522  11.175  68.295  1.00  0.00    -0.191 A  
HETATM    5  N   UNL     1     -10.887  12.423  64.357  1.00  0.00    -0.314 NA 
HETATM    6  C   UNL     1     -10.561  12.545  68.012  1.00  0.00    -0.237 A  
HETATM    7  C   UNL     1     -10.796  12.085  65.646  1.00  0.00    -0.282 A  
HETATM    8  C   UNL     1     -10.707  13.024  66.681  1.00  0.00    -0.285 A  
HETATM    9  C   UNL     1     -10.822  10.734  65.951  1.00  0.00    -0.077 A  
HETATM   10  C   UNL     1     -10.783  14.374  66.277  1.00  0.00    -0.307 A  
HETATM   11  N   UNL     1     -10.862  14.716  64.975  1.00  0.00    -0.390 NA 
HETATM   12  C   UNL     1     -10.902  13.725  64.084  1.00  0.00    -0.082 A  
BRANCH   4  13
HETATM   13  O   UNL     1     -10.331  10.873  69.619  1.00  0.00    -0.170 OA 
BRANCH  13  14
HETATM   14  C   UNL     1     -11.523  10.771  70.420  1.00  0.00    -0.307 C  
BRANCH  14  15
HETATM   15  C   UNL     1     -11.705   9.294  70.770  1.00  0.00    -0.328 C  
BRANCH  15  16
HETATM   16  C   UNL     1     -10.719   8.763  71.818  1.00  0.00    -0.343 C  
BRANCH  16  17
HETATM   17  N   UNL     1      -9.796   7.711  71.363  1.00  0.00    -0.173 NA 
HETATM   18  C   UNL     1      -9.211   6.984  72.519  1.00  0.00    -0.138 C  
HETATM   19  C   UNL     1      -8.148   7.792  73.283  1.00  0.00    -0.148 C  
HETATM   20  C   UNL     1      -8.674   8.201  70.532  1.00  0.00    -0.135 C  
HETATM   21  C   UNL     1      -7.567   8.942  71.305  1.00  0.00    -0.103 C  
HETATM   22  O   UNL     1      -7.077   8.176  72.413  1.00  0.00    -0.081 OA 
ENDBRANCH  16  17
ENDBRANCH  15  16
ENDBRANCH  14  15
ENDBRANCH  13  14
ENDBRANCH   4  13
BRANCH  10  23
HETATM   23  N   UNL     1     -10.865  15.402  67.253  1.00  0.00    -0.312 NA 
HETATM   24  H   UNL     1     -11.703  15.380  67.833  1.00  0.00     0.000 HD 
BRANCH  23  25
HETATM   25  C   UNL     1      -9.963  16.451  67.543  1.00  0.00    -0.250 A  
HETATM   26 CL   UNL     1     -10.171  19.943  69.515  1.00  0.00    -0.237 Cl 
HETATM   27  C   UNL     1      -8.316  18.695  67.987  1.00  0.00    -0.277 A  
HETATM   28  C   UNL     1      -9.585  18.639  68.554  1.00  0.00    -0.361 A  
HETATM   29  C   UNL     1      -7.854  17.645  67.210  1.00  0.00    -0.222 A  
HETATM   30  F   UNL     1      -7.526  19.765  68.165  1.00  0.00    -0.310 F  
HETATM   31  C   UNL     1      -8.677  16.537  66.985  1.00  0.00    -0.221 A  
HETATM   32  C   UNL     1     -10.404  17.527  68.333  1.00  0.00    -0.378 A  
ENDBRANCH  23  25
ENDBRANCH  10  23
ENDBRANCH   2   3
TORSDOF 8
ENDMDL
MODEL      175
REMARK 921   NORMALIZED FREE ENERGY PREDICTED BY IDOCK:   -4.48 KCAL/MOL
REMARK 922        TOTAL FREE ENERGY PREDICTED BY IDOCK:   -8.21 KCAL/MOL
REMARK 923 INTER-LIGAND FREE ENERGY PREDICTED BY IDOCK:   -7.09 KCAL/MOL
REMARK 924 INTRA-LIGAND FREE ENERGY PREDICTED BY IDOCK:   -1.12 KCAL/MOL
REMARK 927      BINDING AFFINITY PREDICTED BY RF-SCORE:    0.00 PKD
ROOT
HETATM    1  C   UNL     1      -7.632  19.416  65.854  1.00  0.00    -0.269 C  
HETATM    2  O   UNL     1      -8.733  18.513  65.927  1.00  0.00    -0.490 OA 
ENDROOT
BRANCH   2   3
HETATM    3  C   UNL     1      -8.443  17.261  66.405  1.00  0.00    -0.269 A  
HETATM    4  C   UNL     1      -9.453  16.299  66.415  1.00  0.00    -0.294 A  
HETATM    5  N   UNL     1      -5.671  15.453  67.889  1.00  0.00    -0.139 NA 
HETATM    6  C   UNL     1      -9.225  15.074  67.052  1.00  0.00    -0.246 A  
HETATM    7  C   UNL     1      -6.915  15.677  67.462  1.00  0.00    -0.189 A  
HETATM    8  C   UNL     1      -7.952  14.745  67.595  1.00  0.00    -0.191 A  
HETATM    9  C   UNL     1      -7.176  16.910  66.887  1.00  0.00    -0.251 A  
HETATM   10  C   UNL     1      -7.610  13.557  68.277  1.00  0.00    -0.135 A  
HETATM   11  N   UNL     1      -6.350  13.325  68.698  1.00  0.00    -0.080 NA 
HETATM   12  C   UNL     1      -5.446  14.280  68.476  1.00  0.00    -0.098 A  
BRANCH   4  13
HETATM   13  O   UNL     1     -10.717  16.449  65.907  1.00  0.00    -0.298 OA 
BRANCH  13  14
HETATM   14  C   UNL     1     -10.983  15.766  64.668  1.00  0.00    -0.314 C  
BRANCH  14  15
HETATM   15  C   UNL     1     -12.248  14.933  64.876  1.00  0.00    -0.230 C  
BRANCH  15  16
HETATM   16  C   UNL     1     -12.074  13.737  65.820  1.00  0.00    -0.429 C  
BRANCH  16  17
HETATM   17  N   UNL     1     -12.426  12.420  65.267  1.00  0.00    -0.609 NA 
HETATM   18  C   UNL     1     -11.551  11.359  65.828  1.00  0.00     0.252 C  
HETATM   19  C   UNL     1     -10.119  11.378  65.264  1.00  0.00    -0.268 C  
HETATM   20  C   UNL     1     -12.339  12.334  63.793  1.00  0.00    -0.538 C  
HETATM   21  C   UNL     1     -10.908  12.272  63.228  1.00  0.00    -0.303 C  
HETATM   22  O   UNL     1     -10.130  11.235  63.840  1.00  0.00    -0.275 OA 
ENDBRANCH  16  17
ENDBRANCH  15  16
ENDBRANCH  14  15
ENDBRANCH  13  14
ENDBRANCH   4  13
BRANCH  10  23
HETATM   23  N   UNL     1      -8.619  12.616  68.609  1.00  0.00    -0.369 NA 
HETATM   24  H   UNL     1      -9.490  13.021  68.953  1.00  0.00     0.000 HD 
BRANCH  23  25
HETATM   25  C   UNL     1      -8.602  11.205  68.537  1.00  0.00    -0.157 A  
HETATM   26 CL   UNL     1      -6.534   8.471  66.445  1.00  0.00    -0.057 Cl 
HETATM   27  C   UNL     1      -8.638   8.413  68.148  1.00  0.00    -0.139 A  
HETATM   28  C   UNL     1      -7.686   9.194  67.502  1.00  0.00    -0.092 A  
HETATM   29  C   UNL     1      -9.566   9.003  68.992  1.00  0.00    -0.160 A  
HETATM   30  F   UNL     1      -8.689   7.086  67.958  1.00  0.00    -0.125 F  
HETATM   31  C   UNL     1      -9.550  10.390  69.176  1.00  0.00    -0.226 A  
HETATM   32  C   UNL     1      -7.668  10.580  67.692  1.00  0.00    -0.097 A  
ENDBRANCH  23  25
ENDBRANCH  10  23
ENDBRANCH   2   3
TORSDOF 8
ENDMDL
MODEL      176
REMARK 921   NORMALIZED FREE ENERGY PREDICTED BY IDOCK:   -4.47 KCAL/MOL
REMARK 922        TOTAL FREE ENERGY PREDICTED BY IDOCK:   -8.19 KCAL/MOL
REMARK 923 INTER-LIGAND FREE ENERGY PREDICTED BY IDOCK:   -6.64 KCAL/MOL
REMARK 924 INTRA-LIGAND FREE ENERGY PREDICTED BY IDOCK:   -1.55 KCAL/MOL
REMARK 927      BINDING AFFINITY PREDICTED BY RF-SCORE:    0.00 PKD
ROOT
HETATM    1  C   UNL     1      -6.434   8.277  65.502  1.00  0.00    -0.049 C  
HETATM    2  O   UNL     1      -6.399   9.697  65.639  1.00  0.00    -0.064 OA 
ENDROOT
BRANCH   2   3
HETATM    3  C   UNL     1      -7.451  10.252  66.321  1.00  0.00    -0.118 A  
HETATM    4  C   UNL     1      -7.408  10.272  67.716  1.00  0.00    -0.087 A  
HETATM    5  N   UNL     1     -10.680  11.763  65.651  1.00  0.00    -0.272 NA 
HETATM    6  C   UNL     1      -8.540  10.678  68.430  1.00  0.00    -0.134 A  
HETATM    7  C   UNL     1      -9.671  11.266  66.370  1.00  0.00    -0.209 A  
HETATM    8  C   UNL     1      -9.697  11.176  67.767  1.00  0.00    -0.183 A  
HETATM    9  C   UNL     1      -8.567  10.798  65.676  1.00  0.00    -0.185 A  
HETATM   10  C   UNL     1     -10.900  11.592  68.376  1.00  0.00    -0.211 A  
HETATM   11  N   UNL     1     -11.915  12.105  67.651  1.00  0.00    -0.543 NA 
HETATM   12  C   UNL     1     -11.749  12.171  66.329  1.00  0.00    -0.320 A  
BRANCH   4  13
HETATM   13  O   UNL     1      -6.360   9.859  68.497  1.00  0.00    -0.049 OA 
BRANCH  13  14
HETATM   14  C   UNL     1      -6.684   9.519  69.858  1.00  0.00    -0.063 C  
BRANCH  14  15
HETATM   15  C   UNL     1      -6.798   7.996  69.926  1.00  0.00    -0.041 C  
BRANCH  15  16
HETATM   16  C   UNL     1      -7.937   7.484  70.816  1.00  0.00    -0.103 C  
BRANCH  16  17
HETATM   17  N   UNL     1      -7.568   6.476  71.823  1.00  0.00    -0.093 NA 
HETATM   18  C   UNL     1      -8.750   6.073  72.627  1.00  0.00    -0.121 C  
HETATM   19  C   UNL     1      -9.198   7.138  73.643  1.00  0.00    -0.198 C  
HETATM   20  C   UNL     1      -6.516   6.913  72.768  1.00  0.00    -0.058 C  
HETATM   21  C   UNL     1      -6.980   7.920  73.836  1.00  0.00    -0.117 C  
HETATM   22  O   UNL     1      -8.136   7.459  74.547  1.00  0.00    -0.162 OA 
ENDBRANCH  16  17
ENDBRANCH  15  16
ENDBRANCH  14  15
ENDBRANCH  13  14
ENDBRANCH   4  13
BRANCH  10  23
HETATM   23  N   UNL     1     -11.096  11.393  69.768  1.00  0.00    -0.455 NA 
HETATM   24  H   UNL     1     -10.768  12.153  70.362  1.00  0.00     0.000 HD 
BRANCH  23  25
HETATM   25  C   UNL     1     -11.676  10.302  70.455  1.00  0.00    -0.331 A  
HETATM   26 CL   UNL     1     -11.310   6.305  70.308  1.00  0.00    -0.450 Cl 
HETATM   27  C   UNL     1     -12.927   8.051  71.601  1.00  0.00    -0.328 A  
HETATM   28  C   UNL     1     -11.863   7.884  70.722  1.00  0.00    -0.176 A  
HETATM   29  C   UNL     1     -13.370   9.324  71.924  1.00  0.00    -0.498 A  
HETATM   30  F   UNL     1     -13.553   6.993  72.138  1.00  0.00    -0.282 F  
HETATM   31  C   UNL     1     -12.752  10.438  71.346  1.00  0.00    -0.551 A  
HETATM   32  C   UNL     1     -11.242   9.000  70.151  1.00  0.00    -0.191 A  
ENDBRANCH  23  25
ENDBRANCH  10  23
ENDBRANCH   2   3
TORSDOF 8
ENDMDL
MODEL      177
REMARK 921   NORMALIZED FREE ENERGY PREDICTED BY IDOCK:   -4.46 KCAL/MOL
REMARK 922        TOTAL FREE ENERGY PREDICTED BY IDOCK:   -8.17 KCAL/MOL
REMARK 923 INTER-LIGAND FREE ENERGY PREDICTED BY IDOCK:   -6.88 KCAL/MOL
REMARK 924 INTRA-LIGAND FREE ENERGY PREDICTED BY IDOCK:   -1.29 KCAL/MOL
REMARK 927      BINDING AFFINITY PREDICTED BY RF-SCORE:    0.00 PKD
ROOT
HETATM    1  C   UNL     1     -12.442  13.773  65.688  1.00  0.00    -0.503 C  
HETATM    2  O   UNL     1     -11.282  13.509  66.475  1.00  0.00    -0.297 OA 
ENDROOT
BRANCH   2   3
HETATM    3  C   UNL     1     -10.861  12.205  66.492  1.00  0.00    -0.270 A  
HETATM    4  C   UNL     1     -11.365  11.352  67.475  1.00  0.00    -0.292 A  
HETATM    5  N   UNL     1      -8.572  10.024  64.712  1.00  0.00    -0.164 NA 
HETATM    6  C   UNL     1     -10.823  10.070  67.613  1.00  0.00    -0.336 A  
HETATM    7  C   UNL     1      -9.445  10.403  65.649  1.00  0.00    -0.211 A  
HETATM    8  C   UNL     1      -9.845   9.576  66.705  1.00  0.00    -0.293 A  
HETATM    9  C   UNL     1      -9.944  11.693  65.566  1.00  0.00    -0.277 A  
HETATM   10  C   UNL     1      -9.212   8.315  66.756  1.00  0.00    -0.169 A  
HETATM   11  N   UNL     1      -8.340   7.927  65.803  1.00  0.00    -0.129 NA 
HETATM   12  C   UNL     1      -8.072   8.797  64.828  1.00  0.00    -0.151 A  
BRANCH   4  13
HETATM   13  O   UNL     1     -12.327  11.666  68.400  1.00  0.00    -0.417 OA 
BRANCH  13  14
HETATM   14  C   UNL     1     -11.898  11.684  69.774  1.00  0.00    -0.357 C  
BRANCH  14  15
HETATM   15  C   UNL     1     -12.797  10.712  70.539  1.00  0.00    -0.356 C  
BRANCH  15  16
HETATM   16  C   UNL     1     -12.069   9.866  71.590  1.00  0.00    -0.373 C  
BRANCH  16  17
HETATM   17  N   UNL     1     -11.123   8.865  71.073  1.00  0.00    -0.258 NA 
HETATM   18  C   UNL     1     -11.842   7.745  70.415  1.00  0.00     0.040 C  
HETATM   19  C   UNL     1     -12.538   6.793  71.404  1.00  0.00    -0.297 C  
HETATM   20  C   UNL     1     -10.232   8.279  72.100  1.00  0.00    -0.285 C  
HETATM   21  C   UNL     1     -10.906   7.265  73.042  1.00  0.00    -0.355 C  
HETATM   22  O   UNL     1     -11.593   6.233  72.323  1.00  0.00    -0.293 OA 
ENDBRANCH  16  17
ENDBRANCH  15  16
ENDBRANCH  14  15
ENDBRANCH  13  14
ENDBRANCH   4  13
BRANCH  10  23
HETATM   23  N   UNL     1      -9.421   7.462  67.871  1.00  0.00    -0.140 NA 
HETATM   24  H   UNL     1     -10.171   7.749  68.499  1.00  0.00     0.000 HD 
BRANCH  23  25
HETATM   25  C   UNL     1      -8.748   6.276  68.244  1.00  0.00    -0.115 A  
HETATM   26 CL   UNL     1      -8.681   2.486  66.919  1.00  0.00    -0.124 Cl 
HETATM   27  C   UNL     1      -7.636   3.810  69.037  1.00  0.00    -0.053 A  
HETATM   28  C   UNL     1      -8.395   3.890  67.875  1.00  0.00    -0.093 A  
HETATM   29  C   UNL     1      -7.416   4.943  69.804  1.00  0.00    -0.056 A  
HETATM   30  F   UNL     1      -7.119   2.642  69.446  1.00  0.00    -0.041 F  
HETATM   31  C   UNL     1      -7.977   6.164  69.412  1.00  0.00    -0.104 A  
HETATM   32  C   UNL     1      -8.949   5.113  67.481  1.00  0.00    -0.110 A  
ENDBRANCH  23  25
ENDBRANCH  10  23
ENDBRANCH   2   3
TORSDOF 8
ENDMDL
MODEL      178
REMARK 921   NORMALIZED FREE ENERGY PREDICTED BY IDOCK:   -4.45 KCAL/MOL
REMARK 922        TOTAL FREE ENERGY PREDICTED BY IDOCK:   -8.17 KCAL/MOL
REMARK 923 INTER-LIGAND FREE ENERGY PREDICTED BY IDOCK:   -8.52 KCAL/MOL
REMARK 924 INTRA-LIGAND FREE ENERGY PREDICTED BY IDOCK:    0.35 KCAL/MOL
REMARK 927      BINDING AFFINITY PREDICTED BY RF-SCORE:    0.00 PKD
ROOT
HETATM    1  C   UNL     1     -10.886  19.017  66.103  1.00  0.00    -0.178 C  
HETATM    2  O   UNL     1      -9.928  17.969  65.971  1.00  0.00    -0.499 OA 
ENDROOT
BRANCH   2   3
HETATM    3  C   UNL     1     -10.424  16.695  66.082  1.00  0.00    -0.285 A  
HETATM    4  C   UNL     1     -10.355  16.057  67.321  1.00  0.00    -0.295 A  
HETATM    5  N   UNL     1     -11.925  14.131  64.000  1.00  0.00    -0.383 NA 
HETATM    6  C   UNL     1     -10.698  14.703  67.413  1.00  0.00    -0.280 A  
HETATM    7  C   UNL     1     -11.399  14.687  65.095  1.00  0.00    -0.375 A  
HETATM    8  C   UNL     1     -11.219  13.992  66.297  1.00  0.00    -0.320 A  
HETATM    9  C   UNL     1     -10.993  16.008  65.003  1.00  0.00    -0.393 A  
HETATM   10  C   UNL     1     -11.577  12.627  66.263  1.00  0.00    -0.386 A  
HETATM   11  N   UNL     1     -12.120  12.069  65.162  1.00  0.00    -0.370 NA 
HETATM   12  C   UNL     1     -12.273  12.850  64.092  1.00  0.00    -0.414 A  
BRANCH   4  13
HETATM   13  O   UNL     1      -9.909  16.612  68.492  1.00  0.00    -0.232 OA 
BRANCH  13  14
HETATM   14  C   UNL     1      -8.495  16.512  68.739  1.00  0.00    -0.248 C  
BRANCH  14  15
HETATM   15  C   UNL     1      -7.895  17.896  68.494  1.00  0.00    -0.301 C  
BRANCH  15  16
HETATM   16  C   UNL     1      -6.935  17.971  67.300  1.00  0.00    -0.187 C  
BRANCH  16  17
HETATM   17  N   UNL     1      -6.132  19.199  67.192  1.00  0.00    -0.172 NA 
HETATM   18  C   UNL     1      -7.002  20.385  66.985  1.00  0.00    -0.276 C  
HETATM   19  C   UNL     1      -7.598  20.473  65.569  1.00  0.00     0.151 C  
HETATM   20  C   UNL     1      -5.136  19.182  66.098  1.00  0.00    -0.140 C  
HETATM   21  C   UNL     1      -5.720  19.350  64.683  1.00  0.00    -0.255 C  
HETATM   22  O   UNL     1      -6.562  20.506  64.581  1.00  0.00    -0.307 OA 
ENDBRANCH  16  17
ENDBRANCH  15  16
ENDBRANCH  14  15
ENDBRANCH  13  14
ENDBRANCH   4  13
BRANCH  10  23
HETATM   23  N   UNL     1     -11.287  11.791  67.373  1.00  0.00    -0.322 NA 
HETATM   24  H   UNL     1     -10.792  10.929  67.146  1.00  0.00     0.000 HD 
BRANCH  23  25
HETATM   25  C   UNL     1     -11.580  11.971  68.744  1.00  0.00    -0.311 A  
HETATM   26 CL   UNL     1     -11.896   9.564  71.944  1.00  0.00    -0.420 Cl 
HETATM   27  C   UNL     1     -12.370  12.183  71.442  1.00  0.00     0.034 A  
HETATM   28  C   UNL     1     -11.937  10.961  70.937  1.00  0.00    -0.311 A  
HETATM   29  C   UNL     1     -12.406  13.301  70.624  1.00  0.00    -0.416 A  
HETATM   30  F   UNL     1     -12.774  12.300  72.716  1.00  0.00     0.109 F  
HETATM   31  C   UNL     1     -12.021  13.190  69.283  1.00  0.00    -0.344 A  
HETATM   32  C   UNL     1     -11.546  10.854  69.597  1.00  0.00    -0.394 A  
ENDBRANCH  23  25
ENDBRANCH  10  23
ENDBRANCH   2   3
TORSDOF 8
ENDMDL
MODEL      179
REMARK 921   NORMALIZED FREE ENERGY PREDICTED BY IDOCK:   -4.45 KCAL/MOL
REMARK 922        TOTAL FREE ENERGY PREDICTED BY IDOCK:   -8.17 KCAL/MOL
REMARK 923 INTER-LIGAND FREE ENERGY PREDICTED BY IDOCK:   -7.07 KCAL/MOL
REMARK 924 INTRA-LIGAND FREE ENERGY PREDICTED BY IDOCK:   -1.09 KCAL/MOL
REMARK 927      BINDING AFFINITY PREDICTED BY RF-SCORE:    0.00 PKD
ROOT
HETATM    1  C   UNL     1      -5.744  13.912  70.545  1.00  0.00    -0.161 C  
HETATM    2  O   UNL     1      -5.500  14.840  69.490  1.00  0.00    -0.091 OA 
ENDROOT
BRANCH   2   3
HETATM    3  C   UNL     1      -6.615  15.332  68.863  1.00  0.00    -0.108 A  
HETATM    4  C   UNL     1      -7.246  14.540  67.902  1.00  0.00    -0.158 A  
HETATM    5  N   UNL     1      -8.632  18.346  68.791  1.00  0.00    -0.272 NA 
HETATM    6  C   UNL     1      -8.280  15.089  67.135  1.00  0.00    -0.251 A  
HETATM    7  C   UNL     1      -8.212  17.129  68.438  1.00  0.00    -0.253 A  
HETATM    8  C   UNL     1      -8.775  16.399  67.385  1.00  0.00    -0.195 A  
HETATM    9  C   UNL     1      -7.146  16.596  69.145  1.00  0.00    -0.226 A  
HETATM   10  C   UNL     1      -9.792  17.064  66.666  1.00  0.00    -0.290 A  
HETATM   11  N   UNL     1     -10.225  18.288  67.030  1.00  0.00    -0.359 NA 
HETATM   12  C   UNL     1      -9.630  18.861  68.077  1.00  0.00    -0.322 A  
BRANCH   4  13
HETATM   13  O   UNL     1      -6.910  13.254  67.569  1.00  0.00    -0.157 OA 
BRANCH  13  14
HETATM   14  C   UNL     1      -7.966  12.281  67.669  1.00  0.00    -0.161 C  
BRANCH  14  15
HETATM   15  C   UNL     1      -7.536  11.257  68.720  1.00  0.00    -0.130 C  
BRANCH  15  16
HETATM   16  C   UNL     1      -7.552   9.802  68.233  1.00  0.00    -0.081 C  
BRANCH  16  17
HETATM   17  N   UNL     1      -8.560   8.925  68.850  1.00  0.00    -0.134 NA 
HETATM   18  C   UNL     1      -8.307   7.503  68.504  1.00  0.00    -0.126 C  
HETATM   19  C   UNL     1      -8.671   7.147  67.052  1.00  0.00    -0.123 C  
HETATM   20  C   UNL     1      -9.955   9.234  68.467  1.00  0.00    -0.175 C  
HETATM   21  C   UNL     1     -10.347   8.808  67.040  1.00  0.00    -0.283 C  
HETATM   22  O   UNL     1     -10.049   7.429  66.788  1.00  0.00    -0.234 OA 
ENDBRANCH  16  17
ENDBRANCH  15  16
ENDBRANCH  14  15
ENDBRANCH  13  14
ENDBRANCH   4  13
BRANCH  10  23
HETATM   23  N   UNL     1     -10.319  16.483  65.483  1.00  0.00    -0.572 NA 
HETATM   24  H   UNL     1     -10.174  17.028  64.633  1.00  0.00     0.000 HD 
BRANCH  23  25
HETATM   25  C   UNL     1     -11.014  15.265  65.303  1.00  0.00    -0.393 A  
HETATM   26 CL   UNL     1     -10.440  11.935  63.133  1.00  0.00    -0.390 Cl 
HETATM   27  C   UNL     1     -12.427  12.902  64.699  1.00  0.00    -0.434 A  
HETATM   28  C   UNL     1     -11.156  13.108  64.172  1.00  0.00    -0.394 A  
HETATM   29  C   UNL     1     -12.999  13.853  65.529  1.00  0.00    -0.375 A  
HETATM   30  F   UNL     1     -13.127  11.796  64.403  1.00  0.00    -0.339 F  
HETATM   31  C   UNL     1     -12.298  15.028  65.820  1.00  0.00     0.287 A  
HETATM   32  C   UNL     1     -10.455  14.281  64.470  1.00  0.00    -0.172 A  
ENDBRANCH  23  25
ENDBRANCH  10  23
ENDBRANCH   2   3
TORSDOF 8
ENDMDL
MODEL      180
REMARK 921   NORMALIZED FREE ENERGY PREDICTED BY IDOCK:   -4.45 KCAL/MOL
REMARK 922        TOTAL FREE ENERGY PREDICTED BY IDOCK:   -8.17 KCAL/MOL
REMARK 923 INTER-LIGAND FREE ENERGY PREDICTED BY IDOCK:   -6.99 KCAL/MOL
REMARK 924 INTRA-LIGAND FREE ENERGY PREDICTED BY IDOCK:   -1.18 KCAL/MOL
REMARK 927      BINDING AFFINITY PREDICTED BY RF-SCORE:    0.00 PKD
ROOT
HETATM    1  C   UNL     1      -7.953  15.069  68.500  1.00  0.00    -0.144 C  
HETATM    2  O   UNL     1      -9.092  14.237  68.715  1.00  0.00    -0.179 OA 
ENDROOT
BRANCH   2   3
HETATM    3  C   UNL     1      -9.332  13.298  67.745  1.00  0.00    -0.209 A  
HETATM    4  C   UNL     1      -8.843  12.005  67.931  1.00  0.00    -0.174 A  
HETATM    5  N   UNL     1     -10.895  13.045  64.481  1.00  0.00    -0.349 NA 
HETATM    6  C   UNL     1      -8.930  11.082  66.883  1.00  0.00    -0.162 A  
HETATM    7  C   UNL     1     -10.197  12.661  65.553  1.00  0.00    -0.281 A  
HETATM    8  C   UNL     1      -9.603  11.399  65.670  1.00  0.00    -0.258 A  
HETATM    9  C   UNL     1     -10.045  13.584  66.575  1.00  0.00    -0.282 A  
HETATM   10  C   UNL     1      -9.736  10.564  64.539  1.00  0.00    -0.314 A  
HETATM   11  N   UNL     1     -10.450  10.947  63.461  1.00  0.00    -0.285 NA 
HETATM   12  C   UNL     1     -10.998  12.162  63.491  1.00  0.00    -0.453 A  
BRANCH   4  13
HETATM   13  O   UNL     1      -8.202  11.537  69.049  1.00  0.00    -0.068 OA 
BRANCH  13  14
HETATM   14  C   UNL     1      -7.804  10.154  69.015  1.00  0.00    -0.107 C  
BRANCH  14  15
HETATM   15  C   UNL     1      -8.048   9.580  70.410  1.00  0.00    -0.209 C  
BRANCH  15  16
HETATM   16  C   UNL     1      -9.306   8.712  70.530  1.00  0.00    -0.175 C  
BRANCH  16  17
HETATM   17  N   UNL     1     -10.214   9.039  71.641  1.00  0.00    -0.343 NA 
HETATM   18  C   UNL     1     -10.050   8.077  72.760  1.00  0.00    -0.308 C  
HETATM   19  C   UNL     1     -10.657   6.692  72.477  1.00  0.00    -0.217 C  
HETATM   20  C   UNL     1     -11.648   9.054  71.274  1.00  0.00    -0.317 C  
HETATM   21  C   UNL     1     -12.280   7.665  71.067  1.00  0.00    -0.236 C  
HETATM   22  O   UNL     1     -12.055   6.798  72.185  1.00  0.00    -0.300 OA 
ENDBRANCH  16  17
ENDBRANCH  15  16
ENDBRANCH  14  15
ENDBRANCH  13  14
ENDBRANCH   4  13
BRANCH  10  23
HETATM   23  N   UNL     1      -9.038   9.329  64.486  1.00  0.00    -0.421 NA 
HETATM   24  H   UNL     1      -8.647   9.094  63.573  1.00  0.00     0.000 HD 
BRANCH  23  25
HETATM   25  C   UNL     1      -8.801   8.377  65.503  1.00  0.00    -0.130 A  
HETATM   26 CL   UNL     1     -11.076   6.396  68.155  1.00  0.00    -0.387 Cl 
HETATM   27  C   UNL     1      -8.418   6.650  67.698  1.00  0.00    -0.121 A  
HETATM   28  C   UNL     1      -9.705   6.998  67.302  1.00  0.00    -0.149 A  
HETATM   29  C   UNL     1      -7.321   7.143  67.010  1.00  0.00    -0.089 A  
HETATM   30  F   UNL     1      -8.213   5.849  68.755  1.00  0.00    -0.099 F  
HETATM   31  C   UNL     1      -7.515   8.006  65.927  1.00  0.00    -0.081 A  
HETATM   32  C   UNL     1      -9.897   7.856  66.214  1.00  0.00    -0.139 A  
ENDBRANCH  23  25
ENDBRANCH  10  23
ENDBRANCH   2   3
TORSDOF 8
ENDMDL
MODEL      181
REMARK 921   NORMALIZED FREE ENERGY PREDICTED BY IDOCK:   -4.45 KCAL/MOL
REMARK 922        TOTAL FREE ENERGY PREDICTED BY IDOCK:   -8.16 KCAL/MOL
REMARK 923 INTER-LIGAND FREE ENERGY PREDICTED BY IDOCK:   -7.11 KCAL/MOL
REMARK 924 INTRA-LIGAND FREE ENERGY PREDICTED BY IDOCK:   -1.06 KCAL/MOL
REMARK 927      BINDING AFFINITY PREDICTED BY RF-SCORE:    0.00 PKD
ROOT
HETATM    1  C   UNL     1      -9.109  19.920  66.920  1.00  0.00    -0.356 C  
HETATM    2  O   UNL     1      -9.925  18.798  66.587  1.00  0.00    -0.322 OA 
ENDROOT
BRANCH   2   3
HETATM    3  C   UNL     1      -9.420  17.574  66.940  1.00  0.00    -0.274 A  
HETATM    4  C   UNL     1     -10.122  16.428  66.561  1.00  0.00    -0.295 A  
HETATM    5  N   UNL     1      -6.638  16.169  68.795  1.00  0.00    -0.123 NA 
HETATM    6  C   UNL     1      -9.716  15.183  67.054  1.00  0.00    -0.237 A  
HETATM    7  C   UNL     1      -7.782  16.191  68.107  1.00  0.00    -0.141 A  
HETATM    8  C   UNL     1      -8.541  15.045  67.844  1.00  0.00    -0.155 A  
HETATM    9  C   UNL     1      -8.233  17.424  67.667  1.00  0.00    -0.210 A  
HETATM   10  C   UNL     1      -8.047  13.851  68.414  1.00  0.00    -0.145 A  
HETATM   11  N   UNL     1      -6.885  13.826  69.098  1.00  0.00    -0.112 NA 
HETATM   12  C   UNL     1      -6.238  14.983  69.246  1.00  0.00    -0.111 A  
BRANCH   4  13
HETATM   13  O   UNL     1     -11.248  16.391  65.780  1.00  0.00     0.026 OA 
BRANCH  13  14
HETATM   14  C   UNL     1     -11.068  15.903  64.438  1.00  0.00    -0.148 C  
BRANCH  14  15
HETATM   15  C   UNL     1     -12.174  14.880  64.180  1.00  0.00    -0.280 C  
BRANCH  15  16
HETATM   16  C   UNL     1     -12.441  13.923  65.348  1.00  0.00    -0.501 C  
BRANCH  16  17
HETATM   17  N   UNL     1     -12.621  12.506  64.996  1.00  0.00    -0.640 NA 
HETATM   18  C   UNL     1     -11.765  11.637  65.843  1.00  0.00     0.115 C  
HETATM   19  C   UNL     1     -10.272  11.693  65.474  1.00  0.00    -0.260 C  
HETATM   20  C   UNL     1     -12.319  12.185  63.583  1.00  0.00    -0.568 C  
HETATM   21  C   UNL     1     -10.821  12.162  63.227  1.00  0.00    -0.321 C  
HETATM   22  O   UNL     1     -10.070  11.316  64.108  1.00  0.00    -0.265 OA 
ENDBRANCH  16  17
ENDBRANCH  15  16
ENDBRANCH  14  15
ENDBRANCH  13  14
ENDBRANCH   4  13
BRANCH  10  23
HETATM   23  N   UNL     1      -8.819  12.662  68.348  1.00  0.00    -0.309 NA 
HETATM   24  H   UNL     1      -8.525  11.996  67.634  1.00  0.00     0.000 HD 
BRANCH  23  25
HETATM   25  C   UNL     1      -9.933  12.260  69.120  1.00  0.00     0.340 A  
HETATM   26 CL   UNL     1     -11.360   8.762  70.483  1.00  0.00    -0.274 Cl 
HETATM   27  C   UNL     1     -12.233  11.326  70.455  1.00  0.00    -0.383 A  
HETATM   28  C   UNL     1     -11.218  10.439  70.113  1.00  0.00    -0.321 A  
HETATM   29  C   UNL     1     -12.114  12.672  70.149  1.00  0.00    -0.368 A  
HETATM   30  F   UNL     1     -13.347  10.898  71.069  1.00  0.00    -0.375 F  
HETATM   31  C   UNL     1     -10.975  13.130  69.478  1.00  0.00     0.024 A  
HETATM   32  C   UNL     1     -10.076  10.901  69.449  1.00  0.00    -0.116 A  
ENDBRANCH  23  25
ENDBRANCH  10  23
ENDBRANCH   2   3
TORSDOF 8
ENDMDL
MODEL      182
REMARK 921   NORMALIZED FREE ENERGY PREDICTED BY IDOCK:   -4.45 KCAL/MOL
REMARK 922        TOTAL FREE ENERGY PREDICTED BY IDOCK:   -8.16 KCAL/MOL
REMARK 923 INTER-LIGAND FREE ENERGY PREDICTED BY IDOCK:   -6.89 KCAL/MOL
REMARK 924 INTRA-LIGAND FREE ENERGY PREDICTED BY IDOCK:   -1.27 KCAL/MOL
REMARK 927      BINDING AFFINITY PREDICTED BY RF-SCORE:    0.00 PKD
ROOT
HETATM    1  C   UNL     1     -12.817  11.797  63.072  1.00  0.00     0.266 C  
HETATM    2  O   UNL     1     -11.743  12.688  63.366  1.00  0.00    -0.497 OA 
ENDROOT
BRANCH   2   3
HETATM    3  C   UNL     1     -11.385  12.769  64.687  1.00  0.00    -0.321 A  
HETATM    4  C   UNL     1     -10.570  11.769  65.221  1.00  0.00    -0.278 A  
HETATM    5  N   UNL     1     -11.977  14.877  67.579  1.00  0.00    -0.240 NA 
HETATM    6  C   UNL     1     -10.334  11.743  66.600  1.00  0.00    -0.251 A  
HETATM    7  C   UNL     1     -11.524  13.834  66.879  1.00  0.00    -0.347 A  
HETATM    8  C   UNL     1     -10.815  12.773  67.455  1.00  0.00    -0.265 A  
HETATM    9  C   UNL     1     -11.804  13.811  65.522  1.00  0.00    -0.378 A  
HETATM   10  C   UNL     1     -10.661  12.842  68.856  1.00  0.00    -0.123 A  
HETATM   11  N   UNL     1     -11.108  13.901  69.562  1.00  0.00    -0.181 NA 
HETATM   12  C   UNL     1     -11.735  14.865  68.887  1.00  0.00    -0.315 A  
BRANCH   4  13
HETATM   13  O   UNL     1     -10.005  10.731  64.527  1.00  0.00    -0.280 OA 
BRANCH  13  14
HETATM   14  C   UNL     1      -8.827  10.148  65.113  1.00  0.00    -0.183 C  
BRANCH  14  15
HETATM   15  C   UNL     1      -9.210   8.752  65.602  1.00  0.00    -0.244 C  
BRANCH  15  16
HETATM   16  C   UNL     1      -8.140   7.680  65.367  1.00  0.00    -0.128 C  
BRANCH  16  17
HETATM   17  N   UNL     1      -7.145   7.513  66.437  1.00  0.00    -0.069 NA 
HETATM   18  C   UNL     1      -6.205   6.408  66.120  1.00  0.00    -0.038 C  
HETATM   19  C   UNL     1      -6.824   5.007  66.276  1.00  0.00    -0.062 C  
HETATM   20  C   UNL     1      -7.723   7.236  67.771  1.00  0.00    -0.112 C  
HETATM   21  C   UNL     1      -8.273   5.809  67.957  1.00  0.00    -0.104 C  
HETATM   22  O   UNL     1      -7.307   4.809  67.609  1.00  0.00    -0.072 OA 
ENDBRANCH  16  17
ENDBRANCH  15  16
ENDBRANCH  14  15
ENDBRANCH  13  14
ENDBRANCH   4  13
BRANCH  10  23
HETATM   23  N   UNL     1     -10.102  11.745  69.562  1.00  0.00    -0.170 NA 
HETATM   24  H   UNL     1      -9.124  11.857  69.830  1.00  0.00     0.000 HD 
BRANCH  23  25
HETATM   25  C   UNL     1     -10.694  10.521  69.952  1.00  0.00    -0.247 A  
HETATM   26 CL   UNL     1     -13.508   9.415  72.595  1.00  0.00    -0.415 Cl 
HETATM   27  C   UNL     1     -11.778   8.123  70.961  1.00  0.00    -0.274 A  
HETATM   28  C   UNL     1     -12.260   9.348  71.409  1.00  0.00    -0.356 A  
HETATM   29  C   UNL     1     -10.770   8.077  70.011  1.00  0.00    -0.244 A  
HETATM   30  F   UNL     1     -12.262   6.970  71.447  1.00  0.00    -0.319 F  
HETATM   31  C   UNL     1     -10.229   9.270  69.519  1.00  0.00    -0.214 A  
HETATM   32  C   UNL     1     -11.722  10.539  70.910  1.00  0.00    -0.431 A  
ENDBRANCH  23  25
ENDBRANCH  10  23
ENDBRANCH   2   3
TORSDOF 8
ENDMDL
MODEL      183
REMARK 921   NORMALIZED FREE ENERGY PREDICTED BY IDOCK:   -4.42 KCAL/MOL
REMARK 922        TOTAL FREE ENERGY PREDICTED BY IDOCK:   -8.12 KCAL/MOL
REMARK 923 INTER-LIGAND FREE ENERGY PREDICTED BY IDOCK:   -7.14 KCAL/MOL
REMARK 924 INTRA-LIGAND FREE ENERGY PREDICTED BY IDOCK:   -0.97 KCAL/MOL
REMARK 927      BINDING AFFINITY PREDICTED BY RF-SCORE:    0.00 PKD
ROOT
HETATM    1  C   UNL     1     -11.407  14.517  69.573  1.00  0.00    -0.275 C  
HETATM    2  O   UNL     1     -11.924  13.338  68.960  1.00  0.00    -0.310 OA 
ENDROOT
BRANCH   2   3
HETATM    3  C   UNL     1     -11.445  12.153  69.455  1.00  0.00    -0.265 A  
HETATM    4  C   UNL     1     -10.240  11.658  68.955  1.00  0.00    -0.125 A  
HETATM    5  N   UNL     1     -12.403   9.561  71.805  1.00  0.00    -0.382 NA 
HETATM    6  C   UNL     1      -9.823  10.374  69.323  1.00  0.00    -0.243 A  
HETATM    7  C   UNL     1     -11.681  10.173  70.863  1.00  0.00    -0.378 A  
HETATM    8  C   UNL     1     -10.543   9.605  70.279  1.00  0.00    -0.333 A  
HETATM    9  C   UNL     1     -12.116  11.418  70.439  1.00  0.00    -0.473 A  
HETATM   10  C   UNL     1     -10.234   8.297  70.710  1.00  0.00    -0.192 A  
HETATM   11  N   UNL     1     -10.954   7.683  71.670  1.00  0.00    -0.231 NA 
HETATM   12  C   UNL     1     -11.995   8.349  72.173  1.00  0.00    -0.374 A  
BRANCH   4  13
HETATM   13  O   UNL     1      -9.418  12.288  68.057  1.00  0.00    -0.193 OA 
BRANCH  13  14
HETATM   14  C   UNL     1      -8.007  12.061  68.227  1.00  0.00    -0.149 C  
BRANCH  14  15
HETATM   15  C   UNL     1      -7.338  13.433  68.314  1.00  0.00    -0.113 C  
BRANCH  15  16
HETATM   16  C   UNL     1      -8.313  14.616  68.348  1.00  0.00    -0.157 C  
BRANCH  16  17
HETATM   17  N   UNL     1      -8.110  15.651  67.323  1.00  0.00    -0.177 NA 
HETATM   18  C   UNL     1      -8.376  17.004  67.876  1.00  0.00    -0.201 C  
HETATM   19  C   UNL     1      -9.871  17.300  68.090  1.00  0.00    -0.290 C  
HETATM   20  C   UNL     1      -8.952  15.491  66.117  1.00  0.00    -0.294 C  
HETATM   21  C   UNL     1     -10.434  15.862  66.305  1.00  0.00    -0.318 C  
HETATM   22  O   UNL     1     -10.596  17.173  66.862  1.00  0.00    -0.297 OA 
ENDBRANCH  16  17
ENDBRANCH  15  16
ENDBRANCH  14  15
ENDBRANCH  13  14
ENDBRANCH   4  13
BRANCH  10  23
HETATM   23  N   UNL     1      -9.199   7.566  70.069  1.00  0.00    -0.151 NA 
HETATM   24  H   UNL     1      -8.276   7.996  70.113  1.00  0.00     0.000 HD 
BRANCH  23  25
HETATM   25  C   UNL     1      -9.253   6.333  69.379  1.00  0.00    -0.138 A  
HETATM   26 CL   UNL     1     -10.380   5.153  65.709  1.00  0.00    -0.137 Cl 
HETATM   27  C   UNL     1      -9.615   3.908  67.989  1.00  0.00    -0.129 A  
HETATM   28  C   UNL     1      -9.849   5.119  67.348  1.00  0.00    -0.166 A  
HETATM   29  C   UNL     1      -9.194   3.888  69.309  1.00  0.00    -0.224 A  
HETATM   30  F   UNL     1      -9.805   2.741  67.353  1.00  0.00    -0.153 F  
HETATM   31  C   UNL     1      -9.024   5.094  69.998  1.00  0.00    -0.153 A  
HETATM   32  C   UNL     1      -9.672   6.324  68.037  1.00  0.00    -0.122 A  
ENDBRANCH  23  25
ENDBRANCH  10  23
ENDBRANCH   2   3
TORSDOF 8
ENDMDL
MODEL      184
REMARK 921   NORMALIZED FREE ENERGY PREDICTED BY IDOCK:   -4.42 KCAL/MOL
REMARK 922        TOTAL FREE ENERGY PREDICTED BY IDOCK:   -8.11 KCAL/MOL
REMARK 923 INTER-LIGAND FREE ENERGY PREDICTED BY IDOCK:   -7.16 KCAL/MOL
REMARK 924 INTRA-LIGAND FREE ENERGY PREDICTED BY IDOCK:   -0.95 KCAL/MOL
REMARK 927      BINDING AFFINITY PREDICTED BY RF-SCORE:    0.00 PKD
ROOT
HETATM    1  C   UNL     1     -11.904  15.784  64.006  1.00  0.00     0.115 C  
HETATM    2  O   UNL     1     -10.905  15.430  64.959  1.00  0.00    -0.399 OA 
ENDROOT
BRANCH   2   3
HETATM    3  C   UNL     1     -10.868  14.107  65.316  1.00  0.00    -0.349 A  
HETATM    4  C   UNL     1     -11.492  13.716  66.501  1.00  0.00    -0.335 A  
HETATM    5  N   UNL     1      -9.472  10.973  64.138  1.00  0.00    -0.235 NA 
HETATM    6  C   UNL     1     -11.322  12.408  66.966  1.00  0.00    -0.388 A  
HETATM    7  C   UNL     1     -10.106  11.815  64.956  1.00  0.00    -0.263 A  
HETATM    8  C   UNL     1     -10.617  11.435  66.203  1.00  0.00    -0.316 A  
HETATM    9  C   UNL     1     -10.228  13.132  64.542  1.00  0.00    -0.333 A  
HETATM   10  C   UNL     1     -10.362  10.098  66.576  1.00  0.00    -0.202 A  
HETATM   11  N   UNL     1      -9.732   9.243  65.744  1.00  0.00    -0.286 NA 
HETATM   12  C   UNL     1      -9.328   9.722  64.567  1.00  0.00    -0.235 A  
BRANCH   4  13
HETATM   13  O   UNL     1     -12.231  14.522  67.328  1.00  0.00    -0.347 OA 
BRANCH  13  14
HETATM   14  C   UNL     1     -11.551  15.023  68.494  1.00  0.00    -0.326 C  
BRANCH  14  15
HETATM   15  C   UNL     1     -10.946  16.375  68.116  1.00  0.00    -0.339 C  
BRANCH  15  16
HETATM   16  C   UNL     1      -9.458  16.326  67.750  1.00  0.00    -0.221 C  
BRANCH  16  17
HETATM   17  N   UNL     1      -8.880  17.572  67.223  1.00  0.00    -0.228 NA 
HETATM   18  C   UNL     1      -7.396  17.502  67.205  1.00  0.00    -0.181 C  
HETATM   19  C   UNL     1      -6.756  17.621  68.600  1.00  0.00    -0.217 C  
HETATM   20  C   UNL     1      -9.259  18.787  67.977  1.00  0.00    -0.302 C  
HETATM   21  C   UNL     1      -8.560  18.952  69.339  1.00  0.00     0.277 C  
HETATM   22  O   UNL     1      -7.135  18.850  69.230  1.00  0.00    -0.285 OA 
ENDBRANCH  16  17
ENDBRANCH  15  16
ENDBRANCH  14  15
ENDBRANCH  13  14
ENDBRANCH   4  13
BRANCH  10  23
HETATM   23  N   UNL     1     -10.692   9.652  67.883  1.00  0.00    -0.341 NA 
HETATM   24  H   UNL     1     -11.664   9.795  68.155  1.00  0.00     0.000 HD 
BRANCH  23  25
HETATM   25  C   UNL     1      -9.879   9.039  68.864  1.00  0.00    -0.175 A  
HETATM   26 CL   UNL     1      -9.451   5.318  70.312  1.00  0.00    -0.209 Cl 
HETATM   27  C   UNL     1      -8.473   7.762  70.947  1.00  0.00    -0.127 A  
HETATM   28  C   UNL     1      -9.283   7.019  70.095  1.00  0.00    -0.152 A  
HETATM   29  C   UNL     1      -8.347   9.131  70.770  1.00  0.00    -0.248 A  
HETATM   30  F   UNL     1      -7.815   7.178  71.960  1.00  0.00    -0.089 F  
HETATM   31  C   UNL     1      -9.053   9.762  69.740  1.00  0.00    -0.246 A  
HETATM   32  C   UNL     1      -9.983   7.651  69.062  1.00  0.00    -0.181 A  
ENDBRANCH  23  25
ENDBRANCH  10  23
ENDBRANCH   2   3
TORSDOF 8
ENDMDL
MODEL      185
REMARK 921   NORMALIZED FREE ENERGY PREDICTED BY IDOCK:   -4.42 KCAL/MOL
REMARK 922        TOTAL FREE ENERGY PREDICTED BY IDOCK:   -8.11 KCAL/MOL
REMARK 923 INTER-LIGAND FREE ENERGY PREDICTED BY IDOCK:   -7.03 KCAL/MOL
REMARK 924 INTRA-LIGAND FREE ENERGY PREDICTED BY IDOCK:   -1.08 KCAL/MOL
REMARK 927      BINDING AFFINITY PREDICTED BY RF-SCORE:    0.00 PKD
ROOT
HETATM    1  C   UNL     1      -6.417   8.311  67.551  1.00  0.00    -0.058 C  
HETATM    2  O   UNL     1      -7.390   8.980  66.751  1.00  0.00    -0.085 OA 
ENDROOT
BRANCH   2   3
HETATM    3  C   UNL     1      -7.806  10.200  67.219  1.00  0.00    -0.103 A  
HETATM    4  C   UNL     1      -9.074  10.298  67.793  1.00  0.00    -0.134 A  
HETATM    5  N   UNL     1      -6.633  13.627  67.401  1.00  0.00    -0.261 NA 
HETATM    6  C   UNL     1      -9.581  11.560  68.120  1.00  0.00    -0.187 A  
HETATM    7  C   UNL     1      -7.476  12.599  67.522  1.00  0.00    -0.155 A  
HETATM    8  C   UNL     1      -8.792  12.736  67.982  1.00  0.00    -0.195 A  
HETATM    9  C   UNL     1      -7.013  11.351  67.141  1.00  0.00    -0.128 A  
HETATM   10  C   UNL     1      -9.199  14.059  68.256  1.00  0.00    -0.200 A  
HETATM   11  N   UNL     1      -8.344  15.096  68.146  1.00  0.00    -0.143 NA 
HETATM   12  C   UNL     1      -7.106  14.826  67.732  1.00  0.00    -0.174 A  
BRANCH   4  13
HETATM   13  O   UNL     1      -9.940   9.260  68.023  1.00  0.00    -0.166 OA 
BRANCH  13  14
HETATM   14  C   UNL     1     -10.527   8.658  66.854  1.00  0.00    -0.258 C  
BRANCH  14  15
HETATM   15  C   UNL     1     -10.802   7.193  67.192  1.00  0.00    -0.403 C  
BRANCH  15  16
HETATM   16  C   UNL     1      -9.583   6.272  67.068  1.00  0.00    -0.140 C  
BRANCH  16  17
HETATM   17  N   UNL     1      -9.385   5.633  65.758  1.00  0.00    -0.111 NA 
HETATM   18  C   UNL     1      -9.687   4.180  65.826  1.00  0.00    -0.204 C  
HETATM   19  C   UNL     1      -8.608   3.359  66.555  1.00  0.00    -0.115 C  
HETATM   20  C   UNL     1      -8.019   5.777  65.208  1.00  0.00    -0.120 C  
HETATM   21  C   UNL     1      -6.950   4.898  65.882  1.00  0.00    -0.066 C  
HETATM   22  O   UNL     1      -7.333   3.518  65.922  1.00  0.00    -0.073 OA 
ENDBRANCH  16  17
ENDBRANCH  15  16
ENDBRANCH  14  15
ENDBRANCH  13  14
ENDBRANCH   4  13
BRANCH  10  23
HETATM   23  N   UNL     1     -10.556  14.331  68.572  1.00  0.00    -0.250 NA 
HETATM   24  H   UNL     1     -11.198  14.301  67.781  1.00  0.00     0.000 HD 
BRANCH  23  25
HETATM   25  C   UNL     1     -11.153  14.636  69.817  1.00  0.00    -0.234 A  
HETATM   26 CL   UNL     1     -13.777  12.820  72.256  1.00  0.00    -0.586 Cl 
HETATM   27  C   UNL     1     -12.569  15.243  72.178  1.00  0.00    -0.351 A  
HETATM   28  C   UNL     1     -12.717  13.997  71.578  1.00  0.00    -0.363 A  
HETATM   29  C   UNL     1     -11.720  16.187  71.623  1.00  0.00    -0.558 A  
HETATM   30  F   UNL     1     -13.253  15.561  73.288  1.00  0.00    -0.477 F  
HETATM   31  C   UNL     1     -11.025  15.885  70.446  1.00  0.00    -0.361 A  
HETATM   32  C   UNL     1     -12.016  13.695  70.405  1.00  0.00    -0.372 A  
ENDBRANCH  23  25
ENDBRANCH  10  23
ENDBRANCH   2   3
TORSDOF 8
ENDMDL
MODEL      186
REMARK 921   NORMALIZED FREE ENERGY PREDICTED BY IDOCK:   -4.41 KCAL/MOL
REMARK 922        TOTAL FREE ENERGY PREDICTED BY IDOCK:   -8.11 KCAL/MOL
REMARK 923 INTER-LIGAND FREE ENERGY PREDICTED BY IDOCK:   -7.11 KCAL/MOL
REMARK 924 INTRA-LIGAND FREE ENERGY PREDICTED BY IDOCK:   -0.99 KCAL/MOL
REMARK 927      BINDING AFFINITY PREDICTED BY RF-SCORE:    0.00 PKD
ROOT
HETATM    1  C   UNL     1     -10.423  20.384  69.351  1.00  0.00     0.412 C  
HETATM    2  O   UNL     1     -10.687  19.656  68.153  1.00  0.00    -0.358 OA 
ENDROOT
BRANCH   2   3
HETATM    3  C   UNL     1      -9.610  19.013  67.600  1.00  0.00    -0.309 A  
HETATM    4  C   UNL     1      -9.322  17.713  68.017  1.00  0.00    -0.274 A  
HETATM    5  N   UNL     1      -6.929  19.655  65.243  1.00  0.00    -0.392 NA 
HETATM    6  C   UNL     1      -8.135  17.105  67.593  1.00  0.00    -0.187 A  
HETATM    7  C   UNL     1      -7.641  18.993  66.158  1.00  0.00    -0.266 A  
HETATM    8  C   UNL     1      -7.268  17.740  66.660  1.00  0.00    -0.256 A  
HETATM    9  C   UNL     1      -8.786  19.607  66.638  1.00  0.00    -0.392 A  
HETATM   10  C   UNL     1      -6.040  17.239  66.179  1.00  0.00    -0.070 A  
HETATM   11  N   UNL     1      -5.326  17.902  65.246  1.00  0.00    -0.079 NA 
HETATM   12  C   UNL     1      -5.811  19.069  64.821  1.00  0.00    -0.282 A  
BRANCH   4  13
HETATM   13  O   UNL     1     -10.071  16.957  68.882  1.00  0.00    -0.265 OA 
BRANCH  13  14
HETATM   14  C   UNL     1     -11.166  16.229  68.297  1.00  0.00    -0.324 C  
BRANCH  14  15
HETATM   15  C   UNL     1     -10.854  14.741  68.456  1.00  0.00    -0.255 C  
BRANCH  15  16
HETATM   16  C   UNL     1     -11.464  13.844  67.373  1.00  0.00    -0.348 C  
BRANCH  16  17
HETATM   17  N   UNL     1     -11.710  14.480  66.069  1.00  0.00    -0.362 NA 
HETATM   18  C   UNL     1     -12.824  13.808  65.353  1.00  0.00    -0.410 C  
HETATM   19  C   UNL     1     -12.445  12.432  64.776  1.00  0.00    -0.401 C  
HETATM   20  C   UNL     1     -10.540  14.488  65.163  1.00  0.00    -0.410 C  
HETATM   21  C   UNL     1     -10.205  13.130  64.522  1.00  0.00    -0.311 C  
HETATM   22  O   UNL     1     -11.341  12.545  63.872  1.00  0.00    -0.370 OA 
ENDBRANCH  16  17
ENDBRANCH  15  16
ENDBRANCH  14  15
ENDBRANCH  13  14
ENDBRANCH   4  13
BRANCH  10  23
HETATM   23  N   UNL     1      -5.488  16.058  66.740  1.00  0.00    -0.148 NA 
HETATM   24  H   UNL     1      -5.088  15.406  66.066  1.00  0.00     0.000 HD 
BRANCH  23  25
HETATM   25  C   UNL     1      -5.409  15.647  68.090  1.00  0.00    -0.117 A  
HETATM   26 CL   UNL     1      -6.177  12.256  70.101  1.00  0.00    -0.105 Cl 
HETATM   27  C   UNL     1      -5.504  14.791  70.775  1.00  0.00    -0.146 A  
HETATM   28  C   UNL     1      -5.770  13.892  69.747  1.00  0.00    -0.110 A  
HETATM   29  C   UNL     1      -5.183  16.107  70.482  1.00  0.00    -0.183 A  
HETATM   30  F   UNL     1      -5.569  14.410  72.060  1.00  0.00    -0.166 F  
HETATM   31  C   UNL     1      -5.146  16.530  69.149  1.00  0.00    -0.122 A  
HETATM   32  C   UNL     1      -5.725  14.316  68.414  1.00  0.00    -0.106 A  
ENDBRANCH  23  25
ENDBRANCH  10  23
ENDBRANCH   2   3
TORSDOF 8
ENDMDL
MODEL      187
REMARK 921   NORMALIZED FREE ENERGY PREDICTED BY IDOCK:   -4.40 KCAL/MOL
REMARK 922        TOTAL FREE ENERGY PREDICTED BY IDOCK:   -8.09 KCAL/MOL
REMARK 923 INTER-LIGAND FREE ENERGY PREDICTED BY IDOCK:   -6.51 KCAL/MOL
REMARK 924 INTRA-LIGAND FREE ENERGY PREDICTED BY IDOCK:   -1.59 KCAL/MOL
REMARK 927      BINDING AFFINITY PREDICTED BY RF-SCORE:    0.00 PKD
ROOT
HETATM    1  C   UNL     1      -5.414  16.227  70.553  1.00  0.00    -0.144 C  
HETATM    2  O   UNL     1      -5.766  15.857  69.221  1.00  0.00    -0.111 OA 
ENDROOT
BRANCH   2   3
HETATM    3  C   UNL     1      -7.012  15.307  69.068  1.00  0.00    -0.136 A  
HETATM    4  C   UNL     1      -7.115  13.928  68.882  1.00  0.00    -0.110 A  
HETATM    5  N   UNL     1     -10.481  16.350  68.876  1.00  0.00    -0.264 NA 
HETATM    6  C   UNL     1      -8.358  13.372  68.556  1.00  0.00    -0.085 A  
HETATM    7  C   UNL     1      -9.432  15.525  68.833  1.00  0.00    -0.223 A  
HETATM    8  C   UNL     1      -9.538  14.166  68.518  1.00  0.00    -0.214 A  
HETATM    9  C   UNL     1      -8.185  16.071  69.088  1.00  0.00    -0.241 A  
HETATM   10  C   UNL     1     -10.836  13.724  68.182  1.00  0.00    -0.246 A  
HETATM   11  N   UNL     1     -11.898  14.554  68.237  1.00  0.00    -0.326 NA 
HETATM   12  C   UNL     1     -11.667  15.820  68.588  1.00  0.00    -0.344 A  
BRANCH   4  13
HETATM   13  O   UNL     1      -6.082  13.028  68.920  1.00  0.00    -0.074 OA 
BRANCH  13  14
HETATM   14  C   UNL     1      -6.035  12.171  70.075  1.00  0.00    -0.156 C  
BRANCH  14  15
HETATM   15  C   UNL     1      -5.429  10.842  69.626  1.00  0.00    -0.039 C  
BRANCH  15  16
HETATM   16  C   UNL     1      -6.199   9.601  70.094  1.00  0.00    -0.064 C  
BRANCH  16  17
HETATM   17  N   UNL     1      -7.551   9.840  70.622  1.00  0.00    -0.297 NA 
HETATM   18  C   UNL     1      -7.914   8.816  71.634  1.00  0.00    -0.085 C  
HETATM   19  C   UNL     1      -8.234   7.437  71.029  1.00  0.00    -0.110 C  
HETATM   20  C   UNL     1      -8.616   9.846  69.594  1.00  0.00    -0.194 C  
HETATM   21  C   UNL     1      -8.995   8.459  69.043  1.00  0.00    -0.147 C  
HETATM   22  O   UNL     1      -9.309   7.530  70.088  1.00  0.00    -0.158 OA 
ENDBRANCH  16  17
ENDBRANCH  15  16
ENDBRANCH  14  15
ENDBRANCH  13  14
ENDBRANCH   4  13
BRANCH  10  23
HETATM   23  N   UNL     1     -11.032  12.407  67.692  1.00  0.00    -0.227 NA 
HETATM   24  H   UNL     1     -11.384  11.739  68.378  1.00  0.00     0.000 HD 
BRANCH  23  25
HETATM   25  C   UNL     1     -10.813  11.878  66.399  1.00  0.00    -0.279 A  
HETATM   26 CL   UNL     1      -8.805   8.746  64.888  1.00  0.00    -0.167 Cl 
HETATM   27  C   UNL     1     -10.128  10.872  63.857  1.00  0.00    -0.361 A  
HETATM   28  C   UNL     1      -9.732  10.193  65.004  1.00  0.00    -0.318 A  
HETATM   29  C   UNL     1     -10.868  12.039  63.958  1.00  0.00    -0.433 A  
HETATM   30  F   UNL     1      -9.791  10.423  62.638  1.00  0.00    -0.323 F  
HETATM   31  C   UNL     1     -11.199  12.540  65.222  1.00  0.00    -0.341 A  
HETATM   32  C   UNL     1     -10.069  10.693  66.267  1.00  0.00    -0.291 A  
ENDBRANCH  23  25
ENDBRANCH  10  23
ENDBRANCH   2   3
TORSDOF 8
ENDMDL
MODEL      188
REMARK 921   NORMALIZED FREE ENERGY PREDICTED BY IDOCK:   -4.39 KCAL/MOL
REMARK 922        TOTAL FREE ENERGY PREDICTED BY IDOCK:   -8.07 KCAL/MOL
REMARK 923 INTER-LIGAND FREE ENERGY PREDICTED BY IDOCK:   -6.77 KCAL/MOL
REMARK 924 INTRA-LIGAND FREE ENERGY PREDICTED BY IDOCK:   -1.30 KCAL/MOL
REMARK 927      BINDING AFFINITY PREDICTED BY RF-SCORE:    0.00 PKD
ROOT
HETATM    1  C   UNL     1      -5.742   4.936  68.381  1.00  0.00    -0.017 C  
HETATM    2  O   UNL     1      -7.041   5.516  68.278  1.00  0.00    -0.063 OA 
ENDROOT
BRANCH   2   3
HETATM    3  C   UNL     1      -7.172   6.518  67.352  1.00  0.00    -0.085 A  
HETATM    4  C   UNL     1      -7.117   7.843  67.788  1.00  0.00    -0.086 A  
HETATM    5  N   UNL     1      -7.765   6.924  63.796  1.00  0.00    -0.115 NA 
HETATM    6  C   UNL     1      -7.416   8.872  66.889  1.00  0.00    -0.083 A  
HETATM    7  C   UNL     1      -7.595   7.281  65.072  1.00  0.00    -0.107 A  
HETATM    8  C   UNL     1      -7.669   8.607  65.514  1.00  0.00    -0.092 A  
HETATM    9  C   UNL     1      -7.362   6.268  65.988  1.00  0.00    -0.080 A  
HETATM   10  C   UNL     1      -8.002   9.555  64.522  1.00  0.00    -0.133 A  
HETATM   11  N   UNL     1      -8.162   9.197  63.232  1.00  0.00    -0.167 NA 
HETATM   12  C   UNL     1      -8.027   7.904  62.935  1.00  0.00    -0.145 A  
BRANCH   4  13
HETATM   13  O   UNL     1      -6.855   8.262  69.067  1.00  0.00    -0.054 OA 
BRANCH  13  14
HETATM   14  C   UNL     1      -7.802   9.187  69.633  1.00  0.00    -0.084 C  
BRANCH  14  15
HETATM   15  C   UNL     1      -8.455   8.489  70.826  1.00  0.00    -0.166 C  
BRANCH  15  16
HETATM   16  C   UNL     1      -9.759   9.137  71.306  1.00  0.00    -0.281 C  
BRANCH  16  17
HETATM   17  N   UNL     1     -10.923   8.982  70.419  1.00  0.00    -0.241 NA 
HETATM   18  C   UNL     1     -12.165   9.443  71.091  1.00  0.00    -0.323 C  
HETATM   19  C   UNL     1     -12.676   8.476  72.174  1.00  0.00    -0.373 C  
HETATM   20  C   UNL     1     -11.156   7.597  69.954  1.00  0.00    -0.150 C  
HETATM   21  C   UNL     1     -11.742   6.645  71.012  1.00  0.00    -0.360 C  
HETATM   22  O   UNL     1     -12.925   7.178  71.622  1.00  0.00    -0.365 OA 
ENDBRANCH  16  17
ENDBRANCH  15  16
ENDBRANCH  14  15
ENDBRANCH  13  14
ENDBRANCH   4  13
BRANCH  10  23
HETATM   23  N   UNL     1      -8.262  10.901  64.889  1.00  0.00    -0.370 NA 
HETATM   24  H   UNL     1      -7.436  11.492  64.977  1.00  0.00     0.000 HD 
BRANCH  23  25
HETATM   25  C   UNL     1      -9.492  11.548  65.150  1.00  0.00    -0.168 A  
HETATM   26 CL   UNL     1     -12.982  11.958  63.206  1.00  0.00    -0.436 Cl 
HETATM   27  C   UNL     1     -11.897  12.983  65.466  1.00  0.00    -0.395 A  
HETATM   28  C   UNL     1     -11.732  12.132  64.379  1.00  0.00    -0.355 A  
HETATM   29  C   UNL     1     -10.885  13.123  66.402  1.00  0.00    -0.299 A  
HETATM   30  F   UNL     1     -13.024  13.695  65.621  1.00  0.00    -0.509 F  
HETATM   31  C   UNL     1      -9.689  12.415  66.237  1.00  0.00    -0.253 A  
HETATM   32  C   UNL     1     -10.538  11.420  64.220  1.00  0.00    -0.416 A  
ENDBRANCH  23  25
ENDBRANCH  10  23
ENDBRANCH   2   3
TORSDOF 8
ENDMDL
MODEL      189
REMARK 921   NORMALIZED FREE ENERGY PREDICTED BY IDOCK:   -4.38 KCAL/MOL
REMARK 922        TOTAL FREE ENERGY PREDICTED BY IDOCK:   -8.06 KCAL/MOL
REMARK 923 INTER-LIGAND FREE ENERGY PREDICTED BY IDOCK:   -7.42 KCAL/MOL
REMARK 924 INTRA-LIGAND FREE ENERGY PREDICTED BY IDOCK:   -0.65 KCAL/MOL
REMARK 927      BINDING AFFINITY PREDICTED BY RF-SCORE:    0.00 PKD
ROOT
HETATM    1  C   UNL     1      -9.905   3.790  64.871  1.00  0.00    -0.183 C  
HETATM    2  O   UNL     1      -9.923   4.463  66.128  1.00  0.00    -0.210 OA 
ENDROOT
BRANCH   2   3
HETATM    3  C   UNL     1      -9.519   5.773  66.106  1.00  0.00    -0.124 A  
HETATM    4  C   UNL     1     -10.236   6.706  66.856  1.00  0.00    -0.220 A  
HETATM    5  N   UNL     1      -7.008   7.856  64.519  1.00  0.00    -0.069 NA 
HETATM    6  C   UNL     1      -9.945   8.067  66.714  1.00  0.00    -0.344 A  
HETATM    7  C   UNL     1      -8.076   7.551  65.261  1.00  0.00    -0.130 A  
HETATM    8  C   UNL     1      -8.862   8.514  65.905  1.00  0.00    -0.219 A  
HETATM    9  C   UNL     1      -8.419   6.213  65.361  1.00  0.00    -0.138 A  
HETATM   10  C   UNL     1      -8.488   9.854  65.668  1.00  0.00    -0.144 A  
HETATM   11  N   UNL     1      -7.403  10.162  64.929  1.00  0.00    -0.140 NA 
HETATM   12  C   UNL     1      -6.716   9.148  64.401  1.00  0.00    -0.083 A  
BRANCH   4  13
HETATM   13  O   UNL     1     -11.279   6.433  67.702  1.00  0.00    -0.337 OA 
BRANCH  13  14
HETATM   14  C   UNL     1     -10.922   5.916  68.997  1.00  0.00    -0.289 C  
BRANCH  14  15
HETATM   15  C   UNL     1     -11.615   6.793  70.039  1.00  0.00    -0.367 C  
BRANCH  15  16
HETATM   16  C   UNL     1     -11.378   6.362  71.491  1.00  0.00    -0.294 C  
BRANCH  16  17
HETATM   17  N   UNL     1      -9.976   6.149  71.883  1.00  0.00    -0.164 NA 
HETATM   18  C   UNL     1      -9.556   4.751  71.611  1.00  0.00    -0.158 C  
HETATM   19  C   UNL     1     -10.142   3.727  72.601  1.00  0.00    -0.163 C  
HETATM   20  C   UNL     1      -9.691   6.430  73.308  1.00  0.00    -0.163 C  
HETATM   21  C   UNL     1     -10.206   5.368  74.296  1.00  0.00    -0.272 C  
HETATM   22  O   UNL     1      -9.771   4.048  73.945  1.00  0.00    -0.111 OA 
ENDBRANCH  16  17
ENDBRANCH  15  16
ENDBRANCH  14  15
ENDBRANCH  13  14
ENDBRANCH   4  13
BRANCH  10  23
HETATM   23  N   UNL     1      -9.309  10.913  66.138  1.00  0.00    -0.180 NA 
HETATM   24  H   UNL     1      -9.344  11.014  67.152  1.00  0.00     0.000 HD 
BRANCH  23  25
HETATM   25  C   UNL     1     -10.086  11.847  65.415  1.00  0.00    -0.253 A  
HETATM   26 CL   UNL     1     -11.132  15.693  65.912  1.00  0.00    -0.221 Cl 
HETATM   27  C   UNL     1     -11.790  13.721  64.177  1.00  0.00    -0.401 A  
HETATM   28  C   UNL     1     -11.029  14.094  65.280  1.00  0.00    -0.337 A  
HETATM   29  C   UNL     1     -11.706  12.431  63.678  1.00  0.00    -0.596 A  
HETATM   30  F   UNL     1     -12.626  14.589  63.588  1.00  0.00    -0.389 F  
HETATM   31  C   UNL     1     -10.866  11.501  64.300  1.00  0.00    -0.421 A  
HETATM   32  C   UNL     1     -10.184  13.165  65.897  1.00  0.00    -0.294 A  
ENDBRANCH  23  25
ENDBRANCH  10  23
ENDBRANCH   2   3
TORSDOF 8
ENDMDL
MODEL      190
REMARK 921   NORMALIZED FREE ENERGY PREDICTED BY IDOCK:   -4.31 KCAL/MOL
REMARK 922        TOTAL FREE ENERGY PREDICTED BY IDOCK:   -7.95 KCAL/MOL
REMARK 923 INTER-LIGAND FREE ENERGY PREDICTED BY IDOCK:   -6.95 KCAL/MOL
REMARK 924 INTRA-LIGAND FREE ENERGY PREDICTED BY IDOCK:   -1.00 KCAL/MOL
REMARK 927      BINDING AFFINITY PREDICTED BY RF-SCORE:    0.00 PKD
ROOT
HETATM    1  C   UNL     1      -7.455   7.599  69.142  1.00  0.00    -0.095 C  
HETATM    2  O   UNL     1      -7.720   8.977  68.886  1.00  0.00    -0.091 OA 
ENDROOT
BRANCH   2   3
HETATM    3  C   UNL     1      -7.896   9.312  67.569  1.00  0.00    -0.096 A  
HETATM    4  C   UNL     1      -8.130  10.649  67.245  1.00  0.00    -0.116 A  
HETATM    5  N   UNL     1      -8.068   7.713  64.317  1.00  0.00    -0.111 NA 
HETATM    6  C   UNL     1      -8.479  10.985  65.932  1.00  0.00    -0.140 A  
HETATM    7  C   UNL     1      -8.135   8.696  65.218  1.00  0.00    -0.136 A  
HETATM    8  C   UNL     1      -8.495  10.009  64.896  1.00  0.00    -0.173 A  
HETATM    9  C   UNL     1      -7.856   8.369  66.535  1.00  0.00    -0.092 A  
HETATM   10  C   UNL     1      -8.851  10.223  63.547  1.00  0.00    -0.223 A  
HETATM   11  N   UNL     1      -8.773   9.234  62.634  1.00  0.00    -0.228 NA 
HETATM   12  C   UNL     1      -8.378   8.034  63.064  1.00  0.00    -0.004 A  
BRANCH   4  13
HETATM   13  O   UNL     1      -8.118  11.706  68.118  1.00  0.00    -0.132 OA 
BRANCH  13  14
HETATM   14  C   UNL     1      -8.169  13.016  67.524  1.00  0.00    -0.181 C  
BRANCH  14  15
HETATM   15  C   UNL     1      -8.153  14.030  68.667  1.00  0.00    -0.113 C  
BRANCH  15  16
HETATM   16  C   UNL     1      -8.396  15.481  68.233  1.00  0.00    -0.147 C  
BRANCH  16  17
HETATM   17  N   UNL     1      -7.818  16.521  69.098  1.00  0.00    -0.226 NA 
HETATM   18  C   UNL     1      -8.158  17.877  68.597  1.00  0.00    -0.278 C  
HETATM   19  C   UNL     1      -7.374  18.283  67.336  1.00  0.00    -0.212 C  
HETATM   20  C   UNL     1      -6.346  16.453  69.235  1.00  0.00    -0.186 C  
HETATM   21  C   UNL     1      -5.556  16.933  68.004  1.00  0.00    -0.121 C  
HETATM   22  O   UNL     1      -5.963  18.240  67.577  1.00  0.00    -0.159 OA 
ENDBRANCH  16  17
ENDBRANCH  15  16
ENDBRANCH  14  15
ENDBRANCH  13  14
ENDBRANCH   4  13
BRANCH  10  23
HETATM   23  N   UNL     1      -9.386  11.474  63.145  1.00  0.00    -0.527 NA 
HETATM   24  H   UNL     1      -8.919  11.908  62.349  1.00  0.00     0.000 HD 
BRANCH  23  25
HETATM   25  C   UNL     1     -10.468  12.212  63.679  1.00  0.00    -0.460 A  
HETATM   26 CL   UNL     1     -10.851  15.583  65.828  1.00  0.00    -0.341 Cl 
HETATM   27  C   UNL     1     -12.527  13.634  64.976  1.00  0.00    -0.414 A  
HETATM   28  C   UNL     1     -11.225  14.121  64.996  1.00  0.00    -0.356 A  
HETATM   29  C   UNL     1     -12.819  12.454  64.311  1.00  0.00    -0.356 A  
HETATM   30  F   UNL     1     -13.518  14.283  65.608  1.00  0.00    -0.474 F  
HETATM   31  C   UNL     1     -11.793  11.747  63.676  1.00  0.00    -0.498 A  
HETATM   32  C   UNL     1     -10.201  13.415  64.355  1.00  0.00    -0.262 A  
ENDBRANCH  23  25
ENDBRANCH  10  23
ENDBRANCH   2   3
TORSDOF 8
ENDMDL
MODEL      191
REMARK 921   NORMALIZED FREE ENERGY PREDICTED BY IDOCK:   -4.30 KCAL/MOL
REMARK 922        TOTAL FREE ENERGY PREDICTED BY IDOCK:   -7.94 KCAL/MOL
REMARK 923 INTER-LIGAND FREE ENERGY PREDICTED BY IDOCK:   -6.94 KCAL/MOL
REMARK 924 INTRA-LIGAND FREE ENERGY PREDICTED BY IDOCK:   -1.00 KCAL/MOL
REMARK 927      BINDING AFFINITY PREDICTED BY RF-SCORE:    0.00 PKD
ROOT
HETATM    1  C   UNL     1      -6.252   9.047  66.012  1.00  0.00    -0.059 C  
HETATM    2  O   UNL     1      -7.388   8.320  66.475  1.00  0.00    -0.079 OA 
ENDROOT
BRANCH   2   3
HETATM    3  C   UNL     1      -8.399   9.076  67.009  1.00  0.00    -0.116 A  
HETATM    4  C   UNL     1      -8.916  10.129  66.252  1.00  0.00    -0.148 A  
HETATM    5  N   UNL     1     -10.314   9.347  70.077  1.00  0.00    -0.216 NA 
HETATM    6  C   UNL     1      -9.826  11.014  66.843  1.00  0.00    -0.222 A  
HETATM    7  C   UNL     1      -9.881   9.669  68.856  1.00  0.00    -0.174 A  
HETATM    8  C   UNL     1     -10.318  10.802  68.161  1.00  0.00    -0.197 A  
HETATM    9  C   UNL     1      -8.931   8.840  68.282  1.00  0.00    -0.141 A  
HETATM   10  C   UNL     1     -11.214  11.633  68.866  1.00  0.00    -0.246 A  
HETATM   11  N   UNL     1     -11.662  11.303  70.095  1.00  0.00    -0.333 NA 
HETATM   12  C   UNL     1     -11.196  10.175  70.632  1.00  0.00    -0.340 A  
BRANCH   4  13
HETATM   13  O   UNL     1      -8.571  10.444  64.964  1.00  0.00    -0.171 OA 
BRANCH  13  14
HETATM   14  C   UNL     1      -9.545  10.121  63.954  1.00  0.00    -0.239 C  
BRANCH  14  15
HETATM   15  C   UNL     1      -9.579  11.292  62.971  1.00  0.00    -0.397 C  
BRANCH  15  16
HETATM   16  C   UNL     1     -10.289  12.544  63.499  1.00  0.00    -0.274 C  
BRANCH  16  17
HETATM   17  N   UNL     1     -11.723  12.654  63.190  1.00  0.00    -0.372 NA 
HETATM   18  C   UNL     1     -12.139  14.076  63.103  1.00  0.00     0.653 C  
HETATM   19  C   UNL     1     -12.230  14.778  64.470  1.00  0.00    -0.428 C  
HETATM   20  C   UNL     1     -12.611  11.989  64.170  1.00  0.00    -0.308 C  
HETATM   21  C   UNL     1     -12.767  12.729  65.511  1.00  0.00    -0.047 C  
HETATM   22  O   UNL     1     -13.150  14.098  65.331  1.00  0.00    -0.743 OA 
ENDBRANCH  16  17
ENDBRANCH  15  16
ENDBRANCH  14  15
ENDBRANCH  13  14
ENDBRANCH   4  13
BRANCH  10  23
HETATM   23  N   UNL     1     -11.595  12.888  68.322  1.00  0.00    -0.313 NA 
HETATM   24  H   UNL     1     -12.464  12.880  67.787  1.00  0.00     0.000 HD 
BRANCH  23  25
HETATM   25  C   UNL     1     -10.955  14.145  68.407  1.00  0.00    -0.254 A  
HETATM   26 CL   UNL     1      -7.325  15.438  69.540  1.00  0.00    -0.209 Cl 
HETATM   27  C   UNL     1      -9.659  16.613  68.830  1.00  0.00    -0.254 A  
HETATM   28  C   UNL     1      -8.968  15.422  69.023  1.00  0.00    -0.230 A  
HETATM   29  C   UNL     1     -10.983  16.591  68.421  1.00  0.00    -0.348 A  
HETATM   30  F   UNL     1      -9.069  17.798  69.050  1.00  0.00    -0.257 F  
HETATM   31  C   UNL     1     -11.625  15.365  68.220  1.00  0.00    -0.361 A  
HETATM   32  C   UNL     1      -9.611  14.196  68.816  1.00  0.00    -0.122 A  
ENDBRANCH  23  25
ENDBRANCH  10  23
ENDBRANCH   2   3
TORSDOF 8
ENDMDL
MODEL      192
REMARK 921   NORMALIZED FREE ENERGY PREDICTED BY IDOCK:   -4.29 KCAL/MOL
REMARK 922        TOTAL FREE ENERGY PREDICTED BY IDOCK:   -7.93 KCAL/MOL
REMARK 923 INTER-LIGAND FREE ENERGY PREDICTED BY IDOCK:   -6.48 KCAL/MOL
REMARK 924 INTRA-LIGAND FREE ENERGY PREDICTED BY IDOCK:   -1.44 KCAL/MOL
REMARK 927      BINDING AFFINITY PREDICTED BY RF-SCORE:    0.00 PKD
ROOT
HETATM    1  C   UNL     1     -11.116  16.134  70.204  1.00  0.00    -0.371 C  
HETATM    2  O   UNL     1     -10.016  16.570  69.408  1.00  0.00    -0.245 OA 
ENDROOT
BRANCH   2   3
HETATM    3  C   UNL     1      -9.320  15.579  68.766  1.00  0.00    -0.209 A  
HETATM    4  C   UNL     1      -9.762  15.157  67.511  1.00  0.00    -0.205 A  
HETATM    5  N   UNL     1      -6.476  13.399  69.330  1.00  0.00    -0.110 NA 
HETATM    6  C   UNL     1      -9.169  14.037  66.917  1.00  0.00    -0.271 A  
HETATM    7  C   UNL     1      -7.547  13.902  68.711  1.00  0.00    -0.108 A  
HETATM    8  C   UNL     1      -8.054  13.384  67.513  1.00  0.00    -0.183 A  
HETATM    9  C   UNL     1      -8.186  14.971  69.317  1.00  0.00    -0.165 A  
HETATM   10  C   UNL     1      -7.391  12.239  67.023  1.00  0.00    -0.050 A  
HETATM   11  N   UNL     1      -6.302  11.738  67.641  1.00  0.00    -0.072 NA 
HETATM   12  C   UNL     1      -5.897  12.347  68.756  1.00  0.00    -0.063 A  
BRANCH   4  13
HETATM   13  O   UNL     1     -10.796  15.701  66.794  1.00  0.00    -0.317 OA 
BRANCH  13  14
HETATM   14  C   UNL     1     -10.428  16.651  65.777  1.00  0.00    -0.311 C  
BRANCH  14  15
HETATM   15  C   UNL     1     -10.586  18.044  66.385  1.00  0.00    -0.259 C  
BRANCH  15  16
HETATM   16  C   UNL     1      -9.317  18.905  66.341  1.00  0.00    -0.328 C  
BRANCH  16  17
HETATM   17  N   UNL     1      -8.075  18.248  66.775  1.00  0.00    -0.242 NA 
HETATM   18  C   UNL     1      -7.580  18.838  68.045  1.00  0.00    -0.261 C  
HETATM   19  C   UNL     1      -6.956  20.235  67.875  1.00  0.00    -0.290 C  
HETATM   20  C   UNL     1      -6.971  18.319  65.792  1.00  0.00    -0.249 C  
HETATM   21  C   UNL     1      -6.291  19.696  65.676  1.00  0.00    -0.221 C  
HETATM   22  O   UNL     1      -5.865  20.197  66.949  1.00  0.00    -0.170 OA 
ENDBRANCH  16  17
ENDBRANCH  15  16
ENDBRANCH  14  15
ENDBRANCH  13  14
ENDBRANCH   4  13
BRANCH  10  23
HETATM   23  N   UNL     1      -7.918  11.538  65.907  1.00  0.00    -0.361 NA 
HETATM   24  H   UNL     1      -8.196  12.125  65.121  1.00  0.00     0.000 HD 
BRANCH  23  25
HETATM   25  C   UNL     1      -8.117  10.151  65.719  1.00  0.00    -0.142 A  
HETATM   26 CL   UNL     1     -10.781   7.438  67.013  1.00  0.00    -0.426 Cl 
HETATM   27  C   UNL     1      -8.475   7.358  65.595  1.00  0.00    -0.130 A  
HETATM   28  C   UNL     1      -9.409   8.151  66.252  1.00  0.00    -0.196 A  
HETATM   29  C   UNL     1      -7.371   7.938  64.991  1.00  0.00    -0.072 A  
HETATM   30  F   UNL     1      -8.614   6.024  65.545  1.00  0.00    -0.141 F  
HETATM   31  C   UNL     1      -7.192   9.323  65.062  1.00  0.00    -0.098 A  
HETATM   32  C   UNL     1      -9.231   9.538  66.317  1.00  0.00    -0.219 A  
ENDBRANCH  23  25
ENDBRANCH  10  23
ENDBRANCH   2   3
TORSDOF 8
ENDMDL
MODEL      193
REMARK 921   NORMALIZED FREE ENERGY PREDICTED BY IDOCK:   -4.28 KCAL/MOL
REMARK 922        TOTAL FREE ENERGY PREDICTED BY IDOCK:   -7.91 KCAL/MOL
REMARK 923 INTER-LIGAND FREE ENERGY PREDICTED BY IDOCK:   -6.66 KCAL/MOL
REMARK 924 INTRA-LIGAND FREE ENERGY PREDICTED BY IDOCK:   -1.25 KCAL/MOL
REMARK 927      BINDING AFFINITY PREDICTED BY RF-SCORE:    0.00 PKD
ROOT
HETATM    1  C   UNL     1      -5.690  14.066  70.888  1.00  0.00    -0.207 C  
HETATM    2  O   UNL     1      -5.418  14.660  69.620  1.00  0.00    -0.092 OA 
ENDROOT
BRANCH   2   3
HETATM    3  C   UNL     1      -6.513  15.108  68.927  1.00  0.00    -0.098 A  
HETATM    4  C   UNL     1      -7.073  14.279  67.954  1.00  0.00    -0.160 A  
HETATM    5  N   UNL     1      -8.605  18.062  68.687  1.00  0.00    -0.293 NA 
HETATM    6  C   UNL     1      -8.080  14.782  67.123  1.00  0.00    -0.226 A  
HETATM    7  C   UNL     1      -8.134  16.850  68.383  1.00  0.00    -0.237 A  
HETATM    8  C   UNL     1      -8.623  16.082  67.319  1.00  0.00    -0.205 A  
HETATM    9  C   UNL     1      -7.092  16.362  69.154  1.00  0.00    -0.224 A  
HETATM   10  C   UNL     1      -9.620  16.703  66.536  1.00  0.00    -0.273 A  
HETATM   11  N   UNL     1     -10.104  17.922  66.851  1.00  0.00    -0.332 NA 
HETATM   12  C   UNL     1      -9.578  18.533  67.913  1.00  0.00    -0.300 A  
BRANCH   4  13
HETATM   13  O   UNL     1      -6.686  12.995  67.666  1.00  0.00    -0.130 OA 
BRANCH  13  14
HETATM   14  C   UNL     1      -7.749  12.042  67.485  1.00  0.00    -0.155 C  
BRANCH  14  15
HETATM   15  C   UNL     1      -7.129  10.787  66.871  1.00  0.00    -0.114 C  
BRANCH  15  16
HETATM   16  C   UNL     1      -7.649  10.442  65.470  1.00  0.00    -0.144 C  
BRANCH  16  17
HETATM   17  N   UNL     1      -6.628  10.273  64.424  1.00  0.00    -0.110 NA 
HETATM   18  C   UNL     1      -7.256  10.176  63.082  1.00  0.00    -0.132 C  
HETATM   19  C   UNL     1      -7.956   8.830  62.823  1.00  0.00    -0.152 C  
HETATM   20  C   UNL     1      -5.767   9.082  64.599  1.00  0.00    -0.063 C  
HETATM   21  C   UNL     1      -6.439   7.738  64.265  1.00  0.00    -0.056 C  
HETATM   22  O   UNL     1      -7.035   7.742  62.961  1.00  0.00    -0.076 OA 
ENDBRANCH  16  17
ENDBRANCH  15  16
ENDBRANCH  14  15
ENDBRANCH  13  14
ENDBRANCH   4  13
BRANCH  10  23
HETATM   23  N   UNL     1     -10.070  16.083  65.341  1.00  0.00    -0.490 NA 
HETATM   24  H   UNL     1      -9.791  16.552  64.480  1.00  0.00     0.000 HD 
BRANCH  23  25
HETATM   25  C   UNL     1     -10.847  14.916  65.163  1.00  0.00    -0.414 A  
HETATM   26 CL   UNL     1     -10.471  11.523  63.047  1.00  0.00    -0.304 Cl 
HETATM   27  C   UNL     1     -12.413  12.651  64.561  1.00  0.00    -0.448 A  
HETATM   28  C   UNL     1     -11.121  12.758  64.057  1.00  0.00    -0.414 A  
HETATM   29  C   UNL     1     -12.932  13.651  65.367  1.00  0.00    -0.331 A  
HETATM   30  F   UNL     1     -13.185  11.593  64.266  1.00  0.00    -0.287 F  
HETATM   31  C   UNL     1     -12.154  14.778  65.657  1.00  0.00    -0.114 A  
HETATM   32  C   UNL     1     -10.344  13.883  64.353  1.00  0.00    -0.082 A  
ENDBRANCH  23  25
ENDBRANCH  10  23
ENDBRANCH   2   3
TORSDOF 8
ENDMDL
MODEL      194
REMARK 921   NORMALIZED FREE ENERGY PREDICTED BY IDOCK:   -4.27 KCAL/MOL
REMARK 922        TOTAL FREE ENERGY PREDICTED BY IDOCK:   -7.90 KCAL/MOL
REMARK 923 INTER-LIGAND FREE ENERGY PREDICTED BY IDOCK:   -6.73 KCAL/MOL
REMARK 924 INTRA-LIGAND FREE ENERGY PREDICTED BY IDOCK:   -1.18 KCAL/MOL
REMARK 927      BINDING AFFINITY PREDICTED BY RF-SCORE:    0.00 PKD
ROOT
HETATM    1  C   UNL     1      -5.710  15.992  69.962  1.00  0.00    -0.171 C  
HETATM    2  O   UNL     1      -6.171  15.443  68.729  1.00  0.00    -0.095 OA 
ENDROOT
BRANCH   2   3
HETATM    3  C   UNL     1      -7.457  14.969  68.735  1.00  0.00    -0.133 A  
HETATM    4  C   UNL     1      -7.715  13.730  68.146  1.00  0.00    -0.140 A  
HETATM    5  N   UNL     1     -10.769  15.997  69.798  1.00  0.00    -0.305 NA 
HETATM    6  C   UNL     1      -9.040  13.308  67.993  1.00  0.00    -0.202 A  
HETATM    7  C   UNL     1      -9.834  15.240  69.220  1.00  0.00    -0.255 A  
HETATM    8  C   UNL     1     -10.125  14.062  68.521  1.00  0.00    -0.236 A  
HETATM    9  C   UNL     1      -8.522  15.676  69.305  1.00  0.00    -0.265 A  
HETATM   10  C   UNL     1     -11.498  13.751  68.410  1.00  0.00    -0.316 A  
HETATM   11  N   UNL     1     -12.441  14.509  69.004  1.00  0.00    -0.063 NA 
HETATM   12  C   UNL     1     -12.029  15.586  69.673  1.00  0.00    -0.359 A  
BRANCH   4  13
HETATM   13  O   UNL     1      -6.781  12.875  67.621  1.00  0.00    -0.123 OA 
BRANCH  13  14
HETATM   14  C   UNL     1      -6.635  11.611  68.294  1.00  0.00    -0.059 C  
BRANCH  14  15
HETATM   15  C   UNL     1      -7.069  10.525  67.310  1.00  0.00    -0.088 C  
BRANCH  15  16
HETATM   16  C   UNL     1      -7.954   9.431  67.920  1.00  0.00    -0.092 C  
BRANCH  16  17
HETATM   17  N   UNL     1      -7.349   8.095  68.029  1.00  0.00    -0.094 NA 
HETATM   18  C   UNL     1      -8.031   7.129  67.130  1.00  0.00    -0.110 C  
HETATM   19  C   UNL     1      -9.424   6.701  67.625  1.00  0.00    -0.124 C  
HETATM   20  C   UNL     1      -7.373   7.523  69.394  1.00  0.00    -0.085 C  
HETATM   21  C   UNL     1      -8.750   7.020  69.865  1.00  0.00    -0.142 C  
HETATM   22  O   UNL     1      -9.342   6.112  68.927  1.00  0.00    -0.124 OA 
ENDBRANCH  16  17
ENDBRANCH  15  16
ENDBRANCH  14  15
ENDBRANCH  13  14
ENDBRANCH   4  13
BRANCH  10  23
HETATM   23  N   UNL     1     -11.915  12.671  67.588  1.00  0.00    -0.403 NA 
HETATM   24  H   UNL     1     -12.551  12.011  68.033  1.00  0.00     0.000 HD 
BRANCH  23  25
HETATM   25  C   UNL     1     -11.583  12.372  66.247  1.00  0.00    -0.393 A  
HETATM   26 CL   UNL     1      -9.234   9.681  64.411  1.00  0.00    -0.290 Cl 
HETATM   27  C   UNL     1     -10.679  11.834  63.631  1.00  0.00    -0.440 A  
HETATM   28  C   UNL     1     -10.287  11.016  64.685  1.00  0.00    -0.345 A  
HETATM   29  C   UNL     1     -11.522  12.910  63.861  1.00  0.00    -0.504 A  
HETATM   30  F   UNL     1     -10.241  11.611  62.383  1.00  0.00    -0.038 F  
HETATM   31  C   UNL     1     -11.961  13.179  65.162  1.00  0.00    -0.431 A  
HETATM   32  C   UNL     1     -10.733  11.283  65.984  1.00  0.00    -0.301 A  
ENDBRANCH  23  25
ENDBRANCH  10  23
ENDBRANCH   2   3
TORSDOF 8
ENDMDL
MODEL      195
REMARK 921   NORMALIZED FREE ENERGY PREDICTED BY IDOCK:   -4.27 KCAL/MOL
REMARK 922        TOTAL FREE ENERGY PREDICTED BY IDOCK:   -7.89 KCAL/MOL
REMARK 923 INTER-LIGAND FREE ENERGY PREDICTED BY IDOCK:   -6.98 KCAL/MOL
REMARK 924 INTRA-LIGAND FREE ENERGY PREDICTED BY IDOCK:   -0.91 KCAL/MOL
REMARK 927      BINDING AFFINITY PREDICTED BY RF-SCORE:    0.00 PKD
ROOT
HETATM    1  C   UNL     1      -6.138  10.675  68.305  1.00  0.00    -0.046 C  
HETATM    2  O   UNL     1      -6.841  10.266  67.133  1.00  0.00    -0.080 OA 
ENDROOT
BRANCH   2   3
HETATM    3  C   UNL     1      -7.441   9.035  67.202  1.00  0.00    -0.087 A  
HETATM    4  C   UNL     1      -8.700   8.937  67.796  1.00  0.00    -0.125 A  
HETATM    5  N   UNL     1      -6.743   5.578  66.352  1.00  0.00    -0.056 NA 
HETATM    6  C   UNL     1      -9.252   7.672  68.026  1.00  0.00    -0.138 A  
HETATM    7  C   UNL     1      -7.406   6.617  66.866  1.00  0.00    -0.082 A  
HETATM    8  C   UNL     1      -8.608   6.488  67.572  1.00  0.00    -0.119 A  
HETATM    9  C   UNL     1      -6.841   7.872  66.704  1.00  0.00    -0.071 A  
HETATM   10  C   UNL     1      -9.053   5.162  67.764  1.00  0.00    -0.111 A  
HETATM   11  N   UNL     1      -8.391   4.113  67.235  1.00  0.00    -0.099 NA 
HETATM   12  C   UNL     1      -7.277   4.376  66.551  1.00  0.00    -0.079 A  
BRANCH   4  13
HETATM   13  O   UNL     1      -9.460   9.982  68.255  1.00  0.00    -0.138 OA 
BRANCH  13  14
HETATM   14  C   UNL     1     -10.642  10.285  67.492  1.00  0.00    -0.268 C  
BRANCH  14  15
HETATM   15  C   UNL     1     -10.184  10.677  66.088  1.00  0.00    -0.308 C  
BRANCH  15  16
HETATM   16  C   UNL     1     -10.602  12.088  65.654  1.00  0.00    -0.265 C  
BRANCH  16  17
HETATM   17  N   UNL     1     -12.049  12.331  65.553  1.00  0.00    -0.553 NA 
HETATM   18  C   UNL     1     -12.553  11.976  64.203  1.00  0.00    -0.308 C  
HETATM   19  C   UNL     1     -12.158  12.986  63.111  1.00  0.00    -0.246 C  
HETATM   20  C   UNL     1     -12.453  13.729  65.826  1.00  0.00    -0.485 C  
HETATM   21  C   UNL     1     -12.130  14.730  64.701  1.00  0.00    -0.427 C  
HETATM   22  O   UNL     1     -12.636  14.297  63.432  1.00  0.00    -0.777 OA 
ENDBRANCH  16  17
ENDBRANCH  15  16
ENDBRANCH  14  15
ENDBRANCH  13  14
ENDBRANCH   4  13
BRANCH  10  23
HETATM   23  N   UNL     1     -10.171   4.905  68.601  1.00  0.00    -0.096 NA 
HETATM   24  H   UNL     1     -10.953   4.437  68.144  1.00  0.00     0.000 HD 
BRANCH  23  25
HETATM   25  C   UNL     1     -10.365   5.200  69.970  1.00  0.00    -0.276 A  
HETATM   26 CL   UNL     1      -9.021   3.690  73.441  1.00  0.00    -0.095 Cl 
HETATM   27  C   UNL     1     -10.852   5.553  72.724  1.00  0.00    -0.263 A  
HETATM   28  C   UNL     1      -9.899   4.634  72.298  1.00  0.00    -0.167 A  
HETATM   29  C   UNL     1     -11.559   6.303  71.798  1.00  0.00    -0.358 A  
HETATM   30  F   UNL     1     -11.118   5.718  74.029  1.00  0.00    -0.200 F  
HETATM   31  C   UNL     1     -11.320   6.119  70.432  1.00  0.00    -0.399 A  
HETATM   32  C   UNL     1      -9.657   4.456  70.931  1.00  0.00    -0.255 A  
ENDBRANCH  23  25
ENDBRANCH  10  23
ENDBRANCH   2   3
TORSDOF 8
ENDMDL
MODEL      196
REMARK 921   NORMALIZED FREE ENERGY PREDICTED BY IDOCK:   -4.22 KCAL/MOL
REMARK 922        TOTAL FREE ENERGY PREDICTED BY IDOCK:   -7.82 KCAL/MOL
REMARK 923 INTER-LIGAND FREE ENERGY PREDICTED BY IDOCK:   -6.43 KCAL/MOL
REMARK 924 INTRA-LIGAND FREE ENERGY PREDICTED BY IDOCK:   -1.39 KCAL/MOL
REMARK 927      BINDING AFFINITY PREDICTED BY RF-SCORE:    0.00 PKD
ROOT
HETATM    1  C   UNL     1      -8.611   5.376  70.360  1.00  0.00    -0.124 C  
HETATM    2  O   UNL     1      -8.363   6.573  71.094  1.00  0.00    -0.120 OA 
ENDROOT
BRANCH   2   3
HETATM    3  C   UNL     1      -9.190   7.628  70.805  1.00  0.00    -0.157 A  
HETATM    4  C   UNL     1      -8.782   8.553  69.842  1.00  0.00    -0.132 A  
HETATM    5  N   UNL     1     -12.367   9.013  71.875  1.00  0.00    -0.359 NA 
HETATM    6  C   UNL     1      -9.529   9.721  69.656  1.00  0.00    -0.237 A  
HETATM    7  C   UNL     1     -11.209   8.937  71.215  1.00  0.00    -0.298 A  
HETATM    8  C   UNL     1     -10.754   9.937  70.347  1.00  0.00    -0.379 A  
HETATM    9  C   UNL     1     -10.425   7.817  71.436  1.00  0.00    -0.237 A  
HETATM   10  C   UNL     1     -11.579  11.079  70.259  1.00  0.00    -0.322 A  
HETATM   11  N   UNL     1     -12.754  11.151  70.917  1.00  0.00    -0.357 NA 
HETATM   12  C   UNL     1     -13.090  10.113  71.683  1.00  0.00    -0.447 A  
BRANCH   4  13
HETATM   13  O   UNL     1      -7.650   8.472  69.073  1.00  0.00    -0.090 OA 
BRANCH  13  14
HETATM   14  C   UNL     1      -7.858   8.419  67.650  1.00  0.00    -0.107 C  
BRANCH  14  15
HETATM   15  C   UNL     1      -6.741   9.237  67.001  1.00  0.00    -0.076 C  
BRANCH  15  16
HETATM   16  C   UNL     1      -7.050  10.732  66.857  1.00  0.00    -0.114 C  
BRANCH  16  17
HETATM   17  N   UNL     1      -5.968  11.655  67.234  1.00  0.00    -0.096 NA 
HETATM   18  C   UNL     1      -5.331  11.233  68.507  1.00  0.00    -0.043 C  
HETATM   19  C   UNL     1      -6.196  11.504  69.750  1.00  0.00    -0.138 C  
HETATM   20  C   UNL     1      -6.396  13.062  67.396  1.00  0.00    -0.087 C  
HETATM   21  C   UNL     1      -7.195  13.355  68.679  1.00  0.00    -0.107 C  
HETATM   22  O   UNL     1      -6.515  12.896  69.855  1.00  0.00    -0.073 OA 
ENDBRANCH  16  17
ENDBRANCH  15  16
ENDBRANCH  14  15
ENDBRANCH  13  14
ENDBRANCH   4  13
BRANCH  10  23
HETATM   23  N   UNL     1     -11.136  12.218  69.537  1.00  0.00    -0.464 NA 
HETATM   24  H   UNL     1     -10.810  12.994  70.112  1.00  0.00     0.000 HD 
BRANCH  23  25
HETATM   25  C   UNL     1     -11.078  12.441  68.142  1.00  0.00    -0.247 A  
HETATM   26 CL   UNL     1     -11.936  15.507  65.694  1.00  0.00     0.372 Cl 
HETATM   27  C   UNL     1     -11.216  12.917  65.367  1.00  0.00    -0.283 A  
HETATM   28  C   UNL     1     -11.491  13.944  66.264  1.00  0.00    -0.339 A  
HETATM   29  C   UNL     1     -10.865  11.661  65.833  1.00  0.00    -0.339 A  
HETATM   30  F   UNL     1     -11.300  13.116  64.043  1.00  0.00    -0.367 F  
HETATM   31  C   UNL     1     -10.806  11.426  67.211  1.00  0.00    -0.311 A  
HETATM   32  C   UNL     1     -11.425  13.708  67.642  1.00  0.00    -0.357 A  
ENDBRANCH  23  25
ENDBRANCH  10  23
ENDBRANCH   2   3
TORSDOF 8
ENDMDL
MODEL      197
REMARK 921   NORMALIZED FREE ENERGY PREDICTED BY IDOCK:   -4.22 KCAL/MOL
REMARK 922        TOTAL FREE ENERGY PREDICTED BY IDOCK:   -7.82 KCAL/MOL
REMARK 923 INTER-LIGAND FREE ENERGY PREDICTED BY IDOCK:   -6.75 KCAL/MOL
REMARK 924 INTRA-LIGAND FREE ENERGY PREDICTED BY IDOCK:   -1.07 KCAL/MOL
REMARK 927      BINDING AFFINITY PREDICTED BY RF-SCORE:    0.00 PKD
ROOT
HETATM    1  C   UNL     1     -10.001  11.393  64.178  1.00  0.00    -0.290 C  
HETATM    2  O   UNL     1     -10.028  11.487  65.601  1.00  0.00    -0.218 OA 
ENDROOT
BRANCH   2   3
HETATM    3  C   UNL     1      -9.812  10.314  66.277  1.00  0.00    -0.219 A  
HETATM    4  C   UNL     1      -9.855  10.328  67.672  1.00  0.00    -0.171 A  
HETATM    5  N   UNL     1      -8.992   6.848  65.589  1.00  0.00    -0.019 NA 
HETATM    6  C   UNL     1      -9.472   9.184  68.380  1.00  0.00    -0.150 A  
HETATM    7  C   UNL     1      -9.229   7.943  66.314  1.00  0.00    -0.178 A  
HETATM    8  C   UNL     1      -9.144   7.972  67.711  1.00  0.00    -0.136 A  
HETATM    9  C   UNL     1      -9.547   9.103  65.626  1.00  0.00    -0.287 A  
HETATM   10  C   UNL     1      -8.723   6.767  68.314  1.00  0.00    -0.123 A  
HETATM   11  N   UNL     1      -8.496   5.656  67.583  1.00  0.00    -0.103 NA 
HETATM   12  C   UNL     1      -8.649   5.752  66.262  1.00  0.00    -0.130 A  
BRANCH   4  13
HETATM   13  O   UNL     1     -10.183  11.402  68.459  1.00  0.00    -0.195 OA 
BRANCH  13  14
HETATM   14  C   UNL     1     -11.577  11.539  68.789  1.00  0.00    -0.316 C  
BRANCH  14  15
HETATM   15  C   UNL     1     -11.894  13.034  68.794  1.00  0.00    -0.355 C  
BRANCH  15  16
HETATM   16  C   UNL     1     -11.182  13.838  67.699  1.00  0.00    -0.293 C  
BRANCH  16  17
HETATM   17  N   UNL     1     -11.479  15.279  67.657  1.00  0.00    -0.316 NA 
HETATM   18  C   UNL     1     -10.436  16.013  66.897  1.00  0.00    -0.306 C  
HETATM   19  C   UNL     1      -9.107  16.161  67.659  1.00  0.00    -0.196 C  
HETATM   20  C   UNL     1     -11.594  15.918  68.987  1.00  0.00    -0.389 C  
HETATM   21  C   UNL     1     -10.258  16.140  69.719  1.00  0.00    -0.208 C  
HETATM   22  O   UNL     1      -9.306  16.836  68.905  1.00  0.00    -0.245 OA 
ENDBRANCH  16  17
ENDBRANCH  15  16
ENDBRANCH  14  15
ENDBRANCH  13  14
ENDBRANCH   4  13
BRANCH  10  23
HETATM   23  N   UNL     1      -8.448   6.729  69.706  1.00  0.00    -0.132 NA 
HETATM   24  H   UNL     1      -7.565   7.159  69.983  1.00  0.00     0.000 HD 
BRANCH  23  25
HETATM   25  C   UNL     1      -9.209   6.188  70.767  1.00  0.00    -0.154 A  
HETATM   26 CL   UNL     1      -9.747   2.526  72.327  1.00  0.00    -0.194 Cl 
HETATM   27  C   UNL     1     -10.852   4.970  72.707  1.00  0.00    -0.244 A  
HETATM   28  C   UNL     1      -9.909   4.214  72.018  1.00  0.00    -0.174 A  
HETATM   29  C   UNL     1     -10.981   6.325  72.448  1.00  0.00    -0.291 A  
HETATM   30  F   UNL     1     -11.661   4.405  73.616  1.00  0.00    -0.334 F  
HETATM   31  C   UNL     1     -10.170   6.924  71.479  1.00  0.00    -0.210 A  
HETATM   32  C   UNL     1      -9.095   4.816  71.054  1.00  0.00    -0.177 A  
ENDBRANCH  23  25
ENDBRANCH  10  23
ENDBRANCH   2   3
TORSDOF 8
ENDMDL
MODEL      198
REMARK 921   NORMALIZED FREE ENERGY PREDICTED BY IDOCK:   -4.21 KCAL/MOL
REMARK 922        TOTAL FREE ENERGY PREDICTED BY IDOCK:   -7.82 KCAL/MOL
REMARK 923 INTER-LIGAND FREE ENERGY PREDICTED BY IDOCK:   -6.07 KCAL/MOL
REMARK 924 INTRA-LIGAND FREE ENERGY PREDICTED BY IDOCK:   -1.75 KCAL/MOL
REMARK 927      BINDING AFFINITY PREDICTED BY RF-SCORE:    0.00 PKD
ROOT
HETATM    1  C   UNL     1      -6.268   5.251  68.391  1.00  0.00    -0.031 C  
HETATM    2  O   UNL     1      -7.465   6.004  68.583  1.00  0.00    -0.083 OA 
ENDROOT
BRANCH   2   3
HETATM    3  C   UNL     1      -7.521   7.206  67.927  1.00  0.00    -0.099 A  
HETATM    4  C   UNL     1      -7.042   8.345  68.576  1.00  0.00    -0.076 A  
HETATM    5  N   UNL     1      -8.701   8.577  64.783  1.00  0.00    -0.086 NA 
HETATM    6  C   UNL     1      -7.244   9.601  67.994  1.00  0.00    -0.081 A  
HETATM    7  C   UNL     1      -8.190   8.570  66.016  1.00  0.00    -0.118 A  
HETATM    8  C   UNL     1      -7.831   9.735  66.704  1.00  0.00    -0.109 A  
HETATM    9  C   UNL     1      -8.042   7.339  66.634  1.00  0.00    -0.113 A  
HETATM   10  C   UNL     1      -8.105  10.943  66.028  1.00  0.00    -0.142 A  
HETATM   11  N   UNL     1      -8.611  10.951  64.777  1.00  0.00    -0.072 NA 
HETATM   12  C   UNL     1      -8.874   9.769  64.218  1.00  0.00    -0.228 A  
BRANCH   4  13
HETATM   13  O   UNL     1      -6.426   8.378  69.800  1.00  0.00    -0.035 OA 
BRANCH  13  14
HETATM   14  C   UNL     1      -7.014   9.256  70.778  1.00  0.00    -0.109 C  
BRANCH  14  15
HETATM   15  C   UNL     1      -7.801   8.381  71.753  1.00  0.00    -0.161 C  
BRANCH  15  16
HETATM   16  C   UNL     1      -9.264   8.800  71.946  1.00  0.00    -0.250 C  
BRANCH  16  17
HETATM   17  N   UNL     1     -10.102   8.797  70.737  1.00  0.00    -0.197 NA 
HETATM   18  C   UNL     1     -11.404   9.464  70.993  1.00  0.00    -0.337 C  
HETATM   19  C   UNL     1     -12.371   8.623  71.844  1.00  0.00    -0.354 C  
HETATM   20  C   UNL     1     -10.391   7.450  70.197  1.00  0.00    -0.214 C  
HETATM   21  C   UNL     1     -11.419   6.634  71.003  1.00  0.00    -0.330 C  
HETATM   22  O   UNL     1     -12.635   7.362  71.220  1.00  0.00    -0.343 OA 
ENDBRANCH  16  17
ENDBRANCH  15  16
ENDBRANCH  14  15
ENDBRANCH  13  14
ENDBRANCH   4  13
BRANCH  10  23
HETATM   23  N   UNL     1      -7.932  12.184  66.695  1.00  0.00    -0.384 NA 
HETATM   24  H   UNL     1      -6.963  12.444  66.879  1.00  0.00     0.000 HD 
BRANCH  23  25
HETATM   25  C   UNL     1      -8.897  13.115  67.144  1.00  0.00    -0.222 A  
HETATM   26 CL   UNL     1     -12.125  12.967  69.529  1.00  0.00    -0.314 Cl 
HETATM   27  C   UNL     1     -10.997  14.829  67.918  1.00  0.00    -0.278 A  
HETATM   28  C   UNL     1     -10.926  13.538  68.432  1.00  0.00    -0.266 A  
HETATM   29  C   UNL     1     -10.033  15.279  67.031  1.00  0.00    -0.235 A  
HETATM   30  F   UNL     1     -12.002  15.652  68.254  1.00  0.00    -0.354 F  
HETATM   31  C   UNL     1      -8.997  14.422  66.643  1.00  0.00    -0.232 A  
HETATM   32  C   UNL     1      -9.885  12.686  68.048  1.00  0.00    -0.218 A  
ENDBRANCH  23  25
ENDBRANCH  10  23
ENDBRANCH   2   3
TORSDOF 8
ENDMDL
MODEL      199
REMARK 921   NORMALIZED FREE ENERGY PREDICTED BY IDOCK:   -4.20 KCAL/MOL
REMARK 922        TOTAL FREE ENERGY PREDICTED BY IDOCK:   -7.80 KCAL/MOL
REMARK 923 INTER-LIGAND FREE ENERGY PREDICTED BY IDOCK:   -6.29 KCAL/MOL
REMARK 924 INTRA-LIGAND FREE ENERGY PREDICTED BY IDOCK:   -1.50 KCAL/MOL
REMARK 927      BINDING AFFINITY PREDICTED BY RF-SCORE:    0.00 PKD
ROOT
HETATM    1  C   UNL     1     -10.390  19.423  68.535  1.00  0.00    -0.315 C  
HETATM    2  O   UNL     1     -10.731  18.149  67.991  1.00  0.00    -0.374 OA 
ENDROOT
BRANCH   2   3
HETATM    3  C   UNL     1      -9.710  17.237  67.931  1.00  0.00    -0.273 A  
HETATM    4  C   UNL     1      -9.961  15.925  68.337  1.00  0.00    -0.222 A  
HETATM    5  N   UNL     1      -6.190  17.093  67.067  1.00  0.00    -0.158 NA 
HETATM    6  C   UNL     1      -8.894  15.026  68.443  1.00  0.00    -0.178 A  
HETATM    7  C   UNL     1      -7.372  16.668  67.519  1.00  0.00    -0.149 A  
HETATM    8  C   UNL     1      -7.577  15.386  68.043  1.00  0.00    -0.135 A  
HETATM    9  C   UNL     1      -8.426  17.567  67.482  1.00  0.00    -0.216 A  
HETATM   10  C   UNL     1      -6.423  14.577  68.124  1.00  0.00    -0.139 A  
HETATM   11  N   UNL     1      -5.232  15.001  67.657  1.00  0.00    -0.324 NA 
HETATM   12  C   UNL     1      -5.179  16.232  67.147  1.00  0.00     0.011 A  
BRANCH   4  13
HETATM   13  O   UNL     1     -11.175  15.417  68.721  1.00  0.00    -0.265 OA 
BRANCH  13  14
HETATM   14  C   UNL     1     -12.157  15.277  67.679  1.00  0.00     0.259 C  
BRANCH  14  15
HETATM   15  C   UNL     1     -12.138  13.814  67.235  1.00  0.00    -0.393 C  
BRANCH  15  16
HETATM   16  C   UNL     1     -12.688  13.570  65.825  1.00  0.00    -0.374 C  
BRANCH  16  17
HETATM   17  N   UNL     1     -11.822  13.987  64.711  1.00  0.00    -0.381 NA 
HETATM   18  C   UNL     1     -12.090  13.175  63.498  1.00  0.00    -0.514 C  
HETATM   19  C   UNL     1     -11.541  11.739  63.582  1.00  0.00    -0.424 C  
HETATM   20  C   UNL     1     -10.373  13.894  64.997  1.00  0.00    -0.396 C  
HETATM   21  C   UNL     1      -9.802  12.463  65.004  1.00  0.00    -0.114 C  
HETATM   22  O   UNL     1     -10.127  11.747  63.806  1.00  0.00    -0.325 OA 
ENDBRANCH  16  17
ENDBRANCH  15  16
ENDBRANCH  14  15
ENDBRANCH  13  14
ENDBRANCH   4  13
BRANCH  10  23
HETATM   23  N   UNL     1      -6.484  13.322  68.785  1.00  0.00    -0.092 NA 
HETATM   24  H   UNL     1      -6.278  13.350  69.783  1.00  0.00     0.000 HD 
BRANCH  23  25
HETATM   25  C   UNL     1      -6.786  12.040  68.271  1.00  0.00    -0.061 A  
HETATM   26 CL   UNL     1      -6.749  10.331  64.636  1.00  0.00    -0.115 Cl 
HETATM   27  C   UNL     1      -7.573   9.595  67.109  1.00  0.00    -0.091 A  
HETATM   28  C   UNL     1      -6.985  10.582  66.325  1.00  0.00    -0.128 A  
HETATM   29  C   UNL     1      -7.765   9.807  68.465  1.00  0.00    -0.081 A  
HETATM   30  F   UNL     1      -7.978   8.434  66.572  1.00  0.00    -0.091 F  
HETATM   31  C   UNL     1      -7.381  11.025  69.036  1.00  0.00    -0.123 A  
HETATM   32  C   UNL     1      -6.596  11.797  66.899  1.00  0.00    -0.114 A  
ENDBRANCH  23  25
ENDBRANCH  10  23
ENDBRANCH   2   3
TORSDOF 8
ENDMDL
MODEL      200
REMARK 921   NORMALIZED FREE ENERGY PREDICTED BY IDOCK:   -4.18 KCAL/MOL
REMARK 922        TOTAL FREE ENERGY PREDICTED BY IDOCK:   -7.77 KCAL/MOL
REMARK 923 INTER-LIGAND FREE ENERGY PREDICTED BY IDOCK:   -6.37 KCAL/MOL
REMARK 924 INTRA-LIGAND FREE ENERGY PREDICTED BY IDOCK:   -1.40 KCAL/MOL
REMARK 927      BINDING AFFINITY PREDICTED BY RF-SCORE:    0.00 PKD
ROOT
HETATM    1  C   UNL     1     -11.489  15.793  69.131  1.00  0.00    -0.380 C  
HETATM    2  O   UNL     1     -12.403  14.805  68.657  1.00  0.00    -0.131 OA 
ENDROOT
BRANCH   2   3
HETATM    3  C   UNL     1     -12.032  13.503  68.871  1.00  0.00    -0.341 A  
HETATM    4  C   UNL     1     -11.423  12.802  67.829  1.00  0.00    -0.326 A  
HETATM    5  N   UNL     1     -12.201  10.982  71.474  1.00  0.00    -0.180 NA 
HETATM    6  C   UNL     1     -11.193  11.429  67.972  1.00  0.00    -0.346 A  
HETATM    7  C   UNL     1     -11.958  11.503  70.269  1.00  0.00    -0.368 A  
HETATM    8  C   UNL     1     -11.465  10.753  69.194  1.00  0.00    -0.368 A  
HETATM    9  C   UNL     1     -12.241  12.847  70.090  1.00  0.00    -0.336 A  
HETATM   10  C   UNL     1     -11.296   9.375  69.448  1.00  0.00     0.110 A  
HETATM   11  N   UNL     1     -11.530   8.851  70.669  1.00  0.00    -0.263 NA 
HETATM   12  C   UNL     1     -11.962   9.681  71.618  1.00  0.00    -0.394 A  
BRANCH   4  13
HETATM   13  O   UNL     1     -11.070  13.315  66.608  1.00  0.00    -0.284 OA 
BRANCH  13  14
HETATM   14  C   UNL     1      -9.887  14.133  66.587  1.00  0.00    -0.283 C  
BRANCH  14  15
HETATM   15  C   UNL     1      -8.735  13.274  67.108  1.00  0.00    -0.215 C  
BRANCH  15  16
HETATM   16  C   UNL     1      -7.927  13.915  68.243  1.00  0.00    -0.148 C  
BRANCH  16  17
HETATM   17  N   UNL     1      -6.491  13.596  68.275  1.00  0.00    -0.095 NA 
HETATM   18  C   UNL     1      -6.275  12.127  68.325  1.00  0.00    -0.052 C  
HETATM   19  C   UNL     1      -6.595  11.502  69.694  1.00  0.00    -0.112 C  
HETATM   20  C   UNL     1      -5.758  14.191  69.415  1.00  0.00    -0.086 C  
HETATM   21  C   UNL     1      -6.014  13.518  70.775  1.00  0.00    -0.108 C  
HETATM   22  O   UNL     1      -5.803  12.102  70.725  1.00  0.00    -0.295 OA 
ENDBRANCH  16  17
ENDBRANCH  15  16
ENDBRANCH  14  15
ENDBRANCH  13  14
ENDBRANCH   4  13
BRANCH  10  23
HETATM   23  N   UNL     1     -10.957   8.496  68.387  1.00  0.00    -0.439 NA 
HETATM   24  H   UNL     1     -11.750   8.055  67.921  1.00  0.00     0.000 HD 
BRANCH  23  25
HETATM   25  C   UNL     1      -9.687   8.138  67.877  1.00  0.00    -0.161 A  
HETATM   26 CL   UNL     1      -5.971   7.872  69.376  1.00  0.00    -0.033 Cl 
HETATM   27  C   UNL     1      -7.081   7.662  66.915  1.00  0.00    -0.084 A  
HETATM   28  C   UNL     1      -7.294   7.876  68.272  1.00  0.00    -0.098 A  
HETATM   29  C   UNL     1      -8.149   7.673  66.032  1.00  0.00    -0.118 A  
HETATM   30  F   UNL     1      -5.846   7.458  66.432  1.00  0.00    -0.031 F  
HETATM   31  C   UNL     1      -9.440   7.918  66.513  1.00  0.00    -0.277 A  
HETATM   32  C   UNL     1      -8.587   8.114  68.751  1.00  0.00    -0.127 A  
ENDBRANCH  23  25
ENDBRANCH  10  23
ENDBRANCH   2   3
TORSDOF 8
ENDMDL
MODEL      201
REMARK 921   NORMALIZED FREE ENERGY PREDICTED BY IDOCK:   -4.18 KCAL/MOL
REMARK 922        TOTAL FREE ENERGY PREDICTED BY IDOCK:   -7.77 KCAL/MOL
REMARK 923 INTER-LIGAND FREE ENERGY PREDICTED BY IDOCK:   -6.65 KCAL/MOL
REMARK 924 INTRA-LIGAND FREE ENERGY PREDICTED BY IDOCK:   -1.12 KCAL/MOL
REMARK 927      BINDING AFFINITY PREDICTED BY RF-SCORE:    0.00 PKD
ROOT
HETATM    1  C   UNL     1      -5.489  15.061  68.070  1.00  0.00    -0.132 C  
HETATM    2  O   UNL     1      -6.296  14.582  69.144  1.00  0.00    -0.091 OA 
ENDROOT
BRANCH   2   3
HETATM    3  C   UNL     1      -6.674  13.267  69.060  1.00  0.00    -0.107 A  
HETATM    4  C   UNL     1      -7.819  12.945  68.329  1.00  0.00    -0.142 A  
HETATM    5  N   UNL     1      -5.643  10.019  70.304  1.00  0.00    -0.045 NA 
HETATM    6  C   UNL     1      -8.313  11.637  68.372  1.00  0.00    -0.157 A  
HETATM    7  C   UNL     1      -6.403  10.921  69.678  1.00  0.00    -0.100 A  
HETATM    8  C   UNL     1      -7.616  10.602  69.056  1.00  0.00    -0.122 A  
HETATM    9  C   UNL     1      -5.962  12.234  69.680  1.00  0.00    -0.121 A  
HETATM   10  C   UNL     1      -8.026   9.258  69.188  1.00  0.00    -0.097 A  
HETATM   11  N   UNL     1      -7.254   8.344  69.810  1.00  0.00    -0.055 NA 
HETATM   12  C   UNL     1      -6.101   8.770  70.328  1.00  0.00    -0.030 A  
BRANCH   4  13
HETATM   13  O   UNL     1      -8.580  13.818  67.595  1.00  0.00    -0.163 OA 
BRANCH  13  14
HETATM   14  C   UNL     1      -9.941  13.987  68.031  1.00  0.00    -0.235 C  
BRANCH  14  15
HETATM   15  C   UNL     1     -10.230  15.488  68.031  1.00  0.00    -0.229 C  
BRANCH  15  16
HETATM   16  C   UNL     1      -9.542  16.269  66.905  1.00  0.00    -0.232 C  
BRANCH  16  17
HETATM   17  N   UNL     1      -8.457  17.175  67.314  1.00  0.00    -0.193 NA 
HETATM   18  C   UNL     1      -8.767  17.818  68.616  1.00  0.00    -0.258 C  
HETATM   19  C   UNL     1      -9.845  18.912  68.523  1.00  0.00    -0.399 C  
HETATM   20  C   UNL     1      -8.164  18.253  66.344  1.00  0.00    -0.251 C  
HETATM   21  C   UNL     1      -9.201  19.391  66.304  1.00  0.00    -0.348 C  
HETATM   22  O   UNL     1      -9.453  19.938  67.605  1.00  0.00    -0.334 OA 
ENDBRANCH  16  17
ENDBRANCH  15  16
ENDBRANCH  14  15
ENDBRANCH  13  14
ENDBRANCH   4  13
BRANCH  10  23
HETATM   23  N   UNL     1      -9.313   8.862  68.738  1.00  0.00    -0.137 NA 
HETATM   24  H   UNL     1      -9.466   8.956  67.734  1.00  0.00     0.000 HD 
BRANCH  23  25
HETATM   25  C   UNL     1     -10.414   8.359  69.468  1.00  0.00    -0.224 A  
HETATM   26 CL   UNL     1     -13.044   9.879  72.095  1.00  0.00    -0.520 Cl 
HETATM   27  C   UNL     1     -12.478   7.410  71.136  1.00  0.00    -0.308 A  
HETATM   28  C   UNL     1     -12.177   8.767  71.104  1.00  0.00    -0.244 A  
HETATM   29  C   UNL     1     -11.772   6.521  70.341  1.00  0.00    -0.439 A  
HETATM   30  F   UNL     1     -13.440   6.934  71.941  1.00  0.00    -0.388 F  
HETATM   31  C   UNL     1     -10.742   6.995  69.521  1.00  0.00    -0.263 A  
HETATM   32  C   UNL     1     -11.151   9.239  70.278  1.00  0.00    -0.289 A  
ENDBRANCH  23  25
ENDBRANCH  10  23
ENDBRANCH   2   3
TORSDOF 8
ENDMDL
MODEL      202
REMARK 921   NORMALIZED FREE ENERGY PREDICTED BY IDOCK:   -4.18 KCAL/MOL
REMARK 922        TOTAL FREE ENERGY PREDICTED BY IDOCK:   -7.77 KCAL/MOL
REMARK 923 INTER-LIGAND FREE ENERGY PREDICTED BY IDOCK:   -7.87 KCAL/MOL
REMARK 924 INTRA-LIGAND FREE ENERGY PREDICTED BY IDOCK:    0.11 KCAL/MOL
REMARK 927      BINDING AFFINITY PREDICTED BY RF-SCORE:    0.00 PKD
ROOT
HETATM    1  C   UNL     1     -12.021  15.395  68.855  1.00  0.00    -0.273 C  
HETATM    2  O   UNL     1     -12.219  14.230  68.057  1.00  0.00    -0.293 OA 
ENDROOT
BRANCH   2   3
HETATM    3  C   UNL     1     -11.652  13.079  68.538  1.00  0.00    -0.328 A  
HETATM    4  C   UNL     1     -10.614  12.492  67.812  1.00  0.00    -0.219 A  
HETATM    5  N   UNL     1     -12.042  10.757  71.298  1.00  0.00    -0.306 NA 
HETATM    6  C   UNL     1     -10.139  11.232  68.194  1.00  0.00    -0.195 A  
HETATM    7  C   UNL     1     -11.565  11.249  70.152  1.00  0.00    -0.305 A  
HETATM    8  C   UNL     1     -10.613  10.585  69.369  1.00  0.00    -0.269 A  
HETATM    9  C   UNL     1     -12.072  12.465  69.724  1.00  0.00    -0.292 A  
HETATM   10  C   UNL     1     -10.228   9.311  69.840  1.00  0.00    -0.214 A  
HETATM   11  N   UNL     1     -10.700   8.819  71.004  1.00  0.00    -0.214 NA 
HETATM   12  C   UNL     1     -11.575   9.570  71.675  1.00  0.00    -0.381 A  
BRANCH   4  13
HETATM   13  O   UNL     1     -10.028  13.003  66.683  1.00  0.00    -0.238 OA 
BRANCH  13  14
HETATM   14  C   UNL     1     -10.193  14.417  66.472  1.00  0.00    -0.274 C  
BRANCH  14  15
HETATM   15  C   UNL     1      -8.830  15.069  66.705  1.00  0.00    -0.307 C  
BRANCH  15  16
HETATM   16  C   UNL     1      -8.760  16.551  66.317  1.00  0.00    -0.333 C  
BRANCH  16  17
HETATM   17  N   UNL     1      -8.043  17.431  67.252  1.00  0.00    -0.197 NA 
HETATM   18  C   UNL     1      -8.801  17.588  68.520  1.00  0.00    -0.282 C  
HETATM   19  C   UNL     1     -10.041  18.490  68.389  1.00  0.00    -0.388 C  
HETATM   20  C   UNL     1      -7.770  18.787  66.727  1.00  0.00    -0.241 C  
HETATM   21  C   UNL     1      -8.993  19.720  66.669  1.00  0.00    -0.368 C  
HETATM   22  O   UNL     1      -9.675  19.795  67.928  1.00  0.00    -0.352 OA 
ENDBRANCH  16  17
ENDBRANCH  15  16
ENDBRANCH  14  15
ENDBRANCH  13  14
ENDBRANCH   4  13
BRANCH  10  23
HETATM   23  N   UNL     1      -9.394   8.484  69.044  1.00  0.00    -0.146 NA 
HETATM   24  H   UNL     1      -8.470   8.866  68.845  1.00  0.00     0.000 HD 
BRANCH  23  25
HETATM   25  C   UNL     1      -9.649   7.210  68.485  1.00  0.00    -0.139 A  
HETATM   26 CL   UNL     1      -9.026   3.409  69.621  1.00  0.00    -0.159 Cl 
HETATM   27  C   UNL     1      -9.903   4.634  67.370  1.00  0.00    -0.165 A  
HETATM   28  C   UNL     1      -9.452   4.786  68.677  1.00  0.00    -0.150 A  
HETATM   29  C   UNL     1     -10.237   5.746  66.615  1.00  0.00    -0.261 A  
HETATM   30  F   UNL     1     -10.007   3.418  66.813  1.00  0.00    -0.154 F  
HETATM   31  C   UNL     1     -10.102   7.024  67.169  1.00  0.00    -0.283 A  
HETATM   32  C   UNL     1      -9.323   6.064  69.231  1.00  0.00    -0.146 A  
ENDBRANCH  23  25
ENDBRANCH  10  23
ENDBRANCH   2   3
TORSDOF 8
ENDMDL
MODEL      203
REMARK 921   NORMALIZED FREE ENERGY PREDICTED BY IDOCK:   -4.17 KCAL/MOL
REMARK 922        TOTAL FREE ENERGY PREDICTED BY IDOCK:   -7.75 KCAL/MOL
REMARK 923 INTER-LIGAND FREE ENERGY PREDICTED BY IDOCK:   -6.53 KCAL/MOL
REMARK 924 INTRA-LIGAND FREE ENERGY PREDICTED BY IDOCK:   -1.21 KCAL/MOL
REMARK 927      BINDING AFFINITY PREDICTED BY RF-SCORE:    0.00 PKD
ROOT
HETATM    1  C   UNL     1      -8.373  18.471  66.300  1.00  0.00    -0.213 C  
HETATM    2  O   UNL     1      -8.903  17.238  65.818  1.00  0.00    -0.530 OA 
ENDROOT
BRANCH   2   3
HETATM    3  C   UNL     1      -8.414  16.107  66.421  1.00  0.00    -0.334 A  
HETATM    4  C   UNL     1      -9.191  14.948  66.397  1.00  0.00    -0.284 A  
HETATM    5  N   UNL     1      -5.523  15.032  68.330  1.00  0.00    -0.101 NA 
HETATM    6  C   UNL     1      -8.788  13.838  67.147  1.00  0.00    -0.240 A  
HETATM    7  C   UNL     1      -6.726  14.955  67.755  1.00  0.00    -0.172 A  
HETATM    8  C   UNL     1      -7.549  13.827  67.848  1.00  0.00    -0.157 A  
HETATM    9  C   UNL     1      -7.170  16.069  67.061  1.00  0.00    -0.249 A  
HETATM   10  C   UNL     1      -7.049  12.780  68.653  1.00  0.00    -0.100 A  
HETATM   11  N   UNL     1      -5.829  12.853  69.224  1.00  0.00    -0.081 NA 
HETATM   12  C   UNL     1      -5.128  13.970  69.027  1.00  0.00    -0.075 A  
BRANCH   4  13
HETATM   13  O   UNL     1     -10.386  14.790  65.744  1.00  0.00    -0.301 OA 
BRANCH  13  14
HETATM   14  C   UNL     1     -11.083  13.556  65.995  1.00  0.00    -0.293 C  
BRANCH  14  15
HETATM   15  C   UNL     1     -12.408  13.915  66.668  1.00  0.00    -0.411 C  
BRANCH  15  16
HETATM   16  C   UNL     1     -12.263  14.674  67.993  1.00  0.00    -0.054 C  
BRANCH  16  17
HETATM   17  N   UNL     1     -11.283  14.131  68.946  1.00  0.00    -0.253 NA 
HETATM   18  C   UNL     1     -11.854  12.984  69.697  1.00  0.00    -0.319 C  
HETATM   19  C   UNL     1     -12.884  13.396  70.764  1.00  0.00    -0.150 C  
HETATM   20  C   UNL     1     -10.789  15.111  69.939  1.00  0.00    -0.270 C  
HETATM   21  C   UNL     1     -11.789  15.466  71.054  1.00  0.00    -0.360 C  
HETATM   22  O   UNL     1     -12.303  14.300  71.710  1.00  0.00    -0.338 OA 
ENDBRANCH  16  17
ENDBRANCH  15  16
ENDBRANCH  14  15
ENDBRANCH  13  14
ENDBRANCH   4  13
BRANCH  10  23
HETATM   23  N   UNL     1      -7.869  11.659  68.947  1.00  0.00    -0.295 NA 
HETATM   24  H   UNL     1      -8.433  11.747  69.791  1.00  0.00     0.000 HD 
BRANCH  23  25
HETATM   25  C   UNL     1      -8.022  10.440  68.248  1.00  0.00    -0.111 A  
HETATM   26 CL   UNL     1     -10.761   7.504  68.179  1.00  0.00    -0.190 Cl 
HETATM   27  C   UNL     1      -8.316   7.891  67.081  1.00  0.00    -0.117 A  
HETATM   28  C   UNL     1      -9.329   8.413  67.879  1.00  0.00    -0.135 A  
HETATM   29  C   UNL     1      -7.164   8.625  66.849  1.00  0.00    -0.075 A  
HETATM   30  F   UNL     1      -8.425   6.669  66.536  1.00  0.00    -0.108 F  
HETATM   31  C   UNL     1      -7.018   9.886  67.437  1.00  0.00    -0.083 A  
HETATM   32  C   UNL     1      -9.183   9.677  68.460  1.00  0.00    -0.137 A  
ENDBRANCH  23  25
ENDBRANCH  10  23
ENDBRANCH   2   3
TORSDOF 8
ENDMDL
MODEL      204
REMARK 921   NORMALIZED FREE ENERGY PREDICTED BY IDOCK:   -4.16 KCAL/MOL
REMARK 922        TOTAL FREE ENERGY PREDICTED BY IDOCK:   -7.73 KCAL/MOL
REMARK 923 INTER-LIGAND FREE ENERGY PREDICTED BY IDOCK:   -7.24 KCAL/MOL
REMARK 924 INTRA-LIGAND FREE ENERGY PREDICTED BY IDOCK:   -0.49 KCAL/MOL
REMARK 927      BINDING AFFINITY PREDICTED BY RF-SCORE:    0.00 PKD
ROOT
HETATM    1  C   UNL     1      -8.790  17.886  68.122  1.00  0.00    -0.265 C  
HETATM    2  O   UNL     1      -9.977  17.530  68.828  1.00  0.00    -0.315 OA 
ENDROOT
BRANCH   2   3
HETATM    3  C   UNL     1     -10.548  16.338  68.465  1.00  0.00    -0.294 A  
HETATM    4  C   UNL     1     -10.849  15.410  69.463  1.00  0.00    -0.267 A  
HETATM    5  N   UNL     1     -11.557  14.566  65.465  1.00  0.00    -0.347 NA 
HETATM    6  C   UNL     1     -11.273  14.127  69.099  1.00  0.00    -0.307 A  
HETATM    7  C   UNL     1     -11.319  14.767  66.764  1.00  0.00    -0.346 A  
HETATM    8  C   UNL     1     -11.508  13.781  67.739  1.00  0.00    -0.354 A  
HETATM    9  C   UNL     1     -10.837  16.011  67.135  1.00  0.00    -0.239 A  
HETATM   10  C   UNL     1     -11.912  12.519  67.251  1.00  0.00    -0.216 A  
HETATM   11  N   UNL     1     -12.164  12.319  65.942  1.00  0.00    -0.600 NA 
HETATM   12  C   UNL     1     -11.981  13.353  65.119  1.00  0.00    -0.378 A  
BRANCH   4  13
HETATM   13  O   UNL     1     -10.710  15.602  70.813  1.00  0.00    -0.303 OA 
BRANCH  13  14
HETATM   14  C   UNL     1     -11.458  16.696  71.375  1.00  0.00     0.130 C  
BRANCH  14  15
HETATM   15  C   UNL     1     -11.682  16.377  72.853  1.00  0.00    -0.339 C  
BRANCH  15  16
HETATM   16  C   UNL     1     -11.843  14.884  73.164  1.00  0.00    -0.163 C  
BRANCH  16  17
HETATM   17  N   UNL     1     -13.225  14.385  73.239  1.00  0.00    -0.580 NA 
HETATM   18  C   UNL     1     -13.328  13.021  72.659  1.00  0.00    -0.177 C  
HETATM   19  C   UNL     1     -13.246  12.996  71.123  1.00  0.00    -0.006 C  
HETATM   20  C   UNL     1     -14.221  15.237  72.551  1.00  0.00    -0.384 C  
HETATM   21  C   UNL     1     -14.195  15.154  71.014  1.00  0.00    -0.209 C  
HETATM   22  O   UNL     1     -14.278  13.803  70.544  1.00  0.00     1.111 OA 
ENDBRANCH  16  17
ENDBRANCH  15  16
ENDBRANCH  14  15
ENDBRANCH  13  14
ENDBRANCH   4  13
BRANCH  10  23
HETATM   23  N   UNL     1     -11.976  11.407  68.131  1.00  0.00    -0.630 NA 
HETATM   24  H   UNL     1     -12.912  11.171  68.461  1.00  0.00     0.000 HD 
BRANCH  23  25
HETATM   25  C   UNL     1     -10.941  10.576  68.619  1.00  0.00    -0.248 A  
HETATM   26 CL   UNL     1     -10.062   8.873  72.148  1.00  0.00    -0.368 Cl 
HETATM   27  C   UNL     1      -8.819   9.109  69.754  1.00  0.00    -0.160 A  
HETATM   28  C   UNL     1      -9.951   9.394  70.510  1.00  0.00    -0.267 A  
HETATM   29  C   UNL     1      -8.734   9.537  68.439  1.00  0.00    -0.124 A  
HETATM   30  F   UNL     1      -7.787   8.434  70.282  1.00  0.00    -0.083 F  
HETATM   31  C   UNL     1      -9.786  10.272  67.882  1.00  0.00    -0.165 A  
HETATM   32  C   UNL     1     -11.004  10.124  69.948  1.00  0.00    -0.344 A  
ENDBRANCH  23  25
ENDBRANCH  10  23
ENDBRANCH   2   3
TORSDOF 8
ENDMDL
MODEL      205
REMARK 921   NORMALIZED FREE ENERGY PREDICTED BY IDOCK:   -4.12 KCAL/MOL
REMARK 922        TOTAL FREE ENERGY PREDICTED BY IDOCK:   -7.68 KCAL/MOL
REMARK 923 INTER-LIGAND FREE ENERGY PREDICTED BY IDOCK:   -6.43 KCAL/MOL
REMARK 924 INTRA-LIGAND FREE ENERGY PREDICTED BY IDOCK:   -1.25 KCAL/MOL
REMARK 927      BINDING AFFINITY PREDICTED BY RF-SCORE:    0.00 PKD
ROOT
HETATM    1  C   UNL     1      -6.349  11.459  68.704  1.00  0.00    -0.053 C  
HETATM    2  O   UNL     1      -7.756  11.448  68.471  1.00  0.00    -0.118 OA 
ENDROOT
BRANCH   2   3
HETATM    3  C   UNL     1      -8.389  10.257  68.714  1.00  0.00    -0.125 A  
HETATM    4  C   UNL     1      -8.415   9.295  67.703  1.00  0.00    -0.116 A  
HETATM    5  N   UNL     1     -10.290   8.633  71.342  1.00  0.00    -0.237 NA 
HETATM    6  C   UNL     1      -9.197   8.147  67.871  1.00  0.00    -0.138 A  
HETATM    7  C   UNL     1      -9.736   8.804  70.140  1.00  0.00    -0.172 A  
HETATM    8  C   UNL     1      -9.879   7.886  69.092  1.00  0.00    -0.174 A  
HETATM    9  C   UNL     1      -9.012   9.966  69.934  1.00  0.00    -0.231 A  
HETATM   10  C   UNL     1     -10.711   6.779  69.370  1.00  0.00    -0.255 A  
HETATM   11  N   UNL     1     -11.261   6.601  70.588  1.00  0.00    -0.294 NA 
HETATM   12  C   UNL     1     -11.016   7.531  71.512  1.00  0.00    -0.229 A  
BRANCH   4  13
HETATM   13  O   UNL     1      -7.787   9.383  66.488  1.00  0.00    -0.096 OA 
BRANCH  13  14
HETATM   14  C   UNL     1      -8.640   9.318  65.331  1.00  0.00    -0.157 C  
BRANCH  14  15
HETATM   15  C   UNL     1      -8.838  10.750  64.835  1.00  0.00    -0.176 C  
BRANCH  15  16
HETATM   16  C   UNL     1     -10.114  11.430  65.346  1.00  0.00    -0.261 C  
BRANCH  16  17
HETATM   17  N   UNL     1     -10.207  12.881  65.127  1.00  0.00    -0.287 NA 
HETATM   18  C   UNL     1     -10.123  13.618  66.414  1.00  0.00    -0.295 C  
HETATM   19  C   UNL     1     -11.400  13.516  67.267  1.00  0.00    -0.315 C  
HETATM   20  C   UNL     1     -11.445  13.318  64.444  1.00  0.00    -0.379 C  
HETATM   21  C   UNL     1     -12.712  13.294  65.318  1.00  0.00    -0.412 C  
HETATM   22  O   UNL     1     -12.535  14.010  66.547  1.00  0.00    -0.442 OA 
ENDBRANCH  16  17
ENDBRANCH  15  16
ENDBRANCH  14  15
ENDBRANCH  13  14
ENDBRANCH   4  13
BRANCH  10  23
HETATM   23  N   UNL     1     -11.055   5.874  68.333  1.00  0.00    -0.195 NA 
HETATM   24  H   UNL     1     -12.032   5.900  68.043  1.00  0.00     0.000 HD 
BRANCH  23  25
HETATM   25  C   UNL     1     -10.249   4.941  67.640  1.00  0.00    -0.076 A  
HETATM   26 CL   UNL     1      -9.516   4.101  63.781  1.00  0.00    -0.154 Cl 
HETATM   27  C   UNL     1      -8.859   2.985  66.160  1.00  0.00    -0.143 A  
HETATM   28  C   UNL     1      -9.521   4.017  65.502  1.00  0.00    -0.176 A  
HETATM   29  C   UNL     1      -8.873   2.921  67.544  1.00  0.00    -0.162 A  
HETATM   30  F   UNL     1      -8.213   2.031  65.474  1.00  0.00    -0.078 F  
HETATM   31  C   UNL     1      -9.571   3.888  68.274  1.00  0.00    -0.178 A  
HETATM   32  C   UNL     1     -10.213   4.987  66.235  1.00  0.00    -0.306 A  
ENDBRANCH  23  25
ENDBRANCH  10  23
ENDBRANCH   2   3
TORSDOF 8
ENDMDL
MODEL      206
REMARK 921   NORMALIZED FREE ENERGY PREDICTED BY IDOCK:   -4.11 KCAL/MOL
REMARK 922        TOTAL FREE ENERGY PREDICTED BY IDOCK:   -7.67 KCAL/MOL
REMARK 923 INTER-LIGAND FREE ENERGY PREDICTED BY IDOCK:   -6.70 KCAL/MOL
REMARK 924 INTRA-LIGAND FREE ENERGY PREDICTED BY IDOCK:   -0.96 KCAL/MOL
REMARK 927      BINDING AFFINITY PREDICTED BY RF-SCORE:    0.00 PKD
ROOT
HETATM    1  C   UNL     1      -8.350   5.491  65.130  1.00  0.00    -0.146 C  
HETATM    2  O   UNL     1      -7.803   6.513  65.962  1.00  0.00    -0.096 OA 
ENDROOT
BRANCH   2   3
HETATM    3  C   UNL     1      -8.216   7.789  65.681  1.00  0.00    -0.135 A  
HETATM    4  C   UNL     1      -8.404   8.679  66.739  1.00  0.00    -0.108 A  
HETATM    5  N   UNL     1      -9.170   9.812  62.824  1.00  0.00    -0.272 NA 
HETATM    6  C   UNL     1      -8.984   9.928  66.489  1.00  0.00    -0.166 A  
HETATM    7  C   UNL     1      -8.974   9.494  64.106  1.00  0.00    -0.198 A  
HETATM    8  C   UNL     1      -9.288  10.353  65.166  1.00  0.00    -0.271 A  
HETATM    9  C   UNL     1      -8.460   8.236  64.377  1.00  0.00    -0.022 A  
HETATM   10  C   UNL     1      -9.892  11.573  64.793  1.00  0.00    -0.249 A  
HETATM   11  N   UNL     1     -10.079  11.900  63.498  1.00  0.00    -0.421 NA 
HETATM   12  C   UNL     1      -9.702  11.007  62.582  1.00  0.00    -0.202 A  
BRANCH   4  13
HETATM   13  O   UNL     1      -8.131   8.433  68.060  1.00  0.00    -0.120 OA 
BRANCH  13  14
HETATM   14  C   UNL     1      -9.272   8.340  68.932  1.00  0.00    -0.147 C  
BRANCH  14  15
HETATM   15  C   UNL     1      -9.308   6.912  69.477  1.00  0.00    -0.147 C  
BRANCH  15  16
HETATM   16  C   UNL     1      -8.793   6.767  70.915  1.00  0.00    -0.146 C  
BRANCH  16  17
HETATM   17  N   UNL     1      -9.522   5.818  71.770  1.00  0.00    -0.148 NA 
HETATM   18  C   UNL     1     -10.973   6.135  71.797  1.00  0.00    -0.264 C  
HETATM   19  C   UNL     1     -11.317   7.380  72.633  1.00  0.00    -0.313 C  
HETATM   20  C   UNL     1      -9.050   5.774  73.172  1.00  0.00    -0.127 C  
HETATM   21  C   UNL     1      -9.461   6.982  74.035  1.00  0.00    -0.253 C  
HETATM   22  O   UNL     1     -10.872   7.226  73.985  1.00  0.00    -0.212 OA 
ENDBRANCH  16  17
ENDBRANCH  15  16
ENDBRANCH  14  15
ENDBRANCH  13  14
ENDBRANCH   4  13
BRANCH  10  23
HETATM   23  N   UNL     1     -10.397  12.447  65.791  1.00  0.00    -0.257 NA 
HETATM   24  H   UNL     1     -11.102  12.040  66.406  1.00  0.00     0.000 HD 
BRANCH  23  25
HETATM   25  C   UNL     1     -10.072  13.796  66.064  1.00  0.00    -0.311 A  
HETATM   26 CL   UNL     1      -8.433  15.778  69.149  1.00  0.00    -0.237 Cl 
HETATM   27  C   UNL     1      -9.591  16.474  66.802  1.00  0.00    -0.254 A  
HETATM   28  C   UNL     1      -9.198  15.439  67.643  1.00  0.00    -0.187 A  
HETATM   29  C   UNL     1     -10.212  16.193  65.595  1.00  0.00    -0.390 A  
HETATM   30  F   UNL     1      -9.394  17.756  67.145  1.00  0.00    -0.248 F  
HETATM   31  C   UNL     1     -10.457  14.863  65.237  1.00  0.00    -0.427 A  
HETATM   32  C   UNL     1      -9.438  14.109  67.279  1.00  0.00    -0.229 A  
ENDBRANCH  23  25
ENDBRANCH  10  23
ENDBRANCH   2   3
TORSDOF 8
ENDMDL
MODEL      207
REMARK 921   NORMALIZED FREE ENERGY PREDICTED BY IDOCK:   -4.11 KCAL/MOL
REMARK 922        TOTAL FREE ENERGY PREDICTED BY IDOCK:   -7.66 KCAL/MOL
REMARK 923 INTER-LIGAND FREE ENERGY PREDICTED BY IDOCK:   -6.47 KCAL/MOL
REMARK 924 INTRA-LIGAND FREE ENERGY PREDICTED BY IDOCK:   -1.19 KCAL/MOL
REMARK 927      BINDING AFFINITY PREDICTED BY RF-SCORE:    0.00 PKD
ROOT
HETATM    1  C   UNL     1      -5.893  14.061  70.070  1.00  0.00    -0.133 C  
HETATM    2  O   UNL     1      -6.123  13.525  68.768  1.00  0.00    -0.078 OA 
ENDROOT
BRANCH   2   3
HETATM    3  C   UNL     1      -7.324  12.888  68.593  1.00  0.00    -0.099 A  
HETATM    4  C   UNL     1      -7.395  11.516  68.838  1.00  0.00    -0.116 A  
HETATM    5  N   UNL     1     -10.704  13.631  67.506  1.00  0.00    -0.258 NA 
HETATM    6  C   UNL     1      -8.562  10.821  68.504  1.00  0.00    -0.148 A  
HETATM    7  C   UNL     1      -9.665  12.892  67.901  1.00  0.00    -0.218 A  
HETATM    8  C   UNL     1      -9.717  11.498  68.021  1.00  0.00    -0.187 A  
HETATM    9  C   UNL     1      -8.481  13.556  68.175  1.00  0.00    -0.172 A  
HETATM   10  C   UNL     1     -10.937  10.905  67.631  1.00  0.00    -0.293 A  
HETATM   11  N   UNL     1     -11.990  11.652  67.243  1.00  0.00    -0.602 NA 
HETATM   12  C   UNL     1     -11.822  12.974  67.208  1.00  0.00    -0.363 A  
BRANCH   4  13
HETATM   13  O   UNL     1      -6.386  10.730  69.331  1.00  0.00    -0.053 OA 
BRANCH  13  14
HETATM   14  C   UNL     1      -6.531  10.301  70.697  1.00  0.00    -0.061 C  
BRANCH  14  15
HETATM   15  C   UNL     1      -6.658   8.777  70.679  1.00  0.00    -0.045 C  
BRANCH  15  16
HETATM   16  C   UNL     1      -7.482   8.194  71.834  1.00  0.00    -0.091 C  
BRANCH  16  17
HETATM   17  N   UNL     1      -8.561   7.268  71.457  1.00  0.00    -0.118 NA 
HETATM   18  C   UNL     1      -9.579   7.953  70.621  1.00  0.00    -0.166 C  
HETATM   19  C   UNL     1     -10.482   8.916  71.413  1.00  0.00    -0.305 C  
HETATM   20  C   UNL     1      -9.266   6.654  72.603  1.00  0.00    -0.139 C  
HETATM   21  C   UNL     1     -10.232   7.592  73.351  1.00  0.00    -0.343 C  
HETATM   22  O   UNL     1     -11.164   8.224  72.465  1.00  0.00    -0.363 OA 
ENDBRANCH  16  17
ENDBRANCH  15  16
ENDBRANCH  14  15
ENDBRANCH  13  14
ENDBRANCH   4  13
BRANCH  10  23
HETATM   23  N   UNL     1     -11.046   9.491  67.558  1.00  0.00    -0.421 NA 
HETATM   24  H   UNL     1     -11.797   9.087  68.117  1.00  0.00     0.000 HD 
BRANCH  23  25
HETATM   25  C   UNL     1     -10.273   8.559  66.829  1.00  0.00    -0.300 A  
HETATM   26 CL   UNL     1      -9.793   4.572  66.886  1.00  0.00    -0.228 Cl 
HETATM   27  C   UNL     1      -8.616   6.641  65.594  1.00  0.00    -0.123 A  
HETATM   28  C   UNL     1      -9.595   6.238  66.497  1.00  0.00    -0.146 A  
HETATM   29  C   UNL     1      -8.459   7.984  65.292  1.00  0.00    -0.133 A  
HETATM   30  F   UNL     1      -7.801   5.747  65.015  1.00  0.00    -0.084 F  
HETATM   31  C   UNL     1      -9.277   8.933  65.913  1.00  0.00    -0.290 A  
HETATM   32  C   UNL     1     -10.417   7.189  67.112  1.00  0.00    -0.389 A  
ENDBRANCH  23  25
ENDBRANCH  10  23
ENDBRANCH   2   3
TORSDOF 8
ENDMDL
MODEL      208
REMARK 921   NORMALIZED FREE ENERGY PREDICTED BY IDOCK:   -4.10 KCAL/MOL
REMARK 922        TOTAL FREE ENERGY PREDICTED BY IDOCK:   -7.66 KCAL/MOL
REMARK 923 INTER-LIGAND FREE ENERGY PREDICTED BY IDOCK:   -7.32 KCAL/MOL
REMARK 924 INTRA-LIGAND FREE ENERGY PREDICTED BY IDOCK:   -0.34 KCAL/MOL
REMARK 927      BINDING AFFINITY PREDICTED BY RF-SCORE:    0.00 PKD
ROOT
HETATM    1  C   UNL     1      -9.318  20.563  66.468  1.00  0.00    -0.141 C  
HETATM    2  O   UNL     1      -9.647  19.762  67.602  1.00  0.00    -0.324 OA 
ENDROOT
BRANCH   2   3
HETATM    3  C   UNL     1      -8.868  18.650  67.788  1.00  0.00    -0.275 A  
HETATM    4  C   UNL     1      -9.079  17.541  66.968  1.00  0.00    -0.248 A  
HETATM    5  N   UNL     1      -6.232  17.468  69.983  1.00  0.00    -0.127 NA 
HETATM    6  C   UNL     1      -8.413  16.343  67.252  1.00  0.00    -0.196 A  
HETATM    7  C   UNL     1      -7.157  17.420  69.021  1.00  0.00    -0.233 A  
HETATM    8  C   UNL     1      -7.445  16.260  68.291  1.00  0.00    -0.157 A  
HETATM    9  C   UNL     1      -7.871  18.579  68.769  1.00  0.00    -0.301 A  
HETATM   10  C   UNL     1      -6.730  15.108  68.683  1.00  0.00    -0.093 A  
HETATM   11  N   UNL     1      -5.787  15.159  69.647  1.00  0.00    -0.106 NA 
HETATM   12  C   UNL     1      -5.582  16.335  70.240  1.00  0.00    -0.174 A  
BRANCH   4  13
HETATM   13  O   UNL     1      -9.949  17.472  65.911  1.00  0.00    -0.511 OA 
BRANCH  13  14
HETATM   14  C   UNL     1     -10.157  16.162  65.350  1.00  0.00    -0.186 C  
BRANCH  14  15
HETATM   15  C   UNL     1     -11.414  16.238  64.485  1.00  0.00    -0.171 C  
BRANCH  15  16
HETATM   16  C   UNL     1     -12.102  14.888  64.243  1.00  0.00    -0.353 C  
BRANCH  16  17
HETATM   17  N   UNL     1     -11.730  13.800  65.160  1.00  0.00    -0.330 NA 
HETATM   18  C   UNL     1     -10.367  13.294  64.858  1.00  0.00    -0.351 C  
HETATM   19  C   UNL     1     -10.295  12.440  63.579  1.00  0.00    -0.362 C  
HETATM   20  C   UNL     1     -12.650  12.640  65.136  1.00  0.00    -0.386 C  
HETATM   21  C   UNL     1     -12.526  11.738  63.895  1.00  0.00    -0.274 C  
HETATM   22  O   UNL     1     -11.176  11.315  63.668  1.00  0.00    -0.358 OA 
ENDBRANCH  16  17
ENDBRANCH  15  16
ENDBRANCH  14  15
ENDBRANCH  13  14
ENDBRANCH   4  13
BRANCH  10  23
HETATM   23  N   UNL     1      -7.058  13.846  68.123  1.00  0.00    -0.102 NA 
HETATM   24  H   UNL     1      -6.331  13.431  67.539  1.00  0.00     0.000 HD 
BRANCH  23  25
HETATM   25  C   UNL     1      -8.237  13.076  68.249  1.00  0.00    -0.150 A  
HETATM   26 CL   UNL     1      -9.245   9.249  67.563  1.00  0.00    -0.137 Cl 
HETATM   27  C   UNL     1     -10.578  11.505  68.249  1.00  0.00    -0.200 A  
HETATM   28  C   UNL     1      -9.349  10.925  67.952  1.00  0.00    -0.156 A  
HETATM   29  C   UNL     1     -10.654  12.855  68.554  1.00  0.00    -0.270 A  
HETATM   30  F   UNL     1     -11.707  10.781  68.230  1.00  0.00    -0.357 F  
HETATM   31  C   UNL     1      -9.491  13.633  68.545  1.00  0.00    -0.143 A  
HETATM   32  C   UNL     1      -8.187  11.703  67.950  1.00  0.00    -0.141 A  
ENDBRANCH  23  25
ENDBRANCH  10  23
ENDBRANCH   2   3
TORSDOF 8
ENDMDL
MODEL      209
REMARK 921   NORMALIZED FREE ENERGY PREDICTED BY IDOCK:   -4.10 KCAL/MOL
REMARK 922        TOTAL FREE ENERGY PREDICTED BY IDOCK:   -7.64 KCAL/MOL
REMARK 923 INTER-LIGAND FREE ENERGY PREDICTED BY IDOCK:   -6.61 KCAL/MOL
REMARK 924 INTRA-LIGAND FREE ENERGY PREDICTED BY IDOCK:   -1.03 KCAL/MOL
REMARK 927      BINDING AFFINITY PREDICTED BY RF-SCORE:    0.00 PKD
ROOT
HETATM    1  C   UNL     1      -5.175   8.847  70.022  1.00  0.00    -0.029 C  
HETATM    2  O   UNL     1      -5.412   9.440  68.747  1.00  0.00    -0.037 OA 
ENDROOT
BRANCH   2   3
HETATM    3  C   UNL     1      -6.341  10.448  68.725  1.00  0.00    -0.047 A  
HETATM    4  C   UNL     1      -7.693  10.109  68.642  1.00  0.00    -0.092 A  
HETATM    5  N   UNL     1      -6.475  14.073  68.719  1.00  0.00    -0.087 NA 
HETATM    6  C   UNL     1      -8.641  11.120  68.448  1.00  0.00    -0.152 A  
HETATM    7  C   UNL     1      -6.924  12.817  68.655  1.00  0.00    -0.101 A  
HETATM    8  C   UNL     1      -8.270  12.494  68.443  1.00  0.00    -0.136 A  
HETATM    9  C   UNL     1      -5.990  11.802  68.779  1.00  0.00    -0.048 A  
HETATM   10  C   UNL     1      -9.128  13.595  68.236  1.00  0.00    -0.193 A  
HETATM   11  N   UNL     1      -8.677  14.864  68.312  1.00  0.00    -0.160 NA 
HETATM   12  C   UNL     1      -7.378  15.036  68.557  1.00  0.00    -0.117 A  
BRANCH   4  13
HETATM   13  O   UNL     1      -8.211   8.840  68.665  1.00  0.00    -0.114 OA 
BRANCH  13  14
HETATM   14  C   UNL     1      -8.880   8.411  67.465  1.00  0.00    -0.135 C  
BRANCH  14  15
HETATM   15  C   UNL     1     -10.353   8.205  67.821  1.00  0.00    -0.295 C  
BRANCH  15  16
HETATM   16  C   UNL     1     -10.596   7.248  68.994  1.00  0.00    -0.201 C  
BRANCH  16  17
HETATM   17  N   UNL     1     -10.538   7.843  70.338  1.00  0.00    -0.223 NA 
HETATM   18  C   UNL     1      -9.933   6.898  71.310  1.00  0.00    -0.179 C  
HETATM   19  C   UNL     1     -10.865   5.738  71.704  1.00  0.00    -0.255 C  
HETATM   20  C   UNL     1     -11.851   8.259  70.879  1.00  0.00    -0.216 C  
HETATM   21  C   UNL     1     -12.755   7.105  71.348  1.00  0.00    -0.391 C  
HETATM   22  O   UNL     1     -12.085   6.232  72.266  1.00  0.00    -0.304 OA 
ENDBRANCH  16  17
ENDBRANCH  15  16
ENDBRANCH  14  15
ENDBRANCH  13  14
ENDBRANCH   4  13
BRANCH  10  23
HETATM   23  N   UNL     1     -10.478  13.379  67.853  1.00  0.00    -0.235 NA 
HETATM   24  H   UNL     1     -11.125  13.217  68.625  1.00  0.00     0.000 HD 
BRANCH  23  25
HETATM   25  C   UNL     1     -11.063  13.354  66.566  1.00  0.00    -0.297 A  
HETATM   26 CL   UNL     1     -10.784  10.977  63.341  1.00  0.00    -0.304 Cl 
HETATM   27  C   UNL     1     -11.993  13.333  63.905  1.00  0.00    -0.483 A  
HETATM   28  C   UNL     1     -11.210  12.285  64.377  1.00  0.00    -0.334 A  
HETATM   29  C   UNL     1     -12.326  14.386  64.743  1.00  0.00    -0.427 A  
HETATM   30  F   UNL     1     -12.425  13.356  62.635  1.00  0.00    -0.336 F  
HETATM   31  C   UNL     1     -11.855  14.396  66.060  1.00  0.00    -0.379 A  
HETATM   32  C   UNL     1     -10.746  12.295  65.697  1.00  0.00    -0.302 A  
ENDBRANCH  23  25
ENDBRANCH  10  23
ENDBRANCH   2   3
TORSDOF 8
ENDMDL
MODEL      210
REMARK 921   NORMALIZED FREE ENERGY PREDICTED BY IDOCK:   -4.09 KCAL/MOL
REMARK 922        TOTAL FREE ENERGY PREDICTED BY IDOCK:   -7.64 KCAL/MOL
REMARK 923 INTER-LIGAND FREE ENERGY PREDICTED BY IDOCK:   -6.70 KCAL/MOL
REMARK 924 INTRA-LIGAND FREE ENERGY PREDICTED BY IDOCK:   -0.94 KCAL/MOL
REMARK 927      BINDING AFFINITY PREDICTED BY RF-SCORE:    0.00 PKD
ROOT
HETATM    1  C   UNL     1     -10.524   9.471  67.567  1.00  0.00    -0.275 C  
HETATM    2  O   UNL     1     -10.947  10.684  66.948  1.00  0.00    -0.243 OA 
ENDROOT
BRANCH   2   3
HETATM    3  C   UNL     1     -10.143  11.773  67.166  1.00  0.00    -0.203 A  
HETATM    4  C   UNL     1     -10.321  12.906  66.370  1.00  0.00    -0.268 A  
HETATM    5  N   UNL     1      -7.360  12.766  69.270  1.00  0.00     0.146 NA 
HETATM    6  C   UNL     1      -9.404  13.958  66.463  1.00  0.00    -0.264 A  
HETATM    7  C   UNL     1      -8.272  12.857  68.299  1.00  0.00    -0.153 A  
HETATM    8  C   UNL     1      -8.356  13.947  67.425  1.00  0.00    -0.208 A  
HETATM    9  C   UNL     1      -9.148  11.794  68.150  1.00  0.00    -0.185 A  
HETATM   10  C   UNL     1      -7.362  14.935  67.597  1.00  0.00    -0.187 A  
HETATM   11  N   UNL     1      -6.449  14.850  68.586  1.00  0.00    -0.081 NA 
HETATM   12  C   UNL     1      -6.501  13.776  69.375  1.00  0.00    -0.111 A  
BRANCH   4  13
HETATM   13  O   UNL     1     -11.297  13.083  65.424  1.00  0.00    -0.290 OA 
BRANCH  13  14
HETATM   14  C   UNL     1     -11.614  11.931  64.622  1.00  0.00    -0.250 C  
BRANCH  14  15
HETATM   15  C   UNL     1     -10.499  11.782  63.587  1.00  0.00    -0.490 C  
BRANCH  15  16
HETATM   16  C   UNL     1      -9.722  10.463  63.674  1.00  0.00    -0.277 C  
BRANCH  16  17
HETATM   17  N   UNL     1      -8.313  10.567  64.083  1.00  0.00    -0.138 NA 
HETATM   18  C   UNL     1      -7.409  10.432  62.912  1.00  0.00    -0.107 C  
HETATM   19  C   UNL     1      -7.301   8.992  62.380  1.00  0.00    -0.097 C  
HETATM   20  C   UNL     1      -7.892   9.565  65.087  1.00  0.00    -0.113 C  
HETATM   21  C   UNL     1      -7.706   8.137  64.542  1.00  0.00    -0.121 C  
HETATM   22  O   UNL     1      -6.838   8.104  63.402  1.00  0.00    -0.082 OA 
ENDBRANCH  16  17
ENDBRANCH  15  16
ENDBRANCH  14  15
ENDBRANCH  13  14
ENDBRANCH   4  13
BRANCH  10  23
HETATM   23  N   UNL     1      -7.255  16.001  66.666  1.00  0.00    -0.177 NA 
HETATM   24  H   UNL     1      -6.889  15.740  65.751  1.00  0.00     0.000 HD 
BRANCH  23  25
HETATM   25  C   UNL     1      -7.579  17.370  66.813  1.00  0.00    -0.228 A  
HETATM   26 CL   UNL     1     -10.154  19.476  69.063  1.00  0.00    -0.499 Cl 
HETATM   27  C   UNL     1      -8.460  20.039  67.027  1.00  0.00    -0.333 A  
HETATM   28  C   UNL     1      -8.969  19.067  67.881  1.00  0.00    -0.300 A  
HETATM   29  C   UNL     1      -7.512  19.701  66.075  1.00  0.00    -0.320 A  
HETATM   30  F   UNL     1      -8.884  21.310  67.095  1.00  0.00    -0.303 F  
HETATM   31  C   UNL     1      -7.083  18.373  65.966  1.00  0.00    -0.307 A  
HETATM   32  C   UNL     1      -8.534  17.741  67.775  1.00  0.00    -0.236 A  
ENDBRANCH  23  25
ENDBRANCH  10  23
ENDBRANCH   2   3
TORSDOF 8
ENDMDL
MODEL      211
REMARK 921   NORMALIZED FREE ENERGY PREDICTED BY IDOCK:   -4.06 KCAL/MOL
REMARK 922        TOTAL FREE ENERGY PREDICTED BY IDOCK:   -7.59 KCAL/MOL
REMARK 923 INTER-LIGAND FREE ENERGY PREDICTED BY IDOCK:   -6.39 KCAL/MOL
REMARK 924 INTRA-LIGAND FREE ENERGY PREDICTED BY IDOCK:   -1.20 KCAL/MOL
REMARK 927      BINDING AFFINITY PREDICTED BY RF-SCORE:    0.00 PKD
ROOT
HETATM    1  C   UNL     1      -9.335  19.306  68.416  1.00  0.00    -0.366 C  
HETATM    2  O   UNL     1     -10.267  18.408  69.015  1.00  0.00    -0.367 OA 
ENDROOT
BRANCH   2   3
HETATM    3  C   UNL     1     -10.483  17.237  68.336  1.00  0.00    -0.381 A  
HETATM    4  C   UNL     1     -10.566  16.048  69.062  1.00  0.00    -0.257 A  
HETATM    5  N   UNL     1     -10.859  16.059  64.926  1.00  0.00    -0.611 NA 
HETATM    6  C   UNL     1     -10.616  14.830  68.377  1.00  0.00    -0.242 A  
HETATM    7  C   UNL     1     -10.737  15.989  66.253  1.00  0.00    -0.234 A  
HETATM    8  C   UNL     1     -10.694  14.779  66.957  1.00  0.00    -0.300 A  
HETATM    9  C   UNL     1     -10.620  17.184  66.944  1.00  0.00    -0.209 A  
HETATM   10  C   UNL     1     -10.726  13.616  66.158  1.00  0.00    -0.286 A  
HETATM   11  N   UNL     1     -10.862  13.686  64.818  1.00  0.00    -0.372 NA 
HETATM   12  C   UNL     1     -10.930  14.901  64.273  1.00  0.00     0.176 A  
BRANCH   4  13
HETATM   13  O   UNL     1     -10.538  15.933  70.428  1.00  0.00    -0.296 OA 
BRANCH  13  14
HETATM   14  C   UNL     1     -11.684  16.451  71.128  1.00  0.00    -0.160 C  
BRANCH  14  15
HETATM   15  C   UNL     1     -11.815  15.657  72.427  1.00  0.00    -0.584 C  
BRANCH  15  16
HETATM   16  C   UNL     1     -12.001  14.147  72.234  1.00  0.00     0.392 C  
BRANCH  16  17
HETATM   17  N   UNL     1     -13.188  13.734  71.469  1.00  0.00    -0.349 NA 
HETATM   18  C   UNL     1     -13.899  12.624  72.152  1.00  0.00    -0.172 C  
HETATM   19  C   UNL     1     -13.177  11.269  72.045  1.00  0.00    -0.331 C  
HETATM   20  C   UNL     1     -12.900  13.293  70.086  1.00  0.00     0.238 C  
HETATM   21  C   UNL     1     -12.249  11.903  69.969  1.00  0.00    -0.217 C  
HETATM   22  O   UNL     1     -12.990  10.899  70.674  1.00  0.00    -0.292 OA 
ENDBRANCH  16  17
ENDBRANCH  15  16
ENDBRANCH  14  15
ENDBRANCH  13  14
ENDBRANCH   4  13
BRANCH  10  23
HETATM   23  N   UNL     1     -10.526  12.343  66.752  1.00  0.00    -0.220 NA 
HETATM   24  H   UNL     1     -11.378  11.812  66.932  1.00  0.00     0.000 HD 
BRANCH  23  25
HETATM   25  C   UNL     1      -9.327  11.698  67.134  1.00  0.00    -0.174 A  
HETATM   26 CL   UNL     1      -6.252   9.992  65.193  1.00  0.00    -0.100 Cl 
HETATM   27  C   UNL     1      -7.027  10.202  67.780  1.00  0.00    -0.084 A  
HETATM   28  C   UNL     1      -7.301  10.521  66.454  1.00  0.00    -0.129 A  
HETATM   29  C   UNL     1      -7.878  10.626  68.788  1.00  0.00    -0.125 A  
HETATM   30  F   UNL     1      -5.951   9.470  68.107  1.00  0.00    -0.046 F  
HETATM   31  C   UNL     1      -9.024  11.361  68.462  1.00  0.00    -0.158 A  
HETATM   32  C   UNL     1      -8.443  11.262  66.131  1.00  0.00    -0.135 A  
ENDBRANCH  23  25
ENDBRANCH  10  23
ENDBRANCH   2   3
TORSDOF 8
ENDMDL
MODEL      212
REMARK 921   NORMALIZED FREE ENERGY PREDICTED BY IDOCK:   -3.96 KCAL/MOL
REMARK 922        TOTAL FREE ENERGY PREDICTED BY IDOCK:   -7.44 KCAL/MOL
REMARK 923 INTER-LIGAND FREE ENERGY PREDICTED BY IDOCK:   -6.98 KCAL/MOL
REMARK 924 INTRA-LIGAND FREE ENERGY PREDICTED BY IDOCK:   -0.46 KCAL/MOL
REMARK 927      BINDING AFFINITY PREDICTED BY RF-SCORE:    0.00 PKD
ROOT
HETATM    1  C   UNL     1      -7.188   8.362  67.345  1.00  0.00    -0.088 C  
HETATM    2  O   UNL     1      -7.931   9.360  66.649  1.00  0.00    -0.107 OA 
ENDROOT
BRANCH   2   3
HETATM    3  C   UNL     1      -7.865  10.624  67.176  1.00  0.00    -0.117 A  
HETATM    4  C   UNL     1      -9.039  11.214  67.647  1.00  0.00    -0.147 A  
HETATM    5  N   UNL     1      -5.430  13.255  67.728  1.00  0.00    -0.206 NA 
HETATM    6  C   UNL     1      -9.022  12.559  68.030  1.00  0.00    -0.192 A  
HETATM    7  C   UNL     1      -6.626  12.662  67.696  1.00  0.00    -0.143 A  
HETATM    8  C   UNL     1      -7.814  13.310  68.053  1.00  0.00    -0.148 A  
HETATM    9  C   UNL     1      -6.670  11.348  67.257  1.00  0.00    -0.111 A  
HETATM   10  C   UNL     1      -7.677  14.672  68.396  1.00  0.00    -0.125 A  
HETATM   11  N   UNL     1      -6.468  15.269  68.442  1.00  0.00    -0.100 NA 
HETATM   12  C   UNL     1      -5.409  14.528  68.114  1.00  0.00    -0.120 A  
BRANCH   4  13
HETATM   13  O   UNL     1     -10.270  10.616  67.720  1.00  0.00    -0.169 OA 
BRANCH  13  14
HETATM   14  C   UNL     1     -10.822  10.468  69.041  1.00  0.00    -0.232 C  
BRANCH  14  15
HETATM   15  C   UNL     1      -9.713   9.909  69.932  1.00  0.00    -0.274 C  
BRANCH  15  16
HETATM   16  C   UNL     1      -9.628   8.378  69.955  1.00  0.00    -0.168 C  
BRANCH  16  17
HETATM   17  N   UNL     1     -10.809   7.672  70.477  1.00  0.00    -0.237 NA 
HETATM   18  C   UNL     1     -10.606   7.273  71.893  1.00  0.00    -0.212 C  
HETATM   19  C   UNL     1      -9.638   6.089  72.067  1.00  0.00    -0.152 C  
HETATM   20  C   UNL     1     -11.176   6.455  69.720  1.00  0.00    -0.419 C  
HETATM   21  C   UNL     1     -10.256   5.242  69.952  1.00  0.00    -0.294 C  
HETATM   22  O   UNL     1     -10.100   4.942  71.345  1.00  0.00    -0.188 OA 
ENDBRANCH  16  17
ENDBRANCH  15  16
ENDBRANCH  14  15
ENDBRANCH  13  14
ENDBRANCH   4  13
BRANCH  10  23
HETATM   23  N   UNL     1      -8.833  15.466  68.618  1.00  0.00    -0.176 NA 
HETATM   24  H   UNL     1      -9.570  15.014  69.158  1.00  0.00     0.000 HD 
BRANCH  23  25
HETATM   25  C   UNL     1      -9.117  16.788  68.205  1.00  0.00    -0.228 A  
HETATM   26 CL   UNL     1      -7.139  20.283  68.228  1.00  0.00    -0.301 Cl 
HETATM   27  C   UNL     1      -9.659  19.493  67.627  1.00  0.00    -0.336 A  
HETATM   28  C   UNL     1      -8.388  19.111  68.043  1.00  0.00    -0.305 A  
HETATM   29  C   UNL     1     -10.660  18.546  67.487  1.00  0.00    -0.461 A  
HETATM   30  F   UNL     1      -9.945  20.779  67.371  1.00  0.00    -0.583 F  
HETATM   31  C   UNL     1     -10.390  17.205  67.783  1.00  0.00    -0.347 A  
HETATM   32  C   UNL     1      -8.118  17.769  68.332  1.00  0.00    -0.297 A  
ENDBRANCH  23  25
ENDBRANCH  10  23
ENDBRANCH   2   3
TORSDOF 8
ENDMDL
MODEL      213
REMARK 921   NORMALIZED FREE ENERGY PREDICTED BY IDOCK:   -3.94 KCAL/MOL
REMARK 922        TOTAL FREE ENERGY PREDICTED BY IDOCK:   -7.42 KCAL/MOL
REMARK 923 INTER-LIGAND FREE ENERGY PREDICTED BY IDOCK:   -6.62 KCAL/MOL
REMARK 924 INTRA-LIGAND FREE ENERGY PREDICTED BY IDOCK:   -0.79 KCAL/MOL
REMARK 927      BINDING AFFINITY PREDICTED BY RF-SCORE:    0.00 PKD
ROOT
HETATM    1  C   UNL     1      -8.624   5.372  70.372  1.00  0.00    -0.124 C  
HETATM    2  O   UNL     1      -8.307   6.616  70.994  1.00  0.00    -0.122 OA 
ENDROOT
BRANCH   2   3
HETATM    3  C   UNL     1      -9.080   7.683  70.613  1.00  0.00    -0.158 A  
HETATM    4  C   UNL     1      -8.685   8.432  69.504  1.00  0.00    -0.137 A  
HETATM    5  N   UNL     1     -12.061   9.449  71.688  1.00  0.00    -0.365 NA 
HETATM    6  C   UNL     1      -9.363   9.619  69.203  1.00  0.00    -0.172 A  
HETATM    7  C   UNL     1     -10.966   9.192  70.968  1.00  0.00    -0.305 A  
HETATM    8  C   UNL     1     -10.512  10.024  69.938  1.00  0.00    -0.317 A  
HETATM    9  C   UNL     1     -10.245   8.054  71.294  1.00  0.00    -0.230 A  
HETATM   10  C   UNL     1     -11.261  11.205  69.743  1.00  0.00    -0.245 A  
HETATM   11  N   UNL     1     -12.373  11.459  70.462  1.00  0.00    -0.353 NA 
HETATM   12  C   UNL     1     -12.719  10.566  71.390  1.00  0.00    -0.442 A  
BRANCH   4  13
HETATM   13  O   UNL     1      -7.625   8.157  68.679  1.00  0.00    -0.098 OA 
BRANCH  13  14
HETATM   14  C   UNL     1      -7.945   7.939  67.293  1.00  0.00    -0.118 C  
BRANCH  14  15
HETATM   15  C   UNL     1      -6.726   7.280  66.648  1.00  0.00    -0.061 C  
BRANCH  15  16
HETATM   16  C   UNL     1      -7.039   6.010  65.848  1.00  0.00    -0.074 C  
BRANCH  16  17
HETATM   17  N   UNL     1      -6.392   5.899  64.531  1.00  0.00    -0.032 NA 
HETATM   18  C   UNL     1      -6.484   7.181  63.786  1.00  0.00    -0.044 C  
HETATM   19  C   UNL     1      -7.890   7.475  63.235  1.00  0.00    -0.126 C  
HETATM   20  C   UNL     1      -6.953   4.839  63.663  1.00  0.00    -0.048 C  
HETATM   21  C   UNL     1      -8.326   5.163  63.045  1.00  0.00    -0.111 C  
HETATM   22  O   UNL     1      -8.327   6.425  62.365  1.00  0.00    -0.097 OA 
ENDBRANCH  16  17
ENDBRANCH  15  16
ENDBRANCH  14  15
ENDBRANCH  13  14
ENDBRANCH   4  13
BRANCH  10  23
HETATM   23  N   UNL     1     -10.798  12.195  68.837  1.00  0.00    -0.282 NA 
HETATM   24  H   UNL     1     -10.380  13.017  69.273  1.00  0.00     0.000 HD 
BRANCH  23  25
HETATM   25  C   UNL     1     -10.830  12.216  67.424  1.00  0.00    -0.245 A  
HETATM   26 CL   UNL     1     -11.539  15.000  64.617  1.00  0.00    -0.410 Cl 
HETATM   27  C   UNL     1     -11.139  12.321  64.624  1.00  0.00    -0.313 A  
HETATM   28  C   UNL     1     -11.225  13.487  65.379  1.00  0.00    -0.289 A  
HETATM   29  C   UNL     1     -10.892  11.107  65.244  1.00  0.00    -0.222 A  
HETATM   30  F   UNL     1     -11.308  12.346  63.293  1.00  0.00    -0.471 F  
HETATM   31  C   UNL     1     -10.748  11.058  66.635  1.00  0.00    -0.305 A  
HETATM   32  C   UNL     1     -11.073  13.436  66.769  1.00  0.00    -0.308 A  
ENDBRANCH  23  25
ENDBRANCH  10  23
ENDBRANCH   2   3
TORSDOF 8
ENDMDL
MODEL      214
REMARK 921   NORMALIZED FREE ENERGY PREDICTED BY IDOCK:   -3.93 KCAL/MOL
REMARK 922        TOTAL FREE ENERGY PREDICTED BY IDOCK:   -7.39 KCAL/MOL
REMARK 923 INTER-LIGAND FREE ENERGY PREDICTED BY IDOCK:   -6.00 KCAL/MOL
REMARK 924 INTRA-LIGAND FREE ENERGY PREDICTED BY IDOCK:   -1.39 KCAL/MOL
REMARK 927      BINDING AFFINITY PREDICTED BY RF-SCORE:    0.00 PKD
ROOT
HETATM    1  C   UNL     1      -9.158   2.983  64.558  1.00  0.00    -0.128 C  
HETATM    2  O   UNL     1      -9.973   3.897  65.289  1.00  0.00    -0.187 OA 
ENDROOT
BRANCH   2   3
HETATM    3  C   UNL     1      -9.446   5.151  65.465  1.00  0.00    -0.080 A  
HETATM    4  C   UNL     1      -9.981   5.966  66.464  1.00  0.00    -0.153 A  
HETATM    5  N   UNL     1      -6.931   7.315  63.998  1.00  0.00    -0.054 NA 
HETATM    6  C   UNL     1      -9.574   7.302  66.547  1.00  0.00    -0.211 A  
HETATM    7  C   UNL     1      -7.936   6.949  64.798  1.00  0.00    -0.119 A  
HETATM    8  C   UNL     1      -8.548   7.819  65.707  1.00  0.00    -0.162 A  
HETATM    9  C   UNL     1      -8.396   5.647  64.684  1.00  0.00    -0.119 A  
HETATM   10  C   UNL     1      -8.072   9.148  65.684  1.00  0.00    -0.113 A  
HETATM   11  N   UNL     1      -7.049   9.515  64.885  1.00  0.00    -0.102 NA 
HETATM   12  C   UNL     1      -6.527   8.579  64.091  1.00  0.00    -0.071 A  
BRANCH   4  13
HETATM   13  O   UNL     1     -10.947   5.608  67.368  1.00  0.00    -0.199 OA 
BRANCH  13  14
HETATM   14  C   UNL     1     -10.998   6.386  68.577  1.00  0.00    -0.319 C  
BRANCH  14  15
HETATM   15  C   UNL     1     -10.531   5.480  69.716  1.00  0.00    -0.389 C  
BRANCH  15  16
HETATM   16  C   UNL     1      -9.617   6.165  70.740  1.00  0.00    -0.169 C  
BRANCH  16  17
HETATM   17  N   UNL     1      -8.493   5.360  71.244  1.00  0.00    -0.124 NA 
HETATM   18  C   UNL     1      -7.712   6.116  72.256  1.00  0.00    -0.100 C  
HETATM   19  C   UNL     1      -6.837   7.230  71.654  1.00  0.00    -0.055 C  
HETATM   20  C   UNL     1      -7.548   4.908  70.200  1.00  0.00    -0.059 C  
HETATM   21  C   UNL     1      -6.615   6.002  69.650  1.00  0.00    -0.044 C  
HETATM   22  O   UNL     1      -5.918   6.693  70.695  1.00  0.00    -0.026 OA 
ENDBRANCH  16  17
ENDBRANCH  15  16
ENDBRANCH  14  15
ENDBRANCH  13  14
ENDBRANCH   4  13
BRANCH  10  23
HETATM   23  N   UNL     1      -8.728  10.149  66.447  1.00  0.00    -0.129 NA 
HETATM   24  H   UNL     1      -8.398  10.245  67.407  1.00  0.00     0.000 HD 
BRANCH  23  25
HETATM   25  C   UNL     1      -9.768  11.033  66.079  1.00  0.00    -0.224 A  
HETATM   26 CL   UNL     1     -12.111  13.660  68.014  1.00  0.00    -0.369 Cl 
HETATM   27  C   UNL     1     -11.995  12.661  65.499  1.00  0.00    -0.456 A  
HETATM   28  C   UNL     1     -11.438  12.671  66.773  1.00  0.00    -0.351 A  
HETATM   29  C   UNL     1     -11.452  11.858  64.509  1.00  0.00    -0.363 A  
HETATM   30  F   UNL     1     -13.071  13.409  65.209  1.00  0.00    -0.499 F  
HETATM   31  C   UNL     1     -10.352  11.045  64.803  1.00  0.00    -0.389 A  
HETATM   32  C   UNL     1     -10.334  11.862  67.063  1.00  0.00    -0.239 A  
ENDBRANCH  23  25
ENDBRANCH  10  23
ENDBRANCH   2   3
TORSDOF 8
ENDMDL
MODEL      215
REMARK 921   NORMALIZED FREE ENERGY PREDICTED BY IDOCK:   -3.90 KCAL/MOL
REMARK 922        TOTAL FREE ENERGY PREDICTED BY IDOCK:   -7.35 KCAL/MOL
REMARK 923 INTER-LIGAND FREE ENERGY PREDICTED BY IDOCK:   -6.40 KCAL/MOL
REMARK 924 INTRA-LIGAND FREE ENERGY PREDICTED BY IDOCK:   -0.95 KCAL/MOL
REMARK 927      BINDING AFFINITY PREDICTED BY RF-SCORE:    0.00 PKD
ROOT
HETATM    1  C   UNL     1     -12.507  13.923  67.451  1.00  0.00     0.071 C  
HETATM    2  O   UNL     1     -12.000  14.440  66.222  1.00  0.00    -0.396 OA 
ENDROOT
BRANCH   2   3
HETATM    3  C   UNL     1     -10.722  14.936  66.269  1.00  0.00    -0.320 A  
HETATM    4  C   UNL     1      -9.673  14.054  66.533  1.00  0.00    -0.295 A  
HETATM    5  N   UNL     1      -8.986  18.110  66.003  1.00  0.00    -0.511 NA 
HETATM    6  C   UNL     1      -8.389  14.565  66.752  1.00  0.00    -0.041 A  
HETATM    7  C   UNL     1      -9.150  16.802  66.217  1.00  0.00    -0.285 A  
HETATM    8  C   UNL     1      -8.107  15.952  66.606  1.00  0.00    -0.298 A  
HETATM    9  C   UNL     1     -10.428  16.289  66.068  1.00  0.00    -0.342 A  
HETATM   10  C   UNL     1      -6.863  16.584  66.822  1.00  0.00    -0.190 A  
HETATM   11  N   UNL     1      -6.695  17.903  66.594  1.00  0.00    -0.184 NA 
HETATM   12  C   UNL     1      -7.761  18.594  66.189  1.00  0.00    -0.233 A  
BRANCH   4  13
HETATM   13  O   UNL     1      -9.775  12.694  66.669  1.00  0.00    -0.235 OA 
BRANCH  13  14
HETATM   14  C   UNL     1      -9.479  11.919  65.494  1.00  0.00    -0.138 C  
BRANCH  14  15
HETATM   15  C   UNL     1     -10.375  10.681  65.533  1.00  0.00    -0.297 C  
BRANCH  15  16
HETATM   16  C   UNL     1     -10.364   9.931  66.871  1.00  0.00    -0.235 C  
BRANCH  16  17
HETATM   17  N   UNL     1      -9.329   8.897  67.025  1.00  0.00    -0.146 NA 
HETATM   18  C   UNL     1      -9.735   7.636  66.355  1.00  0.00    -0.127 C  
HETATM   19  C   UNL     1     -10.830   6.861  67.110  1.00  0.00    -0.377 C  
HETATM   20  C   UNL     1      -8.999   8.568  68.430  1.00  0.00    -0.139 C  
HETATM   21  C   UNL     1     -10.057   7.725  69.165  1.00  0.00    -0.196 C  
HETATM   22  O   UNL     1     -10.403   6.539  68.438  1.00  0.00    -0.159 OA 
ENDBRANCH  16  17
ENDBRANCH  15  16
ENDBRANCH  14  15
ENDBRANCH  13  14
ENDBRANCH   4  13
BRANCH  10  23
HETATM   23  N   UNL     1      -5.781  15.849  67.372  1.00  0.00    -0.301 NA 
HETATM   24  H   UNL     1      -5.052  15.591  66.707  1.00  0.00     0.000 HD 
BRANCH  23  25
HETATM   25  C   UNL     1      -5.559  15.419  68.700  1.00  0.00    -0.093 A  
HETATM   26 CL   UNL     1      -5.910  11.942  70.680  1.00  0.00    -0.132 Cl 
HETATM   27  C   UNL     1      -5.366  14.507  71.360  1.00  0.00    -0.155 A  
HETATM   28  C   UNL     1      -5.652  13.611  70.336  1.00  0.00    -0.144 A  
HETATM   29  C   UNL     1      -5.167  15.848  71.076  1.00  0.00    -0.112 A  
HETATM   30  F   UNL     1      -5.295  14.098  72.636  1.00  0.00    -0.176 F  
HETATM   31  C   UNL     1      -5.272  16.298  69.756  1.00  0.00    -0.130 A  
HETATM   32  C   UNL     1      -5.750  14.062  69.015  1.00  0.00    -0.088 A  
ENDBRANCH  23  25
ENDBRANCH  10  23
ENDBRANCH   2   3
TORSDOF 8
ENDMDL
MODEL      216
REMARK 921   NORMALIZED FREE ENERGY PREDICTED BY IDOCK:   -3.84 KCAL/MOL
REMARK 922        TOTAL FREE ENERGY PREDICTED BY IDOCK:   -7.27 KCAL/MOL
REMARK 923 INTER-LIGAND FREE ENERGY PREDICTED BY IDOCK:   -6.02 KCAL/MOL
REMARK 924 INTRA-LIGAND FREE ENERGY PREDICTED BY IDOCK:   -1.24 KCAL/MOL
REMARK 927      BINDING AFFINITY PREDICTED BY RF-SCORE:    0.00 PKD
ROOT
HETATM    1  C   UNL     1     -11.404   6.218  69.261  1.00  0.00    -0.341 C  
HETATM    2  O   UNL     1     -11.342   6.612  70.630  1.00  0.00    -0.299 OA 
ENDROOT
BRANCH   2   3
HETATM    3  C   UNL     1     -10.194   7.257  71.010  1.00  0.00    -0.192 A  
HETATM    4  C   UNL     1      -9.989   8.568  70.576  1.00  0.00    -0.188 A  
HETATM    5  N   UNL     1      -7.156   6.602  72.880  1.00  0.00    -0.076 NA 
HETATM    6  C   UNL     1      -8.753   9.180  70.811  1.00  0.00    -0.285 A  
HETATM    7  C   UNL     1      -8.014   7.273  72.108  1.00  0.00    -0.093 A  
HETATM    8  C   UNL     1      -7.739   8.538  71.575  1.00  0.00    -0.146 A  
HETATM    9  C   UNL     1      -9.217   6.654  71.811  1.00  0.00    -0.148 A  
HETATM   10  C   UNL     1      -6.452   9.044  71.857  1.00  0.00    -0.002 A  
HETATM   11  N   UNL     1      -5.589   8.372  72.647  1.00  0.00    -0.048 NA 
HETATM   12  C   UNL     1      -5.988   7.192  73.123  1.00  0.00    -0.056 A  
BRANCH   4  13
HETATM   13  O   UNL     1     -10.876   9.330  69.861  1.00  0.00    -0.229 OA 
BRANCH  13  14
HETATM   14  C   UNL     1     -10.421  10.644  69.490  1.00  0.00    -0.204 C  
BRANCH  14  15
HETATM   15  C   UNL     1     -10.529  10.746  67.969  1.00  0.00    -0.225 C  
BRANCH  15  16
HETATM   16  C   UNL     1     -11.455  11.862  67.471  1.00  0.00    -0.326 C  
BRANCH  16  17
HETATM   17  N   UNL     1     -10.794  13.028  66.862  1.00  0.00    -0.262 NA 
HETATM   18  C   UNL     1     -11.758  14.140  66.664  1.00  0.00    -0.403 C  
HETATM   19  C   UNL     1     -12.741  13.905  65.504  1.00  0.00    -0.499 C  
HETATM   20  C   UNL     1     -10.156  12.754  65.555  1.00  0.00    -0.264 C  
HETATM   21  C   UNL     1     -11.132  12.598  64.375  1.00  0.00    -0.345 C  
HETATM   22  O   UNL     1     -12.037  13.704  64.273  1.00  0.00    -0.417 OA 
ENDBRANCH  16  17
ENDBRANCH  15  16
ENDBRANCH  14  15
ENDBRANCH  13  14
ENDBRANCH   4  13
BRANCH  10  23
HETATM   23  N   UNL     1      -6.010  10.241  71.236  1.00  0.00    -0.313 NA 
HETATM   24  H   UNL     1      -5.758  10.993  71.877  1.00  0.00     0.000 HD 
BRANCH  23  25
HETATM   25  C   UNL     1      -5.864  10.550  69.864  1.00  0.00    -0.059 A  
HETATM   26 CL   UNL     1      -7.203  13.446  67.424  1.00  0.00    -0.155 Cl 
HETATM   27  C   UNL     1      -5.827  11.135  67.106  1.00  0.00    -0.072 A  
HETATM   28  C   UNL     1      -6.442  12.009  67.996  1.00  0.00    -0.061 A  
HETATM   29  C   UNL     1      -5.223   9.978  67.573  1.00  0.00    -0.038 A  
HETATM   30  F   UNL     1      -5.820  11.381  65.788  1.00  0.00    -0.122 F  
HETATM   31  C   UNL     1      -5.251   9.687  68.941  1.00  0.00    -0.036 A  
HETATM   32  C   UNL     1      -6.463  11.720  69.364  1.00  0.00    -0.120 A  
ENDBRANCH  23  25
ENDBRANCH  10  23
ENDBRANCH   2   3
TORSDOF 8
ENDMDL
MODEL      217
REMARK 921   NORMALIZED FREE ENERGY PREDICTED BY IDOCK:   -3.83 KCAL/MOL
REMARK 922        TOTAL FREE ENERGY PREDICTED BY IDOCK:   -7.25 KCAL/MOL
REMARK 923 INTER-LIGAND FREE ENERGY PREDICTED BY IDOCK:   -6.18 KCAL/MOL
REMARK 924 INTRA-LIGAND FREE ENERGY PREDICTED BY IDOCK:   -1.06 KCAL/MOL
REMARK 927      BINDING AFFINITY PREDICTED BY RF-SCORE:    0.00 PKD
ROOT
HETATM    1  C   UNL     1      -9.960  12.185  63.926  1.00  0.00    -0.303 C  
HETATM    2  O   UNL     1      -9.178  11.760  65.041  1.00  0.00    -0.057 OA 
ENDROOT
BRANCH   2   3
HETATM    3  C   UNL     1      -9.617  10.627  65.676  1.00  0.00    -0.218 A  
HETATM    4  C   UNL     1     -10.599  10.750  66.660  1.00  0.00    -0.232 A  
HETATM    5  N   UNL     1      -8.951   7.061  65.724  1.00  0.00    -0.068 NA 
HETATM    6  C   UNL     1     -10.936   9.634  67.433  1.00  0.00    -0.139 A  
HETATM    7  C   UNL     1      -9.492   8.225  66.093  1.00  0.00    -0.171 A  
HETATM    8  C   UNL     1     -10.380   8.351  67.167  1.00  0.00    -0.381 A  
HETATM    9  C   UNL     1      -9.119   9.352  65.380  1.00  0.00    -0.280 A  
HETATM   10  C   UNL     1     -10.626   7.163  67.889  1.00  0.00    -0.208 A  
HETATM   11  N   UNL     1     -10.089   5.986  67.510  1.00  0.00    -0.143 NA 
HETATM   12  C   UNL     1      -9.287   5.994  66.444  1.00  0.00    -0.154 A  
BRANCH   4  13
HETATM   13  O   UNL     1     -11.250  11.904  67.012  1.00  0.00    -0.285 OA 
BRANCH  13  14
HETATM   14  C   UNL     1     -10.638  12.679  68.059  1.00  0.00    -0.221 C  
BRANCH  14  15
HETATM   15  C   UNL     1      -9.789  13.756  67.384  1.00  0.00    -0.238 C  
BRANCH  15  16
HETATM   16  C   UNL     1      -8.735  14.399  68.294  1.00  0.00    -0.180 C  
BRANCH  16  17
HETATM   17  N   UNL     1      -7.785  13.477  68.935  1.00  0.00    -0.034 NA 
HETATM   18  C   UNL     1      -6.554  14.192  69.357  1.00  0.00    -0.121 C  
HETATM   19  C   UNL     1      -5.628  14.569  68.187  1.00  0.00    -0.124 C  
HETATM   20  C   UNL     1      -7.369  12.340  68.084  1.00  0.00    -0.105 C  
HETATM   21  C   UNL     1      -6.379  12.698  66.960  1.00  0.00     0.188 C  
HETATM   22  O   UNL     1      -5.233  13.403  67.454  1.00  0.00    -0.330 OA 
ENDBRANCH  16  17
ENDBRANCH  15  16
ENDBRANCH  14  15
ENDBRANCH  13  14
ENDBRANCH   4  13
BRANCH  10  23
HETATM   23  N   UNL     1     -11.381   7.207  69.090  1.00  0.00    -0.480 NA 
HETATM   24  H   UNL     1     -12.388   7.100  68.971  1.00  0.00     0.000 HD 
BRANCH  23  25
HETATM   25  C   UNL     1     -10.950   7.376  70.426  1.00  0.00    -0.251 A  
HETATM   26 CL   UNL     1      -7.506   8.409  72.215  1.00  0.00    -0.148 Cl 
HETATM   27  C   UNL     1      -9.926   7.523  73.048  1.00  0.00    -0.268 A  
HETATM   28  C   UNL     1      -9.129   7.886  71.968  1.00  0.00    -0.148 A  
HETATM   29  C   UNL     1     -11.228   7.098  72.841  1.00  0.00    -0.302 A  
HETATM   30  F   UNL     1      -9.449   7.562  74.302  1.00  0.00    -0.281 F  
HETATM   31  C   UNL     1     -11.730   7.018  71.537  1.00  0.00    -0.337 A  
HETATM   32  C   UNL     1      -9.635   7.811  70.666  1.00  0.00    -0.166 A  
ENDBRANCH  23  25
ENDBRANCH  10  23
ENDBRANCH   2   3
TORSDOF 8
ENDMDL
MODEL      218
REMARK 921   NORMALIZED FREE ENERGY PREDICTED BY IDOCK:   -3.73 KCAL/MOL
REMARK 922        TOTAL FREE ENERGY PREDICTED BY IDOCK:   -7.11 KCAL/MOL
REMARK 923 INTER-LIGAND FREE ENERGY PREDICTED BY IDOCK:   -5.55 KCAL/MOL
REMARK 924 INTRA-LIGAND FREE ENERGY PREDICTED BY IDOCK:   -1.56 KCAL/MOL
REMARK 927      BINDING AFFINITY PREDICTED BY RF-SCORE:    0.00 PKD
ROOT
HETATM    1  C   UNL     1      -9.195  13.380  67.993  1.00  0.00    -0.209 C  
HETATM    2  O   UNL     1     -10.467  12.736  67.932  1.00  0.00    -0.211 OA 
ENDROOT
BRANCH   2   3
HETATM    3  C   UNL     1     -10.486  11.423  68.329  1.00  0.00    -0.198 A  
HETATM    4  C   UNL     1     -10.523  10.430  67.349  1.00  0.00    -0.249 A  
HETATM    5  N   UNL     1     -10.576   9.467  71.382  1.00  0.00    -0.309 NA 
HETATM    6  C   UNL     1     -10.713   9.098  67.732  1.00  0.00    -0.243 A  
HETATM    7  C   UNL     1     -10.596   9.717  70.071  1.00  0.00    -0.260 A  
HETATM    8  C   UNL     1     -10.762   8.719  69.102  1.00  0.00    -0.150 A  
HETATM    9  C   UNL     1     -10.474  11.039  69.674  1.00  0.00    -0.069 A  
HETATM   10  C   UNL     1     -10.971   7.418  69.608  1.00  0.00    -0.172 A  
HETATM   11  N   UNL     1     -10.938   7.163  70.932  1.00  0.00    -0.244 NA 
HETATM   12  C   UNL     1     -10.734   8.198  71.748  1.00  0.00    -0.251 A  
BRANCH   4  13
HETATM   13  O   UNL     1     -10.454  10.629  65.994  1.00  0.00    -0.239 OA 
BRANCH  13  14
HETATM   14  C   UNL     1      -9.137  10.842  65.454  1.00  0.00    -0.194 C  
BRANCH  14  15
HETATM   15  C   UNL     1      -8.879   9.725  64.442  1.00  0.00    -0.258 C  
BRANCH  15  16
HETATM   16  C   UNL     1      -7.568   8.960  64.659  1.00  0.00    -0.108 C  
BRANCH  16  17
HETATM   17  N   UNL     1      -6.809   8.619  63.446  1.00  0.00    -0.089 NA 
HETATM   18  C   UNL     1      -7.680   7.951  62.446  1.00  0.00    -0.122 C  
HETATM   19  C   UNL     1      -8.036   6.499  62.810  1.00  0.00    -0.092 C  
HETATM   20  C   UNL     1      -5.645   7.737  63.682  1.00  0.00    -0.049 C  
HETATM   21  C   UNL     1      -5.993   6.265  63.968  1.00  0.00    -0.022 C  
HETATM   22  O   UNL     1      -6.852   5.708  62.965  1.00  0.00    -0.034 OA 
ENDBRANCH  16  17
ENDBRANCH  15  16
ENDBRANCH  14  15
ENDBRANCH  13  14
ENDBRANCH   4  13
BRANCH  10  23
HETATM   23  N   UNL     1     -11.309   6.361  68.723  1.00  0.00    -0.571 NA 
HETATM   24  H   UNL     1     -12.302   6.128  68.689  1.00  0.00     0.000 HD 
BRANCH  23  25
HETATM   25  C   UNL     1     -10.482   5.581  67.883  1.00  0.00    -0.178 A  
HETATM   26 CL   UNL     1      -7.269   3.230  68.413  1.00  0.00    -0.050 Cl 
HETATM   27  C   UNL     1      -8.637   4.179  66.277  1.00  0.00    -0.113 A  
HETATM   28  C   UNL     1      -8.533   4.130  67.663  1.00  0.00    -0.098 A  
HETATM   29  C   UNL     1      -9.653   4.910  65.682  1.00  0.00    -0.168 A  
HETATM   30  F   UNL     1      -7.755   3.540  65.494  1.00  0.00    -0.077 F  
HETATM   31  C   UNL     1     -10.561   5.611  66.482  1.00  0.00    -0.320 A  
HETATM   32  C   UNL     1      -9.446   4.827  68.462  1.00  0.00    -0.200 A  
ENDBRANCH  23  25
ENDBRANCH  10  23
ENDBRANCH   2   3
TORSDOF 8
ENDMDL
MODEL      219
REMARK 921   NORMALIZED FREE ENERGY PREDICTED BY IDOCK:   -3.72 KCAL/MOL
REMARK 922        TOTAL FREE ENERGY PREDICTED BY IDOCK:   -7.10 KCAL/MOL
REMARK 923 INTER-LIGAND FREE ENERGY PREDICTED BY IDOCK:   -6.13 KCAL/MOL
REMARK 924 INTRA-LIGAND FREE ENERGY PREDICTED BY IDOCK:   -0.97 KCAL/MOL
REMARK 927      BINDING AFFINITY PREDICTED BY RF-SCORE:    0.00 PKD
ROOT
HETATM    1  C   UNL     1     -10.200  19.454  68.116  1.00  0.00    -0.431 C  
HETATM    2  O   UNL     1     -10.448  18.409  67.177  1.00  0.00    -0.381 OA 
ENDROOT
BRANCH   2   3
HETATM    3  C   UNL     1      -9.562  17.363  67.207  1.00  0.00    -0.258 A  
HETATM    4  C   UNL     1     -10.066  16.062  67.215  1.00  0.00    -0.266 A  
HETATM    5  N   UNL     1      -5.986  16.784  67.384  1.00  0.00    -0.146 NA 
HETATM    6  C   UNL     1      -9.189  14.990  67.415  1.00  0.00    -0.200 A  
HETATM    7  C   UNL     1      -7.288  16.490  67.367  1.00  0.00    -0.147 A  
HETATM    8  C   UNL     1      -7.782  15.188  67.504  1.00  0.00    -0.205 A  
HETATM    9  C   UNL     1      -8.175  17.546  67.234  1.00  0.00    -0.222 A  
HETATM   10  C   UNL     1      -6.806  14.193  67.727  1.00  0.00    -0.176 A  
HETATM   11  N   UNL     1      -5.490  14.487  67.732  1.00  0.00    -0.301 NA 
HETATM   12  C   UNL     1      -5.148  15.764  67.553  1.00  0.00    -0.021 A  
BRANCH   4  13
HETATM   13  O   UNL     1     -11.385  15.705  67.107  1.00  0.00    -0.229 OA 
BRANCH  13  14
HETATM   14  C   UNL     1     -11.943  15.008  68.236  1.00  0.00    -0.183 C  
BRANCH  14  15
HETATM   15  C   UNL     1     -12.042  16.014  69.383  1.00  0.00    -0.090 C  
BRANCH  15  16
HETATM   16  C   UNL     1     -12.926  15.561  70.551  1.00  0.00    -0.290 C  
BRANCH  16  17
HETATM   17  N   UNL     1     -12.256  14.783  71.605  1.00  0.00    -0.335 NA 
HETATM   18  C   UNL     1     -11.679  13.530  71.055  1.00  0.00     0.428 C  
HETATM   19  C   UNL     1     -12.733  12.457  70.728  1.00  0.00    -0.123 C  
HETATM   20  C   UNL     1     -13.131  14.409  72.738  1.00  0.00    -0.505 C  
HETATM   21  C   UNL     1     -14.135  13.280  72.439  1.00  0.00    -0.359 C  
HETATM   22  O   UNL     1     -13.495  12.120  71.892  1.00  0.00    -0.399 OA 
ENDBRANCH  16  17
ENDBRANCH  15  16
ENDBRANCH  14  15
ENDBRANCH  13  14
ENDBRANCH   4  13
BRANCH  10  23
HETATM   23  N   UNL     1      -7.205  12.867  68.039  1.00  0.00    -0.101 NA 
HETATM   24  H   UNL     1      -7.456  12.710  69.015  1.00  0.00     0.000 HD 
BRANCH  23  25
HETATM   25  C   UNL     1      -7.307  11.731  67.204  1.00  0.00    -0.146 A  
HETATM   26 CL   UNL     1     -10.101  10.234  64.737  1.00  0.00    -0.398 Cl 
HETATM   27  C   UNL     1      -7.708   9.390  65.684  1.00  0.00    -0.099 A  
HETATM   28  C   UNL     1      -8.661  10.404  65.667  1.00  0.00    -0.167 A  
HETATM   29  C   UNL     1      -6.555   9.532  66.440  1.00  0.00    -0.071 A  
HETATM   30  F   UNL     1      -7.891   8.258  64.988  1.00  0.00    -0.097 F  
HETATM   31  C   UNL     1      -6.364  10.691  67.200  1.00  0.00    -0.070 A  
HETATM   32  C   UNL     1      -8.464  11.565  66.423  1.00  0.00    -0.138 A  
ENDBRANCH  23  25
ENDBRANCH  10  23
ENDBRANCH   2   3
TORSDOF 8
ENDMDL
MODEL      220
REMARK 921   NORMALIZED FREE ENERGY PREDICTED BY IDOCK:   -3.71 KCAL/MOL
REMARK 922        TOTAL FREE ENERGY PREDICTED BY IDOCK:   -7.08 KCAL/MOL
REMARK 923 INTER-LIGAND FREE ENERGY PREDICTED BY IDOCK:   -5.56 KCAL/MOL
REMARK 924 INTRA-LIGAND FREE ENERGY PREDICTED BY IDOCK:   -1.52 KCAL/MOL
REMARK 927      BINDING AFFINITY PREDICTED BY RF-SCORE:    0.00 PKD
ROOT
HETATM    1  C   UNL     1      -5.257  19.991  70.470  1.00  0.00    -0.232 C  
HETATM    2  O   UNL     1      -5.408  19.233  69.271  1.00  0.00    -0.191 OA 
ENDROOT
BRANCH   2   3
HETATM    3  C   UNL     1      -5.347  17.871  69.418  1.00  0.00    -0.195 A  
HETATM    4  C   UNL     1      -5.406  17.072  68.276  1.00  0.00    -0.123 A  
HETATM    5  N   UNL     1      -5.152  15.391  72.059  1.00  0.00    -0.110 NA 
HETATM    6  C   UNL     1      -5.515  15.684  68.417  1.00  0.00    -0.103 A  
HETATM    7  C   UNL     1      -5.270  15.873  70.819  1.00  0.00    -0.164 A  
HETATM    8  C   UNL     1      -5.457  15.061  69.695  1.00  0.00    -0.096 A  
HETATM    9  C   UNL     1      -5.230  17.250  70.667  1.00  0.00    -0.260 A  
HETATM   10  C   UNL     1      -5.578  13.680  69.962  1.00  0.00    -0.115 A  
HETATM   11  N   UNL     1      -5.446  13.192  71.213  1.00  0.00    -0.276 NA 
HETATM   12  C   UNL     1      -5.232  14.070  72.193  1.00  0.00    -0.206 A  
BRANCH   4  13
HETATM   13  O   UNL     1      -5.436  17.516  66.979  1.00  0.00    -0.123 OA 
BRANCH  13  14
HETATM   14  C   UNL     1      -6.364  16.849  66.105  1.00  0.00     0.328 C  
BRANCH  14  15
HETATM   15  C   UNL     1      -7.767  17.313  66.499  1.00  0.00    -0.325 C  
BRANCH  15  16
HETATM   16  C   UNL     1      -8.859  16.250  66.330  1.00  0.00    -0.331 C  
BRANCH  16  17
HETATM   17  N   UNL     1     -10.245  16.742  66.319  1.00  0.00    -0.322 NA 
HETATM   18  C   UNL     1     -10.478  17.696  67.433  1.00  0.00    -0.356 C  
HETATM   19  C   UNL     1     -10.573  17.020  68.813  1.00  0.00    -0.346 C  
HETATM   20  C   UNL     1     -11.271  15.681  66.420  1.00  0.00    -0.038 C  
HETATM   21  C   UNL     1     -11.425  15.057  67.819  1.00  0.00    -0.334 C  
HETATM   22  O   UNL     1     -11.625  16.049  68.833  1.00  0.00    -0.372 OA 
ENDBRANCH  16  17
ENDBRANCH  15  16
ENDBRANCH  14  15
ENDBRANCH  13  14
ENDBRANCH   4  13
BRANCH  10  23
HETATM   23  N   UNL     1      -5.929  12.784  68.919  1.00  0.00    -0.071 NA 
HETATM   24  H   UNL     1      -5.158  12.502  68.314  1.00  0.00     0.000 HD 
BRANCH  23  25
HETATM   25  C   UNL     1      -7.185  12.224  68.590  1.00  0.00    -0.105 A  
HETATM   26 CL   UNL     1      -9.388   9.148  69.937  1.00  0.00    -0.182 Cl 
HETATM   27  C   UNL     1      -9.563  10.892  67.872  1.00  0.00    -0.166 A  
HETATM   28  C   UNL     1      -8.846  10.482  68.991  1.00  0.00    -0.169 A  
HETATM   29  C   UNL     1      -9.117  11.962  67.113  1.00  0.00    -0.178 A  
HETATM   30  F   UNL     1     -10.684  10.256  67.499  1.00  0.00    -0.256 F  
HETATM   31  C   UNL     1      -7.932  12.615  67.467  1.00  0.00    -0.174 A  
HETATM   32  C   UNL     1      -7.664  11.141  69.347  1.00  0.00     0.026 A  
ENDBRANCH  23  25
ENDBRANCH  10  23
ENDBRANCH   2   3
TORSDOF 8
ENDMDL
MODEL      221
REMARK 921   NORMALIZED FREE ENERGY PREDICTED BY IDOCK:   -3.71 KCAL/MOL
REMARK 922        TOTAL FREE ENERGY PREDICTED BY IDOCK:   -7.08 KCAL/MOL
REMARK 923 INTER-LIGAND FREE ENERGY PREDICTED BY IDOCK:   -6.67 KCAL/MOL
REMARK 924 INTRA-LIGAND FREE ENERGY PREDICTED BY IDOCK:   -0.41 KCAL/MOL
REMARK 927      BINDING AFFINITY PREDICTED BY RF-SCORE:    0.00 PKD
ROOT
HETATM    1  C   UNL     1      -5.782  16.115  67.464  1.00  0.00    -0.146 C  
HETATM    2  O   UNL     1      -7.087  15.605  67.733  1.00  0.00    -0.125 OA 
ENDROOT
BRANCH   2   3
HETATM    3  C   UNL     1      -7.216  14.242  67.666  1.00  0.00    -0.183 A  
HETATM    4  C   UNL     1      -8.498  13.695  67.593  1.00  0.00    -0.183 A  
HETATM    5  N   UNL     1      -5.136  11.270  67.710  1.00  0.00    -0.040 NA 
HETATM    6  C   UNL     1      -8.658  12.309  67.695  1.00  0.00    -0.169 A  
HETATM    7  C   UNL     1      -6.256  11.998  67.705  1.00  0.00    -0.096 A  
HETATM    8  C   UNL     1      -7.536  11.436  67.761  1.00  0.00    -0.105 A  
HETATM    9  C   UNL     1      -6.116  13.376  67.670  1.00  0.00    -0.129 A  
HETATM   10  C   UNL     1      -7.572  10.030  67.887  1.00  0.00    -0.089 A  
HETATM   11  N   UNL     1      -6.442   9.294  67.880  1.00  0.00    -0.059 NA 
HETATM   12  C   UNL     1      -5.285   9.950  67.783  1.00  0.00    -0.035 A  
BRANCH   4  13
HETATM   13  O   UNL     1      -9.671  14.397  67.494  1.00  0.00    -0.212 OA 
BRANCH  13  14
HETATM   14  C   UNL     1     -10.880  13.622  67.590  1.00  0.00    -0.256 C  
BRANCH  14  15
HETATM   15  C   UNL     1     -11.913  14.486  68.313  1.00  0.00    -0.303 C  
BRANCH  15  16
HETATM   16  C   UNL     1     -11.878  14.374  69.842  1.00  0.00    -0.323 C  
BRANCH  16  17
HETATM   17  N   UNL     1     -12.886  15.157  70.572  1.00  0.00    -0.366 NA 
HETATM   18  C   UNL     1     -12.269  15.891  71.706  1.00  0.00    -0.481 C  
HETATM   19  C   UNL     1     -11.896  14.987  72.895  1.00  0.00    -0.263 C  
HETATM   20  C   UNL     1     -14.005  14.357  71.117  1.00  0.00    -0.132 C  
HETATM   21  C   UNL     1     -13.657  13.511  72.355  1.00  0.00    -0.608 C  
HETATM   22  O   UNL     1     -13.047  14.295  73.389  1.00  0.00    -0.554 OA 
ENDBRANCH  16  17
ENDBRANCH  15  16
ENDBRANCH  14  15
ENDBRANCH  13  14
ENDBRANCH   4  13
BRANCH  10  23
HETATM   23  N   UNL     1      -8.808   9.371  68.114  1.00  0.00    -0.125 NA 
HETATM   24  H   UNL     1      -9.487   9.902  68.659  1.00  0.00     0.000 HD 
BRANCH  23  25
HETATM   25  C   UNL     1      -9.243   8.091  67.700  1.00  0.00    -0.133 A  
HETATM   26 CL   UNL     1      -7.526   4.918  65.934  1.00  0.00    -0.081 Cl 
HETATM   27  C   UNL     1     -10.049   5.609  66.634  1.00  0.00    -0.198 A  
HETATM   28  C   UNL     1      -8.706   5.970  66.619  1.00  0.00    -0.123 A  
HETATM   29  C   UNL     1     -10.994   6.463  67.181  1.00  0.00    -0.476 A  
HETATM   30  F   UNL     1     -10.458   4.443  66.110  1.00  0.00    -0.260 F  
HETATM   31  C   UNL     1     -10.590   7.698  67.701  1.00  0.00    -0.294 A  
HETATM   32  C   UNL     1      -8.305   7.202  67.145  1.00  0.00    -0.118 A  
ENDBRANCH  23  25
ENDBRANCH  10  23
ENDBRANCH   2   3
TORSDOF 8
ENDMDL
MODEL      222
REMARK 921   NORMALIZED FREE ENERGY PREDICTED BY IDOCK:   -3.63 KCAL/MOL
REMARK 922        TOTAL FREE ENERGY PREDICTED BY IDOCK:   -6.96 KCAL/MOL
REMARK 923 INTER-LIGAND FREE ENERGY PREDICTED BY IDOCK:   -5.98 KCAL/MOL
REMARK 924 INTRA-LIGAND FREE ENERGY PREDICTED BY IDOCK:   -0.98 KCAL/MOL
REMARK 927      BINDING AFFINITY PREDICTED BY RF-SCORE:    0.00 PKD
ROOT
HETATM    1  C   UNL     1      -6.693   6.978  65.013  1.00  0.00    -0.047 C  
HETATM    2  O   UNL     1      -6.824   7.618  66.280  1.00  0.00    -0.059 OA 
ENDROOT
BRANCH   2   3
HETATM    3  C   UNL     1      -7.828   7.142  67.084  1.00  0.00    -0.110 A  
HETATM    4  C   UNL     1      -9.128   7.603  66.873  1.00  0.00    -0.144 A  
HETATM    5  N   UNL     1      -8.268   4.929  69.924  1.00  0.00    -0.072 NA 
HETATM    6  C   UNL     1     -10.132   7.261  67.786  1.00  0.00    -0.225 A  
HETATM    7  C   UNL     1      -8.599   5.816  68.982  1.00  0.00    -0.106 A  
HETATM    8  C   UNL     1      -9.881   6.366  68.864  1.00  0.00    -0.152 A  
HETATM    9  C   UNL     1      -7.601   6.216  68.109  1.00  0.00    -0.098 A  
HETATM   10  C   UNL     1     -10.802   5.966  69.856  1.00  0.00    -0.369 A  
HETATM   11  N   UNL     1     -10.472   5.062  70.800  1.00  0.00    -0.199 NA 
HETATM   12  C   UNL     1      -9.227   4.585  70.780  1.00  0.00    -0.139 A  
BRANCH   4  13
HETATM   13  O   UNL     1      -9.535   8.440  65.867  1.00  0.00    -0.188 OA 
BRANCH  13  14
HETATM   14  C   UNL     1     -10.229   9.632  66.280  1.00  0.00    -0.216 C  
BRANCH  14  15
HETATM   15  C   UNL     1      -9.187  10.746  66.385  1.00  0.00    -0.191 C  
BRANCH  15  16
HETATM   16  C   UNL     1      -9.772  12.144  66.616  1.00  0.00    -0.219 C  
BRANCH  16  17
HETATM   17  N   UNL     1      -9.484  12.758  67.921  1.00  0.00    -0.201 NA 
HETATM   18  C   UNL     1      -9.631  14.234  67.857  1.00  0.00    -0.221 C  
HETATM   19  C   UNL     1      -8.485  14.936  67.108  1.00  0.00    -0.220 C  
HETATM   20  C   UNL     1      -8.132  12.469  68.447  1.00  0.00    -0.136 C  
HETATM   21  C   UNL     1      -6.987  13.230  67.753  1.00  0.00    -0.153 C  
HETATM   22  O   UNL     1      -7.223  14.643  67.717  1.00  0.00    -0.140 OA 
ENDBRANCH  16  17
ENDBRANCH  15  16
ENDBRANCH  14  15
ENDBRANCH  13  14
ENDBRANCH   4  13
BRANCH  10  23
HETATM   23  N   UNL     1     -12.079   6.584  69.927  1.00  0.00    -0.479 NA 
HETATM   24  H   UNL     1     -12.837   6.059  69.490  1.00  0.00     0.000 HD 
BRANCH  23  25
HETATM   25  C   UNL     1     -12.460   7.814  70.510  1.00  0.00     0.307 A  
HETATM   26 CL   UNL     1     -11.469  11.668  69.967  1.00  0.00    -0.313 Cl 
HETATM   27  C   UNL     1     -12.976  10.293  71.749  1.00  0.00    -0.469 A  
HETATM   28  C   UNL     1     -12.172  10.235  70.615  1.00  0.00    -0.329 A  
HETATM   29  C   UNL     1     -13.533   9.135  72.267  1.00  0.00    -0.546 A  
HETATM   30  F   UNL     1     -13.214  11.459  72.368  1.00  0.00    -0.578 F  
HETATM   31  C   UNL     1     -13.267   7.905  71.655  1.00  0.00    -0.367 A  
HETATM   32  C   UNL     1     -11.913   9.005  70.000  1.00  0.00     0.397 A  
ENDBRANCH  23  25
ENDBRANCH  10  23
ENDBRANCH   2   3
TORSDOF 8
ENDMDL
MODEL      223
REMARK 921   NORMALIZED FREE ENERGY PREDICTED BY IDOCK:   -3.56 KCAL/MOL
REMARK 922        TOTAL FREE ENERGY PREDICTED BY IDOCK:   -6.85 KCAL/MOL
REMARK 923 INTER-LIGAND FREE ENERGY PREDICTED BY IDOCK:   -6.51 KCAL/MOL
REMARK 924 INTRA-LIGAND FREE ENERGY PREDICTED BY IDOCK:   -0.34 KCAL/MOL
REMARK 927      BINDING AFFINITY PREDICTED BY RF-SCORE:    0.00 PKD
ROOT
HETATM    1  C   UNL     1      -7.178  16.147  66.935  1.00  0.00    -0.205 C  
HETATM    2  O   UNL     1      -8.225  15.320  66.428  1.00  0.00    -0.121 OA 
ENDROOT
BRANCH   2   3
HETATM    3  C   UNL     1      -8.305  14.065  66.973  1.00  0.00    -0.104 A  
HETATM    4  C   UNL     1      -9.358  13.234  66.585  1.00  0.00    -0.242 A  
HETATM    5  N   UNL     1      -6.575  11.998  69.401  1.00  0.00    -0.113 NA 
HETATM    6  C   UNL     1      -9.552  12.020  67.253  1.00  0.00    -0.185 A  
HETATM    7  C   UNL     1      -7.520  12.354  68.527  1.00  0.00    -0.112 A  
HETATM    8  C   UNL     1      -8.639  11.562  68.243  1.00  0.00    -0.161 A  
HETATM    9  C   UNL     1      -7.378  13.583  67.904  1.00  0.00    -0.149 A  
HETATM   10  C   UNL     1      -8.743  10.373  68.996  1.00  0.00    -0.168 A  
HETATM   11  N   UNL     1      -7.783  10.007  69.870  1.00  0.00    -0.166 NA 
HETATM   12  C   UNL     1      -6.747  10.833  70.021  1.00  0.00    -0.149 A  
BRANCH   4  13
HETATM   13  O   UNL     1     -10.298  13.515  65.629  1.00  0.00    -0.284 OA 
BRANCH  13  14
HETATM   14  C   UNL     1     -11.646  13.110  65.931  1.00  0.00    -0.354 C  
BRANCH  14  15
HETATM   15  C   UNL     1     -12.371  14.337  66.484  1.00  0.00    -0.345 C  
BRANCH  15  16
HETATM   16  C   UNL     1     -11.448  15.492  66.891  1.00  0.00    -0.000 C  
BRANCH  16  17
HETATM   17  N   UNL     1     -11.771  16.162  68.160  1.00  0.00    -0.143 NA 
HETATM   18  C   UNL     1     -10.622  16.971  68.640  1.00  0.00    -0.362 C  
HETATM   19  C   UNL     1      -9.468  16.127  69.209  1.00  0.00    -0.224 C  
HETATM   20  C   UNL     1     -12.157  15.244  69.254  1.00  0.00    -0.249 C  
HETATM   21  C   UNL     1     -10.993  14.455  69.881  1.00  0.00    -0.061 C  
HETATM   22  O   UNL     1      -9.921  15.312  70.296  1.00  0.00    -0.170 OA 
ENDBRANCH  16  17
ENDBRANCH  15  16
ENDBRANCH  14  15
ENDBRANCH  13  14
ENDBRANCH   4  13
BRANCH  10  23
HETATM   23  N   UNL     1      -9.915   9.577  68.906  1.00  0.00    -0.173 NA 
HETATM   24  H   UNL     1     -10.423   9.655  68.026  1.00  0.00     0.000 HD 
BRANCH  23  25
HETATM   25  C   UNL     1     -10.486   8.694  69.851  1.00  0.00    -0.218 A  
HETATM   26 CL   UNL     1     -10.309   4.742  70.546  1.00  0.00    -0.252 Cl 
HETATM   27  C   UNL     1     -11.740   6.816  71.539  1.00  0.00    -0.317 A  
HETATM   28  C   UNL     1     -10.757   6.403  70.646  1.00  0.00    -0.257 A  
HETATM   29  C   UNL     1     -12.100   8.152  71.608  1.00  0.00    -0.342 A  
HETATM   30  F   UNL     1     -12.367   5.935  72.333  1.00  0.00    -0.361 F  
HETATM   31  C   UNL     1     -11.481   9.080  70.763  1.00  0.00    -0.331 A  
HETATM   32  C   UNL     1     -10.135   7.333  69.806  1.00  0.00    -0.196 A  
ENDBRANCH  23  25
ENDBRANCH  10  23
ENDBRANCH   2   3
TORSDOF 8
ENDMDL
MODEL      224
REMARK 921   NORMALIZED FREE ENERGY PREDICTED BY IDOCK:   -3.51 KCAL/MOL
REMARK 922        TOTAL FREE ENERGY PREDICTED BY IDOCK:   -6.78 KCAL/MOL
REMARK 923 INTER-LIGAND FREE ENERGY PREDICTED BY IDOCK:   -6.18 KCAL/MOL
REMARK 924 INTRA-LIGAND FREE ENERGY PREDICTED BY IDOCK:   -0.61 KCAL/MOL
REMARK 927      BINDING AFFINITY PREDICTED BY RF-SCORE:    0.00 PKD
ROOT
HETATM    1  C   UNL     1      -9.914  18.300  67.159  1.00  0.00    -0.337 C  
HETATM    2  O   UNL     1      -9.260  18.068  68.405  1.00  0.00    -0.281 OA 
ENDROOT
BRANCH   2   3
HETATM    3  C   UNL     1      -8.663  16.842  68.541  1.00  0.00    -0.245 A  
HETATM    4  C   UNL     1      -9.332  15.715  68.062  1.00  0.00    -0.193 A  
HETATM    5  N   UNL     1      -5.658  15.382  69.956  1.00  0.00    -0.123 NA 
HETATM    6  C   UNL     1      -8.819  14.443  68.342  1.00  0.00    -0.182 A  
HETATM    7  C   UNL     1      -6.857  15.423  69.371  1.00  0.00    -0.174 A  
HETATM    8  C   UNL     1      -7.574  14.276  69.010  1.00  0.00    -0.084 A  
HETATM    9  C   UNL     1      -7.411  16.673  69.144  1.00  0.00    -0.217 A  
HETATM   10  C   UNL     1      -6.970  13.051  69.366  1.00  0.00     0.104 A  
HETATM   11  N   UNL     1      -5.753  13.009  69.946  1.00  0.00    -0.113 NA 
HETATM   12  C   UNL     1      -5.158  14.175  70.204  1.00  0.00    -0.090 A  
BRANCH   4  13
HETATM   13  O   UNL     1     -10.518  15.711  67.375  1.00  0.00    -0.277 OA 
BRANCH  13  14
HETATM   14  C   UNL     1     -10.971  14.428  66.905  1.00  0.00    -0.308 C  
BRANCH  14  15
HETATM   15  C   UNL     1     -12.329  14.164  67.554  1.00  0.00    -0.106 C  
BRANCH  15  16
HETATM   16  C   UNL     1     -12.282  13.982  69.076  1.00  0.00    -0.245 C  
BRANCH  16  17
HETATM   17  N   UNL     1     -12.823  15.090  69.877  1.00  0.00    -0.085 NA 
HETATM   18  C   UNL     1     -11.733  15.968  70.374  1.00  0.00    -0.309 C  
HETATM   19  C   UNL     1     -10.913  15.346  71.518  1.00  0.00    -0.091 C  
HETATM   20  C   UNL     1     -13.619  14.664  71.050  1.00  0.00    -0.276 C  
HETATM   21  C   UNL     1     -12.796  14.114  72.229  1.00  0.00    -0.331 C  
HETATM   22  O   UNL     1     -11.756  15.016  72.627  1.00  0.00    -0.359 OA 
ENDBRANCH  16  17
ENDBRANCH  15  16
ENDBRANCH  14  15
ENDBRANCH  13  14
ENDBRANCH   4  13
BRANCH  10  23
HETATM   23  N   UNL     1      -7.680  11.834  69.195  1.00  0.00    -0.344 NA 
HETATM   24  H   UNL     1      -7.826  11.296  70.048  1.00  0.00     0.000 HD 
BRANCH  23  25
HETATM   25  C   UNL     1      -8.217  11.256  68.022  1.00  0.00    -0.134 A  
HETATM   26 CL   UNL     1      -6.723   9.960  64.526  1.00  0.00    -0.119 Cl 
HETATM   27  C   UNL     1      -9.204  10.308  65.557  1.00  0.00    -0.190 A  
HETATM   28  C   UNL     1      -7.832  10.402  65.769  1.00  0.00    -0.150 A  
HETATM   29  C   UNL     1     -10.089  10.671  66.559  1.00  0.00    -0.275 A  
HETATM   30  F   UNL     1      -9.694   9.883  64.383  1.00  0.00    -0.347 F  
HETATM   31  C   UNL     1      -9.596  11.149  67.778  1.00  0.00    -0.180 A  
HETATM   32  C   UNL     1      -7.341  10.874  66.991  1.00  0.00    -0.118 A  
ENDBRANCH  23  25
ENDBRANCH  10  23
ENDBRANCH   2   3
TORSDOF 8
ENDMDL
MODEL      225
REMARK 921   NORMALIZED FREE ENERGY PREDICTED BY IDOCK:   -3.37 KCAL/MOL
REMARK 922        TOTAL FREE ENERGY PREDICTED BY IDOCK:   -6.58 KCAL/MOL
REMARK 923 INTER-LIGAND FREE ENERGY PREDICTED BY IDOCK:   -5.86 KCAL/MOL
REMARK 924 INTRA-LIGAND FREE ENERGY PREDICTED BY IDOCK:   -0.72 KCAL/MOL
REMARK 927      BINDING AFFINITY PREDICTED BY RF-SCORE:    0.00 PKD
ROOT
HETATM    1  C   UNL     1      -5.276  12.855  69.016  1.00  0.00    -0.068 C  
HETATM    2  O   UNL     1      -6.504  12.436  69.608  1.00  0.00    -0.119 OA 
ENDROOT
BRANCH   2   3
HETATM    3  C   UNL     1      -7.358  11.752  68.782  1.00  0.00    -0.114 A  
HETATM    4  C   UNL     1      -7.452  10.366  68.918  1.00  0.00    -0.099 A  
HETATM    5  N   UNL     1      -9.617  12.389  66.017  1.00  0.00    -0.235 NA 
HETATM    6  C   UNL     1      -8.186   9.635  67.977  1.00  0.00    -0.110 A  
HETATM    7  C   UNL     1      -8.919  11.680  66.907  1.00  0.00    -0.191 A  
HETATM    8  C   UNL     1      -8.926  10.281  66.948  1.00  0.00    -0.149 A  
HETATM    9  C   UNL     1      -8.136  12.385  67.806  1.00  0.00    -0.162 A  
HETATM   10  C   UNL     1      -9.681   9.652  65.934  1.00  0.00    -0.275 A  
HETATM   11  N   UNL     1     -10.395  10.368  65.042  1.00  0.00    -0.262 NA 
HETATM   12  C   UNL     1     -10.333  11.697  65.135  1.00  0.00    -0.279 A  
BRANCH   4  13
HETATM   13  O   UNL     1      -6.829   9.604  69.871  1.00  0.00    -0.056 OA 
BRANCH  13  14
HETATM   14  C   UNL     1      -7.124   8.195  69.844  1.00  0.00    -0.059 C  
BRANCH  14  15
HETATM   15  C   UNL     1      -7.653   7.819  71.228  1.00  0.00    -0.080 C  
BRANCH  15  16
HETATM   16  C   UNL     1      -9.057   8.351  71.538  1.00  0.00    -0.195 C  
BRANCH  16  17
HETATM   17  N   UNL     1      -9.485   8.268  72.943  1.00  0.00    -0.266 NA 
HETATM   18  C   UNL     1      -8.347   7.898  73.823  1.00  0.00    -0.237 C  
HETATM   19  C   UNL     1      -7.932   6.420  73.708  1.00  0.00    -0.101 C  
HETATM   20  C   UNL     1     -10.574   7.297  73.194  1.00  0.00    -0.355 C  
HETATM   21  C   UNL     1     -10.147   5.818  73.158  1.00  0.00    -0.183 C  
HETATM   22  O   UNL     1      -9.031   5.557  74.019  1.00  0.00    -0.120 OA 
ENDBRANCH  16  17
ENDBRANCH  15  16
ENDBRANCH  14  15
ENDBRANCH  13  14
ENDBRANCH   4  13
BRANCH  10  23
HETATM   23  N   UNL     1      -9.627   8.242  65.784  1.00  0.00    -0.446 NA 
HETATM   24  H   UNL     1      -9.604   7.911  64.819  1.00  0.00     0.000 HD 
BRANCH  23  25
HETATM   25  C   UNL     1      -9.602   7.225  66.766  1.00  0.00    -0.185 A  
HETATM   26 CL   UNL     1     -11.769   6.344  70.031  1.00  0.00    -0.456 Cl 
HETATM   27  C   UNL     1      -9.505   5.382  68.897  1.00  0.00    -0.133 A  
HETATM   28  C   UNL     1     -10.544   6.304  68.820  1.00  0.00    -0.262 A  
HETATM   29  C   UNL     1      -8.520   5.361  67.923  1.00  0.00    -0.098 A  
HETATM   30  F   UNL     1      -9.427   4.513  69.916  1.00  0.00    -0.167 F  
HETATM   31  C   UNL     1      -8.567   6.283  66.871  1.00  0.00    -0.113 A  
HETATM   32  C   UNL     1     -10.592   7.221  67.764  1.00  0.00    -0.289 A  
ENDBRANCH  23  25
ENDBRANCH  10  23
ENDBRANCH   2   3
TORSDOF 8
ENDMDL
MODEL      226
REMARK 921   NORMALIZED FREE ENERGY PREDICTED BY IDOCK:   -3.32 KCAL/MOL
REMARK 922        TOTAL FREE ENERGY PREDICTED BY IDOCK:   -6.50 KCAL/MOL
REMARK 923 INTER-LIGAND FREE ENERGY PREDICTED BY IDOCK:   -5.53 KCAL/MOL
REMARK 924 INTRA-LIGAND FREE ENERGY PREDICTED BY IDOCK:   -0.97 KCAL/MOL
REMARK 927      BINDING AFFINITY PREDICTED BY RF-SCORE:    0.00 PKD
ROOT
HETATM    1  C   UNL     1      -6.093   8.887  66.443  1.00  0.00    -0.060 C  
HETATM    2  O   UNL     1      -6.437  10.210  66.035  1.00  0.00    -0.085 OA 
ENDROOT
BRANCH   2   3
HETATM    3  C   UNL     1      -7.506  10.771  66.685  1.00  0.00    -0.135 A  
HETATM    4  C   UNL     1      -7.533  10.737  68.080  1.00  0.00    -0.090 A  
HETATM    5  N   UNL     1     -10.653  12.402  65.913  1.00  0.00    -0.252 NA 
HETATM    6  C   UNL     1      -8.689  11.151  68.752  1.00  0.00    -0.130 A  
HETATM    7  C   UNL     1      -9.696  11.849  66.663  1.00  0.00    -0.205 A  
HETATM    8  C   UNL     1      -9.796  11.707  68.052  1.00  0.00    -0.193 A  
HETATM    9  C   UNL     1      -8.572  11.374  66.007  1.00  0.00    -0.094 A  
HETATM   10  C   UNL     1     -11.017  12.136  68.615  1.00  0.00    -0.245 A  
HETATM   11  N   UNL     1     -11.978  12.706  67.861  1.00  0.00    -0.350 NA 
HETATM   12  C   UNL     1     -11.744  12.817  66.553  1.00  0.00    -0.400 A  
BRANCH   4  13
HETATM   13  O   UNL     1      -6.538  10.265  68.896  1.00  0.00    -0.051 OA 
BRANCH  13  14
HETATM   14  C   UNL     1      -6.970   9.516  70.047  1.00  0.00    -0.081 C  
BRANCH  14  15
HETATM   15  C   UNL     1      -6.819   8.034  69.702  1.00  0.00    -0.042 C  
BRANCH  15  16
HETATM   16  C   UNL     1      -8.136   7.249  69.680  1.00  0.00    -0.129 C  
BRANCH  16  17
HETATM   17  N   UNL     1      -8.069   5.859  70.156  1.00  0.00    -0.108 NA 
HETATM   18  C   UNL     1      -7.149   5.054  69.312  1.00  0.00    -0.056 C  
HETATM   19  C   UNL     1      -7.726   4.708  67.928  1.00  0.00    -0.082 C  
HETATM   20  C   UNL     1      -9.373   5.160  70.185  1.00  0.00    -0.154 C  
HETATM   21  C   UNL     1      -9.916   4.741  68.807  1.00  0.00    -0.112 C  
HETATM   22  O   UNL     1      -8.957   3.987  68.054  1.00  0.00    -0.106 OA 
ENDBRANCH  16  17
ENDBRANCH  15  16
ENDBRANCH  14  15
ENDBRANCH  13  14
ENDBRANCH   4  13
BRANCH  10  23
HETATM   23  N   UNL     1     -11.288  11.892  69.987  1.00  0.00    -0.510 NA 
HETATM   24  H   UNL     1     -11.254  12.716  70.587  1.00  0.00     0.000 HD 
BRANCH  23  25
HETATM   25  C   UNL     1     -11.598  10.681  70.648  1.00  0.00    -0.336 A  
HETATM   26 CL   UNL     1      -9.497   7.854  72.577  1.00  0.00    -0.237 Cl 
HETATM   27  C   UNL     1     -12.072   8.148  71.792  1.00  0.00    -0.315 A  
HETATM   28  C   UNL     1     -10.799   8.707  71.839  1.00  0.00    -0.348 A  
HETATM   29  C   UNL     1     -13.113   8.838  71.191  1.00  0.00    -0.110 A  
HETATM   30  F   UNL     1     -12.313   6.934  72.308  1.00  0.00    -0.307 F  
HETATM   31  C   UNL     1     -12.871  10.091  70.617  1.00  0.00    -0.263 A  
HETATM   32  C   UNL     1     -10.562   9.963  71.270  1.00  0.00     0.060 A  
ENDBRANCH  23  25
ENDBRANCH  10  23
ENDBRANCH   2   3
TORSDOF 8
ENDMDL
MODEL      227
REMARK 921   NORMALIZED FREE ENERGY PREDICTED BY IDOCK:   -3.27 KCAL/MOL
REMARK 922        TOTAL FREE ENERGY PREDICTED BY IDOCK:   -6.43 KCAL/MOL
REMARK 923 INTER-LIGAND FREE ENERGY PREDICTED BY IDOCK:   -4.88 KCAL/MOL
REMARK 924 INTRA-LIGAND FREE ENERGY PREDICTED BY IDOCK:   -1.56 KCAL/MOL
REMARK 927      BINDING AFFINITY PREDICTED BY RF-SCORE:    0.00 PKD
ROOT
HETATM    1  C   UNL     1     -11.775   6.358  70.315  1.00  0.00    -0.320 C  
HETATM    2  O   UNL     1     -11.702   7.580  71.045  1.00  0.00    -0.285 OA 
ENDROOT
BRANCH   2   3
HETATM    3  C   UNL     1     -10.462   8.160  71.108  1.00  0.00    -0.199 A  
HETATM    4  C   UNL     1     -10.019   8.911  70.018  1.00  0.00    -0.190 A  
HETATM    5  N   UNL     1      -7.615   8.343  73.349  1.00  0.00    -0.321 NA 
HETATM    6  C   UNL     1      -8.696   9.367  69.993  1.00  0.00    -0.227 A  
HETATM    7  C   UNL     1      -8.329   8.531  72.236  1.00  0.00    -0.117 A  
HETATM    8  C   UNL     1      -7.825   9.177  71.101  1.00  0.00    -0.119 A  
HETATM    9  C   UNL     1      -9.620   8.029  72.219  1.00  0.00    -0.286 A  
HETATM   10  C   UNL     1      -6.471   9.569  71.183  1.00  0.00    -0.036 A  
HETATM   11  N   UNL     1      -5.753   9.391  72.310  1.00  0.00    -0.225 NA 
HETATM   12  C   UNL     1      -6.364   8.796  73.336  1.00  0.00    -0.003 A  
BRANCH   4  13
HETATM   13  O   UNL     1     -10.745   9.209  68.894  1.00  0.00    -0.212 OA 
BRANCH  13  14
HETATM   14  C   UNL     1     -10.000   9.749  67.787  1.00  0.00    -0.168 C  
BRANCH  14  15
HETATM   15  C   UNL     1     -10.129   8.758  66.631  1.00  0.00    -0.358 C  
BRANCH  15  16
HETATM   16  C   UNL     1      -9.106   7.615  66.657  1.00  0.00    -0.164 C  
BRANCH  16  17
HETATM   17  N   UNL     1      -9.604   6.312  67.124  1.00  0.00    -0.128 NA 
HETATM   18  C   UNL     1      -8.752   5.781  68.219  1.00  0.00    -0.111 C  
HETATM   19  C   UNL     1      -7.388   5.254  67.739  1.00  0.00    -0.076 C  
HETATM   20  C   UNL     1      -9.675   5.273  66.072  1.00  0.00    -0.139 C  
HETATM   21  C   UNL     1      -8.317   4.686  65.645  1.00  0.00    -0.116 C  
HETATM   22  O   UNL     1      -7.556   4.218  66.766  1.00  0.00    -0.083 OA 
ENDBRANCH  16  17
ENDBRANCH  15  16
ENDBRANCH  14  15
ENDBRANCH  13  14
ENDBRANCH   4  13
BRANCH  10  23
HETATM   23  N   UNL     1      -5.813  10.086  70.036  1.00  0.00    -0.044 NA 
HETATM   24  H   UNL     1      -4.987   9.565  69.741  1.00  0.00     0.000 HD 
BRANCH  23  25
HETATM   25  C   UNL     1      -6.128  11.210  69.239  1.00  0.00    -0.056 A  
HETATM   26 CL   UNL     1      -6.801  15.109  69.930  1.00  0.00    -0.177 Cl 
HETATM   27  C   UNL     1      -6.975  13.470  67.782  1.00  0.00    -0.159 A  
HETATM   28  C   UNL     1      -6.660  13.589  69.131  1.00  0.00    -0.109 A  
HETATM   29  C   UNL     1      -6.866  12.242  67.147  1.00  0.00    -0.101 A  
HETATM   30  F   UNL     1      -7.405  14.527  67.076  1.00  0.00    -0.195 F  
HETATM   31  C   UNL     1      -6.453  11.122  67.876  1.00  0.00    -0.058 A  
HETATM   32  C   UNL     1      -6.241  12.469  69.856  1.00  0.00    -0.094 A  
ENDBRANCH  23  25
ENDBRANCH  10  23
ENDBRANCH   2   3
TORSDOF 8
ENDMDL
MODEL      228
REMARK 921   NORMALIZED FREE ENERGY PREDICTED BY IDOCK:   -3.25 KCAL/MOL
REMARK 922        TOTAL FREE ENERGY PREDICTED BY IDOCK:   -6.41 KCAL/MOL
REMARK 923 INTER-LIGAND FREE ENERGY PREDICTED BY IDOCK:   -5.51 KCAL/MOL
REMARK 924 INTRA-LIGAND FREE ENERGY PREDICTED BY IDOCK:   -0.89 KCAL/MOL
REMARK 927      BINDING AFFINITY PREDICTED BY RF-SCORE:    0.00 PKD
ROOT
HETATM    1  C   UNL     1      -9.723  16.183  68.524  1.00  0.00    -0.217 C  
HETATM    2  O   UNL     1      -9.093  15.815  67.299  1.00  0.00    -0.199 OA 
ENDROOT
BRANCH   2   3
HETATM    3  C   UNL     1      -8.730  14.497  67.192  1.00  0.00    -0.219 A  
HETATM    4  C   UNL     1      -9.468  13.667  66.347  1.00  0.00    -0.234 A  
HETATM    5  N   UNL     1      -6.303  12.186  68.580  1.00  0.00    -0.059 NA 
HETATM    6  C   UNL     1      -9.220  12.290  66.353  1.00  0.00    -0.203 A  
HETATM    7  C   UNL     1      -7.352  12.597  67.864  1.00  0.00    -0.116 A  
HETATM    8  C   UNL     1      -8.161  11.730  67.121  1.00  0.00    -0.169 A  
HETATM    9  C   UNL     1      -7.652  13.949  67.898  1.00  0.00    -0.158 A  
HETATM   10  C   UNL     1      -7.831  10.361  67.225  1.00  0.00    -0.106 A  
HETATM   11  N   UNL     1      -6.764   9.947  67.937  1.00  0.00    -0.067 NA 
HETATM   12  C   UNL     1      -6.051  10.880  68.570  1.00  0.00    -0.042 A  
BRANCH   4  13
HETATM   13  O   UNL     1     -10.493  14.057  65.524  1.00  0.00    -0.298 OA 
BRANCH  13  14
HETATM   14  C   UNL     1     -11.786  14.177  66.144  1.00  0.00    -0.407 C  
BRANCH  14  15
HETATM   15  C   UNL     1     -11.945  12.986  67.089  1.00  0.00    -0.389 C  
BRANCH  15  16
HETATM   16  C   UNL     1     -12.389  13.357  68.509  1.00  0.00     0.106 C  
BRANCH  16  17
HETATM   17  N   UNL     1     -11.450  13.020  69.590  1.00  0.00    -0.224 NA 
HETATM   18  C   UNL     1     -11.316  11.548  69.735  1.00  0.00    -0.226 C  
HETATM   19  C   UNL     1     -12.538  10.878  70.388  1.00  0.00    -0.294 C  
HETATM   20  C   UNL     1     -11.822  13.565  70.915  1.00  0.00     0.072 C  
HETATM   21  C   UNL     1     -12.994  12.846  71.607  1.00  0.00    -0.313 C  
HETATM   22  O   UNL     1     -12.789  11.430  71.685  1.00  0.00    -0.420 OA 
ENDBRANCH  16  17
ENDBRANCH  15  16
ENDBRANCH  14  15
ENDBRANCH  13  14
ENDBRANCH   4  13
BRANCH  10  23
HETATM   23  N   UNL     1      -8.679   9.382  66.644  1.00  0.00    -0.130 NA 
HETATM   24  H   UNL     1      -9.265   9.718  65.880  1.00  0.00     0.000 HD 
BRANCH  23  25
HETATM   25  C   UNL     1      -8.835   8.014  66.963  1.00  0.00    -0.133 A  
HETATM   26 CL   UNL     1     -11.407   5.866  69.178  1.00  0.00    -0.247 Cl 
HETATM   27  C   UNL     1      -9.107   5.350  67.843  1.00  0.00    -0.109 A  
HETATM   28  C   UNL     1     -10.062   6.299  68.192  1.00  0.00    -0.152 A  
HETATM   29  C   UNL     1      -8.025   5.707  67.056  1.00  0.00    -0.102 A  
HETATM   30  F   UNL     1      -9.204   4.082  68.273  1.00  0.00    -0.135 F  
HETATM   31  C   UNL     1      -7.889   7.032  66.628  1.00  0.00    -0.106 A  
HETATM   32  C   UNL     1      -9.927   7.622  67.757  1.00  0.00    -0.219 A  
ENDBRANCH  23  25
ENDBRANCH  10  23
ENDBRANCH   2   3
TORSDOF 8
ENDMDL
MODEL      229
REMARK 921   NORMALIZED FREE ENERGY PREDICTED BY IDOCK:   -3.07 KCAL/MOL
REMARK 922        TOTAL FREE ENERGY PREDICTED BY IDOCK:   -6.14 KCAL/MOL
REMARK 923 INTER-LIGAND FREE ENERGY PREDICTED BY IDOCK:   -6.02 KCAL/MOL
REMARK 924 INTRA-LIGAND FREE ENERGY PREDICTED BY IDOCK:   -0.12 KCAL/MOL
REMARK 927      BINDING AFFINITY PREDICTED BY RF-SCORE:    0.00 PKD
ROOT
HETATM    1  C   UNL     1      -6.281   8.476  67.559  1.00  0.00    -0.053 C  
HETATM    2  O   UNL     1      -7.235   9.021  66.650  1.00  0.00    -0.083 OA 
ENDROOT
BRANCH   2   3
HETATM    3  C   UNL     1      -7.832  10.189  67.046  1.00  0.00    -0.102 A  
HETATM    4  C   UNL     1      -9.106  10.130  67.613  1.00  0.00    -0.137 A  
HETATM    5  N   UNL     1      -7.184  13.759  67.031  1.00  0.00     0.121 NA 
HETATM    6  C   UNL     1      -9.798  11.319  67.866  1.00  0.00    -0.187 A  
HETATM    7  C   UNL     1      -7.866  12.625  67.210  1.00  0.00    -0.155 A  
HETATM    8  C   UNL     1      -9.191  12.590  67.660  1.00  0.00    -0.190 A  
HETATM    9  C   UNL     1      -7.219  11.440  66.902  1.00  0.00    -0.144 A  
HETATM   10  C   UNL     1      -9.794  13.851  67.858  1.00  0.00    -0.228 A  
HETATM   11  N   UNL     1      -9.102  14.996  67.688  1.00  0.00    -0.179 NA 
HETATM   12  C   UNL     1      -7.833  14.890  67.292  1.00  0.00    -0.206 A  
BRANCH   4  13
HETATM   13  O   UNL     1      -9.809   8.989  67.901  1.00  0.00    -0.158 OA 
BRANCH  13  14
HETATM   14  C   UNL     1      -9.030   7.864  68.347  1.00  0.00    -0.133 C  
BRANCH  14  15
HETATM   15  C   UNL     1     -10.006   6.719  68.614  1.00  0.00    -0.147 C  
BRANCH  15  16
HETATM   16  C   UNL     1     -10.592   6.701  70.031  1.00  0.00    -0.224 C  
BRANCH  16  17
HETATM   17  N   UNL     1     -11.780   7.541  70.250  1.00  0.00    -0.100 NA 
HETATM   18  C   UNL     1     -11.444   8.730  71.074  1.00  0.00    -0.285 C  
HETATM   19  C   UNL     1     -11.216   8.406  72.561  1.00  0.00    -0.336 C  
HETATM   20  C   UNL     1     -12.906   6.845  70.913  1.00  0.00    -0.061 C  
HETATM   21  C   UNL     1     -12.716   6.590  72.419  1.00  0.00     0.166 C  
HETATM   22  O   UNL     1     -12.374   7.786  73.131  1.00  0.00     0.172 OA 
ENDBRANCH  16  17
ENDBRANCH  15  16
ENDBRANCH  14  15
ENDBRANCH  13  14
ENDBRANCH   4  13
BRANCH  10  23
HETATM   23  N   UNL     1     -11.179  13.935  68.157  1.00  0.00    -0.256 NA 
HETATM   24  H   UNL     1     -11.801  13.832  67.355  1.00  0.00     0.000 HD 
BRANCH  23  25
HETATM   25  C   UNL     1     -11.828  14.138  69.396  1.00  0.00    -0.330 A  
HETATM   26 CL   UNL     1     -13.378  11.764  72.241  1.00  0.00    -0.408 Cl 
HETATM   27  C   UNL     1     -13.327  14.430  71.766  1.00  0.00    -0.366 A  
HETATM   28  C   UNL     1     -12.936  13.165  71.340  1.00  0.00    -0.298 A  
HETATM   29  C   UNL     1     -12.974  15.551  71.032  1.00  0.00    -0.550 A  
HETATM   30  F   UNL     1     -14.062  14.588  72.877  1.00  0.00    -0.457 F  
HETATM   31  C   UNL     1     -12.237  15.402  69.852  1.00  0.00    -0.363 A  
HETATM   32  C   UNL     1     -12.194  13.018  70.163  1.00  0.00    -0.342 A  
ENDBRANCH  23  25
ENDBRANCH  10  23
ENDBRANCH   2   3
TORSDOF 8
ENDMDL
MODEL      230
REMARK 921   NORMALIZED FREE ENERGY PREDICTED BY IDOCK:   -3.01 KCAL/MOL
REMARK 922        TOTAL FREE ENERGY PREDICTED BY IDOCK:   -6.05 KCAL/MOL
REMARK 923 INTER-LIGAND FREE ENERGY PREDICTED BY IDOCK:   -5.46 KCAL/MOL
REMARK 924 INTRA-LIGAND FREE ENERGY PREDICTED BY IDOCK:   -0.59 KCAL/MOL
REMARK 927      BINDING AFFINITY PREDICTED BY RF-SCORE:    0.00 PKD
ROOT
HETATM    1  C   UNL     1      -8.482   3.824  64.948  1.00  0.00    -0.104 C  
HETATM    2  O   UNL     1      -7.958   4.666  65.973  1.00  0.00    -0.101 OA 
ENDROOT
BRANCH   2   3
HETATM    3  C   UNL     1      -8.266   5.997  65.861  1.00  0.00    -0.129 A  
HETATM    4  C   UNL     1      -8.730   6.672  66.991  1.00  0.00    -0.113 A  
HETATM    5  N   UNL     1      -8.376   8.598  63.335  1.00  0.00    -0.163 NA 
HETATM    6  C   UNL     1      -9.208   7.981  66.858  1.00  0.00    -0.191 A  
HETATM    7  C   UNL     1      -8.544   8.023  64.529  1.00  0.00     0.145 A  
HETATM    8  C   UNL     1      -9.130   8.677  65.619  1.00  0.00    -0.221 A  
HETATM    9  C   UNL     1      -8.137   6.706  64.661  1.00  0.00    -0.088 A  
HETATM   10  C   UNL     1      -9.597   9.983  65.358  1.00  0.00    -0.279 A  
HETATM   11  N   UNL     1      -9.416  10.569  64.157  1.00  0.00    -0.266 NA 
HETATM   12  C   UNL     1      -8.809   9.850  63.212  1.00  0.00    -0.245 A  
BRANCH   4  13
HETATM   13  O   UNL     1      -8.835   6.154  68.256  1.00  0.00    -0.114 OA 
BRANCH  13  14
HETATM   14  C   UNL     1     -10.103   5.563  68.592  1.00  0.00    -0.183 C  
BRANCH  14  15
HETATM   15  C   UNL     1      -9.810   4.280  69.370  1.00  0.00    -0.205 C  
BRANCH  15  16
HETATM   16  C   UNL     1      -8.888   4.468  70.581  1.00  0.00    -0.100 C  
BRANCH  16  17
HETATM   17  N   UNL     1      -9.018   3.471  71.655  1.00  0.00    -0.101 NA 
HETATM   18  C   UNL     1     -10.429   3.354  72.101  1.00  0.00     0.087 C  
HETATM   19  C   UNL     1     -10.910   4.545  72.948  1.00  0.00    -0.199 C  
HETATM   20  C   UNL     1      -8.195   3.753  72.852  1.00  0.00    -0.090 C  
HETATM   21  C   UNL     1      -8.717   4.893  73.746  1.00  0.00    -0.105 C  
HETATM   22  O   UNL     1     -10.091   4.708  74.110  1.00  0.00    -0.160 OA 
ENDBRANCH  16  17
ENDBRANCH  15  16
ENDBRANCH  14  15
ENDBRANCH  13  14
ENDBRANCH   4  13
BRANCH  10  23
HETATM   23  N   UNL     1     -10.350  10.676  66.343  1.00  0.00    -0.237 NA 
HETATM   24  H   UNL     1     -10.831  10.080  67.016  1.00  0.00     0.000 HD 
BRANCH  23  25
HETATM   25  C   UNL     1     -10.534  12.065  66.532  1.00  0.00    -0.221 A  
HETATM   26 CL   UNL     1     -11.793  15.123  64.254  1.00  0.00    -0.346 Cl 
HETATM   27  C   UNL     1     -10.724  14.870  66.730  1.00  0.00    -0.312 A  
HETATM   28  C   UNL     1     -11.156  14.222  65.578  1.00  0.00    -0.323 A  
HETATM   29  C   UNL     1     -10.207  14.139  67.787  1.00  0.00    -0.242 A  
HETATM   30  F   UNL     1     -10.782  16.207  66.834  1.00  0.00    -0.315 F  
HETATM   31  C   UNL     1     -10.106  12.748  67.682  1.00  0.00    -0.220 A  
HETATM   32  C   UNL     1     -11.061  12.830  65.477  1.00  0.00    -0.318 A  
ENDBRANCH  23  25
ENDBRANCH  10  23
ENDBRANCH   2   3
TORSDOF 8
ENDMDL
MODEL      231
REMARK 921   NORMALIZED FREE ENERGY PREDICTED BY IDOCK:   -3.01 KCAL/MOL
REMARK 922        TOTAL FREE ENERGY PREDICTED BY IDOCK:   -6.05 KCAL/MOL
REMARK 923 INTER-LIGAND FREE ENERGY PREDICTED BY IDOCK:   -5.22 KCAL/MOL
REMARK 924 INTRA-LIGAND FREE ENERGY PREDICTED BY IDOCK:   -0.83 KCAL/MOL
REMARK 927      BINDING AFFINITY PREDICTED BY RF-SCORE:    0.00 PKD
ROOT
HETATM    1  C   UNL     1      -9.762  10.786  64.398  1.00  0.00    -0.301 C  
HETATM    2  O   UNL     1      -9.097  10.400  65.599  1.00  0.00    -0.161 OA 
ENDROOT
BRANCH   2   3
HETATM    3  C   UNL     1      -9.420   9.160  66.084  1.00  0.00    -0.245 A  
HETATM    4  C   UNL     1     -10.360   9.068  67.111  1.00  0.00    -0.272 A  
HETATM    5  N   UNL     1      -8.490   5.686  65.608  1.00  0.00    -0.141 NA 
HETATM    6  C   UNL     1     -10.577   7.833  67.732  1.00  0.00    -0.254 A  
HETATM    7  C   UNL     1      -9.098   6.741  66.155  1.00  0.00    -0.109 A  
HETATM    8  C   UNL     1      -9.942   6.647  67.268  1.00  0.00    -0.199 A  
HETATM    9  C   UNL     1      -8.844   7.982  65.594  1.00  0.00    -0.133 A  
HETATM   10  C   UNL     1     -10.064   5.356  67.825  1.00  0.00    -0.171 A  
HETATM   11  N   UNL     1      -9.460   4.288  67.265  1.00  0.00    -0.168 NA 
HETATM   12  C   UNL     1      -8.712   4.507  66.182  1.00  0.00    -0.114 A  
BRANCH   4  13
HETATM   13  O   UNL     1     -11.078  10.107  67.645  1.00  0.00    -0.301 OA 
BRANCH  13  14
HETATM   14  C   UNL     1     -10.439  10.832  68.711  1.00  0.00    -0.199 C  
BRANCH  14  15
HETATM   15  C   UNL     1      -9.107  10.137  68.994  1.00  0.00    -0.176 C  
BRANCH  15  16
HETATM   16  C   UNL     1      -8.970   9.580  70.416  1.00  0.00    -0.243 C  
BRANCH  16  17
HETATM   17  N   UNL     1      -8.216   8.324  70.549  1.00  0.00    -0.110 NA 
HETATM   18  C   UNL     1      -7.468   8.288  71.831  1.00  0.00    -0.098 C  
HETATM   19  C   UNL     1      -6.232   9.205  71.851  1.00  0.00    -0.008 C  
HETATM   20  C   UNL     1      -7.244   8.077  69.461  1.00  0.00    -0.070 C  
HETATM   21  C   UNL     1      -5.968   8.937  69.521  1.00  0.00    -0.036 C  
HETATM   22  O   UNL     1      -5.324   8.859  70.799  1.00  0.00    -0.027 OA 
ENDBRANCH  16  17
ENDBRANCH  15  16
ENDBRANCH  14  15
ENDBRANCH  13  14
ENDBRANCH   4  13
BRANCH  10  23
HETATM   23  N   UNL     1     -10.763   5.174  69.047  1.00  0.00    -0.003 NA 
HETATM   24  H   UNL     1     -11.778   5.242  68.978  1.00  0.00     0.000 HD 
BRANCH  23  25
HETATM   25  C   UNL     1     -10.266   4.914  70.345  1.00  0.00    -0.222 A  
HETATM   26 CL   UNL     1     -10.467   6.756  73.909  1.00  0.00    -0.389 Cl 
HETATM   27  C   UNL     1      -9.144   4.612  72.913  1.00  0.00    -0.121 A  
HETATM   28  C   UNL     1     -10.043   5.643  72.663  1.00  0.00    -0.180 A  
HETATM   29  C   UNL     1      -8.803   3.726  71.904  1.00  0.00    -0.134 A  
HETATM   30  F   UNL     1      -8.579   4.466  74.121  1.00  0.00    -0.098 F  
HETATM   31  C   UNL     1      -9.356   3.884  70.629  1.00  0.00    -0.225 A  
HETATM   32  C   UNL     1     -10.600   5.795  71.389  1.00  0.00    -0.313 A  
ENDBRANCH  23  25
ENDBRANCH  10  23
ENDBRANCH   2   3
TORSDOF 8
ENDMDL
MODEL      232
REMARK 921   NORMALIZED FREE ENERGY PREDICTED BY IDOCK:   -2.96 KCAL/MOL
REMARK 922        TOTAL FREE ENERGY PREDICTED BY IDOCK:   -5.97 KCAL/MOL
REMARK 923 INTER-LIGAND FREE ENERGY PREDICTED BY IDOCK:   -5.24 KCAL/MOL
REMARK 924 INTRA-LIGAND FREE ENERGY PREDICTED BY IDOCK:   -0.73 KCAL/MOL
REMARK 927      BINDING AFFINITY PREDICTED BY RF-SCORE:    0.00 PKD
ROOT
HETATM    1  C   UNL     1      -8.942  12.925  67.767  1.00  0.00    -0.191 C  
HETATM    2  O   UNL     1     -10.219  12.289  67.758  1.00  0.00    -0.196 OA 
ENDROOT
BRANCH   2   3
HETATM    3  C   UNL     1     -10.201  10.922  67.851  1.00  0.00    -0.179 A  
HETATM    4  C   UNL     1     -10.466  10.170  66.706  1.00  0.00    -0.204 A  
HETATM    5  N   UNL     1      -9.738   8.336  70.353  1.00  0.00    -0.167 NA 
HETATM    6  C   UNL     1     -10.619   8.784  66.817  1.00  0.00    -0.220 A  
HETATM    7  C   UNL     1     -10.014   8.870  69.161  1.00  0.00    -0.190 A  
HETATM    8  C   UNL     1     -10.403   8.110  68.052  1.00  0.00    -0.267 A  
HETATM    9  C   UNL     1      -9.931  10.248  69.049  1.00  0.00    -0.223 A  
HETATM   10  C   UNL     1     -10.549   6.726  68.291  1.00  0.00    -0.230 A  
HETATM   11  N   UNL     1     -10.258   6.185  69.491  1.00  0.00    -0.183 NA 
HETATM   12  C   UNL     1      -9.861   7.015  70.456  1.00  0.00    -0.179 A  
BRANCH   4  13
HETATM   13  O   UNL     1     -10.665  10.665  65.443  1.00  0.00    -0.171 OA 
BRANCH  13  14
HETATM   14  C   UNL     1      -9.478  10.898  64.663  1.00  0.00    -0.244 C  
BRANCH  14  15
HETATM   15  C   UNL     1      -8.970   9.533  64.198  1.00  0.00    -0.240 C  
BRANCH  15  16
HETATM   16  C   UNL     1      -8.046   9.581  62.976  1.00  0.00    -0.146 C  
BRANCH  16  17
HETATM   17  N   UNL     1      -7.383   8.318  62.615  1.00  0.00    -0.096 NA 
HETATM   18  C   UNL     1      -7.651   7.270  63.632  1.00  0.00    -0.114 C  
HETATM   19  C   UNL     1      -6.876   7.472  64.946  1.00  0.00    -0.047 C  
HETATM   20  C   UNL     1      -5.915   8.421  62.459  1.00  0.00    -0.083 C  
HETATM   21  C   UNL     1      -5.129   8.544  63.777  1.00  0.00    -0.055 C  
HETATM   22  O   UNL     1      -5.465   7.505  64.706  1.00  0.00    -0.032 OA 
ENDBRANCH  16  17
ENDBRANCH  15  16
ENDBRANCH  14  15
ENDBRANCH  13  14
ENDBRANCH   4  13
BRANCH  10  23
HETATM   23  N   UNL     1     -11.092   5.887  67.283  1.00  0.00    -0.463 NA 
HETATM   24  H   UNL     1     -12.098   5.980  67.140  1.00  0.00     0.000 HD 
BRANCH  23  25
HETATM   25  C   UNL     1     -10.453   4.942  66.448  1.00  0.00    -0.280 A  
HETATM   26 CL   UNL     1     -11.010   3.588  62.708  1.00  0.00    -0.116 Cl 
HETATM   27  C   UNL     1      -9.399   2.927  64.783  1.00  0.00    -0.147 A  
HETATM   28  C   UNL     1     -10.396   3.773  64.307  1.00  0.00    -0.245 A  
HETATM   29  C   UNL     1      -8.915   3.077  66.072  1.00  0.00    -0.147 A  
HETATM   30  F   UNL     1      -8.901   1.945  64.015  1.00  0.00    -0.086 F  
HETATM   31  C   UNL     1      -9.447   4.073  66.898  1.00  0.00    -0.220 A  
HETATM   32  C   UNL     1     -10.921   4.772  65.133  1.00  0.00     0.118 A  
ENDBRANCH  23  25
ENDBRANCH  10  23
ENDBRANCH   2   3
TORSDOF 8
ENDMDL
MODEL      233
REMARK 921   NORMALIZED FREE ENERGY PREDICTED BY IDOCK:   -2.94 KCAL/MOL
REMARK 922        TOTAL FREE ENERGY PREDICTED BY IDOCK:   -5.95 KCAL/MOL
REMARK 923 INTER-LIGAND FREE ENERGY PREDICTED BY IDOCK:   -5.85 KCAL/MOL
REMARK 924 INTRA-LIGAND FREE ENERGY PREDICTED BY IDOCK:   -0.10 KCAL/MOL
REMARK 927      BINDING AFFINITY PREDICTED BY RF-SCORE:    0.00 PKD
ROOT
HETATM    1  C   UNL     1      -7.288   6.094  67.974  1.00  0.00    -0.088 C  
HETATM    2  O   UNL     1      -7.159   6.840  69.182  1.00  0.00    -0.082 OA 
ENDROOT
BRANCH   2   3
HETATM    3  C   UNL     1      -8.241   7.609  69.522  1.00  0.00    -0.129 A  
HETATM    4  C   UNL     1      -8.468   8.793  68.818  1.00  0.00    -0.129 A  
HETATM    5  N   UNL     1     -10.939   7.653  71.947  1.00  0.00    -0.234 NA 
HETATM    6  C   UNL     1      -9.464   9.672  69.258  1.00  0.00    -0.184 A  
HETATM    7  C   UNL     1     -10.159   8.089  70.955  1.00  0.00    -0.186 A  
HETATM    8  C   UNL     1     -10.322   9.337  70.343  1.00  0.00    -0.291 A  
HETATM    9  C   UNL     1      -9.127   7.259  70.549  1.00  0.00    -0.158 A  
HETATM   10  C   UNL     1     -11.341  10.148  70.889  1.00  0.00    -0.340 A  
HETATM   11  N   UNL     1     -12.137   9.703  71.882  1.00  0.00    -0.359 NA 
HETATM   12  C   UNL     1     -11.901   8.478  72.353  1.00  0.00    -0.367 A  
BRANCH   4  13
HETATM   13  O   UNL     1      -7.753   9.238  67.736  1.00  0.00    -0.088 OA 
BRANCH  13  14
HETATM   14  C   UNL     1      -8.521   9.556  66.561  1.00  0.00    -0.126 C  
BRANCH  14  15
HETATM   15  C   UNL     1      -7.635   9.261  65.351  1.00  0.00    -0.098 C  
BRANCH  15  16
HETATM   16  C   UNL     1      -7.862   7.883  64.716  1.00  0.00    -0.125 C  
BRANCH  16  17
HETATM   17  N   UNL     1      -7.327   7.700  63.359  1.00  0.00    -0.084 NA 
HETATM   18  C   UNL     1      -8.403   7.308  62.413  1.00  0.00    -0.013 C  
HETATM   19  C   UNL     1      -8.874   5.852  62.583  1.00  0.00     0.267 C  
HETATM   20  C   UNL     1      -6.254   6.685  63.257  1.00  0.00    -0.041 C  
HETATM   21  C   UNL     1      -6.731   5.224  63.348  1.00  0.00    -0.037 C  
HETATM   22  O   UNL     1      -7.782   4.941  62.416  1.00  0.00    -0.053 OA 
ENDBRANCH  16  17
ENDBRANCH  15  16
ENDBRANCH  14  15
ENDBRANCH  13  14
ENDBRANCH   4  13
BRANCH  10  23
HETATM   23  N   UNL     1     -11.487  11.491  70.453  1.00  0.00    -0.482 NA 
HETATM   24  H   UNL     1     -11.719  12.160  71.187  1.00  0.00     0.000 HD 
BRANCH  23  25
HETATM   25  C   UNL     1     -11.361  12.042  69.157  1.00  0.00    -0.281 A  
HETATM   26 CL   UNL     1     -10.636  15.698  67.661  1.00  0.00    -0.288 Cl 
HETATM   27  C   UNL     1     -11.313  13.287  66.629  1.00  0.00    -0.321 A  
HETATM   28  C   UNL     1     -11.016  14.021  67.772  1.00  0.00    -0.258 A  
HETATM   29  C   UNL     1     -11.625  11.941  66.727  1.00  0.00    -0.341 A  
HETATM   30  F   UNL     1     -11.321  13.867  65.419  1.00  0.00    -0.301 F  
HETATM   31  C   UNL     1     -11.656  11.329  67.985  1.00  0.00    -0.343 A  
HETATM   32  C   UNL     1     -11.042  13.405  69.028  1.00  0.00    -0.293 A  
ENDBRANCH  23  25
ENDBRANCH  10  23
ENDBRANCH   2   3
TORSDOF 8
ENDMDL
MODEL      234
REMARK 921   NORMALIZED FREE ENERGY PREDICTED BY IDOCK:   -2.81 KCAL/MOL
REMARK 922        TOTAL FREE ENERGY PREDICTED BY IDOCK:   -5.75 KCAL/MOL
REMARK 923 INTER-LIGAND FREE ENERGY PREDICTED BY IDOCK:   -4.82 KCAL/MOL
REMARK 924 INTRA-LIGAND FREE ENERGY PREDICTED BY IDOCK:   -0.93 KCAL/MOL
REMARK 927      BINDING AFFINITY PREDICTED BY RF-SCORE:    0.00 PKD
ROOT
HETATM    1  C   UNL     1      -7.930   7.238  64.316  1.00  0.00    -0.093 C  
HETATM    2  O   UNL     1      -7.845   7.389  65.732  1.00  0.00    -0.096 OA 
ENDROOT
BRANCH   2   3
HETATM    3  C   UNL     1      -7.867   6.224  66.455  1.00  0.00    -0.104 A  
HETATM    4  C   UNL     1      -9.102   5.650  66.760  1.00  0.00    -0.120 A  
HETATM    5  N   UNL     1      -5.560   3.949  68.086  1.00  0.00    -0.020 NA 
HETATM    6  C   UNL     1      -9.152   4.560  67.636  1.00  0.00    -0.139 A  
HETATM    7  C   UNL     1      -6.733   4.470  67.717  1.00  0.00    -0.051 A  
HETATM    8  C   UNL     1      -7.966   3.956  68.137  1.00  0.00    -0.076 A  
HETATM    9  C   UNL     1      -6.703   5.589  66.902  1.00  0.00    -0.062 A  
HETATM   10  C   UNL     1      -7.891   2.873  69.040  1.00  0.00    -0.046 A  
HETATM   11  N   UNL     1      -6.707   2.339  69.402  1.00  0.00    -0.033 NA 
HETATM   12  C   UNL     1      -5.605   2.899  68.901  1.00  0.00    -0.021 A  
BRANCH   4  13
HETATM   13  O   UNL     1     -10.327   6.092  66.331  1.00  0.00    -0.137 OA 
BRANCH  13  14
HETATM   14  C   UNL     1     -11.158   6.712  67.329  1.00  0.00    -0.345 C  
BRANCH  14  15
HETATM   15  C   UNL     1     -10.275   7.687  68.109  1.00  0.00    -0.236 C  
BRANCH  15  16
HETATM   16  C   UNL     1     -10.716   9.153  68.022  1.00  0.00    -0.147 C  
BRANCH  16  17
HETATM   17  N   UNL     1     -10.360  10.005  69.167  1.00  0.00    -0.202 NA 
HETATM   18  C   UNL     1     -10.458   9.248  70.441  1.00  0.00    -0.245 C  
HETATM   19  C   UNL     1     -11.906   8.989  70.895  1.00  0.00    -0.253 C  
HETATM   20  C   UNL     1     -11.192  11.220  69.306  1.00  0.00    -0.272 C  
HETATM   21  C   UNL     1     -12.617  10.975  69.836  1.00  0.00    -0.136 C  
HETATM   22  O   UNL     1     -12.618  10.221  71.055  1.00  0.00    -0.329 OA 
ENDBRANCH  16  17
ENDBRANCH  15  16
ENDBRANCH  14  15
ENDBRANCH  13  14
ENDBRANCH   4  13
BRANCH  10  23
HETATM   23  N   UNL     1      -9.072   2.380  69.653  1.00  0.00    -0.104 NA 
HETATM   24  H   UNL     1      -9.552   1.643  69.137  1.00  0.00     0.000 HD 
BRANCH  23  25
HETATM   25  C   UNL     1      -9.685   2.754  70.871  1.00  0.00    -0.065 A  
HETATM   26 CL   UNL     1     -10.670   6.226  72.633  1.00  0.00    -0.245 Cl 
HETATM   27  C   UNL     1     -10.689   3.617  73.360  1.00  0.00    -0.209 A  
HETATM   28  C   UNL     1     -10.417   4.544  72.359  1.00  0.00    -0.168 A  
HETATM   29  C   UNL     1     -10.477   2.267  73.134  1.00  0.00    -0.234 A  
HETATM   30  F   UNL     1     -11.143   4.009  74.560  1.00  0.00    -0.197 F  
HETATM   31  C   UNL     1      -9.970   1.843  71.901  1.00  0.00    -0.222 A  
HETATM   32  C   UNL     1      -9.917   4.117  71.124  1.00  0.00    -0.211 A  
ENDBRANCH  23  25
ENDBRANCH  10  23
ENDBRANCH   2   3
TORSDOF 8
ENDMDL
MODEL      235
REMARK 921   NORMALIZED FREE ENERGY PREDICTED BY IDOCK:   -2.80 KCAL/MOL
REMARK 922        TOTAL FREE ENERGY PREDICTED BY IDOCK:   -5.75 KCAL/MOL
REMARK 923 INTER-LIGAND FREE ENERGY PREDICTED BY IDOCK:   -4.71 KCAL/MOL
REMARK 924 INTRA-LIGAND FREE ENERGY PREDICTED BY IDOCK:   -1.03 KCAL/MOL
REMARK 927      BINDING AFFINITY PREDICTED BY RF-SCORE:    0.00 PKD
ROOT
HETATM    1  C   UNL     1      -6.513   5.785  70.499  1.00  0.00    -0.036 C  
HETATM    2  O   UNL     1      -6.281   7.183  70.662  1.00  0.00    -0.034 OA 
ENDROOT
BRANCH   2   3
HETATM    3  C   UNL     1      -7.380   7.988  70.513  1.00  0.00    -0.060 A  
HETATM    4  C   UNL     1      -7.241   9.186  69.811  1.00  0.00    -0.062 A  
HETATM    5  N   UNL     1     -10.866   8.106  71.511  1.00  0.00    -0.230 NA 
HETATM    6  C   UNL     1      -8.303  10.097  69.793  1.00  0.00    -0.154 A  
HETATM    7  C   UNL     1      -9.717   8.523  70.973  1.00  0.00    -0.193 A  
HETATM    8  C   UNL     1      -9.559   9.783  70.383  1.00  0.00    -0.223 A  
HETATM    9  C   UNL     1      -8.636   7.660  71.039  1.00  0.00    -0.131 A  
HETATM   10  C   UNL     1     -10.691  10.625  70.448  1.00  0.00     0.123 A  
HETATM   11  N   UNL     1     -11.855  10.200  70.980  1.00  0.00    -0.357 NA 
HETATM   12  C   UNL     1     -11.884   8.962  71.476  1.00  0.00    -0.332 A  
BRANCH   4  13
HETATM   13  O   UNL     1      -6.111   9.616  69.164  1.00  0.00    -0.040 OA 
BRANCH  13  14
HETATM   14  C   UNL     1      -5.442   8.638  68.348  1.00  0.00    -0.038 C  
BRANCH  14  15
HETATM   15  C   UNL     1      -6.375   8.309  67.183  1.00  0.00    -0.057 C  
BRANCH  15  16
HETATM   16  C   UNL     1      -5.979   7.061  66.384  1.00  0.00    -0.035 C  
BRANCH  16  17
HETATM   17  N   UNL     1      -6.674   5.815  66.744  1.00  0.00    -0.056 NA 
HETATM   18  C   UNL     1      -6.610   4.832  65.633  1.00  0.00    -0.041 C  
HETATM   19  C   UNL     1      -7.531   5.178  64.450  1.00  0.00    -0.065 C  
HETATM   20  C   UNL     1      -8.100   5.992  67.100  1.00  0.00    -0.106 C  
HETATM   21  C   UNL     1      -9.038   6.259  65.909  1.00  0.00    -0.067 C  
HETATM   22  O   UNL     1      -8.894   5.275  64.877  1.00  0.00    -0.150 OA 
ENDBRANCH  16  17
ENDBRANCH  15  16
ENDBRANCH  14  15
ENDBRANCH  13  14
ENDBRANCH   4  13
BRANCH  10  23
HETATM   23  N   UNL     1     -10.592  11.977  70.027  1.00  0.00     0.286 NA 
HETATM   24  H   UNL     1     -10.125  12.601  70.684  1.00  0.00     0.000 HD 
BRANCH  23  25
HETATM   25  C   UNL     1     -11.043  12.590  68.835  1.00  0.00    -0.260 A  
HETATM   26 CL   UNL     1     -10.998  11.642  64.933  1.00  0.00    -0.358 Cl 
HETATM   27  C   UNL     1     -11.697  13.819  66.384  1.00  0.00    -0.379 A  
HETATM   28  C   UNL     1     -11.217  12.514  66.402  1.00  0.00    -0.306 A  
HETATM   29  C   UNL     1     -11.864  14.516  67.570  1.00  0.00    -0.404 A  
HETATM   30  F   UNL     1     -11.991  14.431  65.227  1.00  0.00    -0.349 F  
HETATM   31  C   UNL     1     -11.530  13.906  68.784  1.00  0.00    -0.327 A  
HETATM   32  C   UNL     1     -10.890  11.903  67.618  1.00  0.00    -0.271 A  
ENDBRANCH  23  25
ENDBRANCH  10  23
ENDBRANCH   2   3
TORSDOF 8
ENDMDL
MODEL      236
REMARK 921   NORMALIZED FREE ENERGY PREDICTED BY IDOCK:   -2.79 KCAL/MOL
REMARK 922        TOTAL FREE ENERGY PREDICTED BY IDOCK:   -5.73 KCAL/MOL
REMARK 923 INTER-LIGAND FREE ENERGY PREDICTED BY IDOCK:   -5.52 KCAL/MOL
REMARK 924 INTRA-LIGAND FREE ENERGY PREDICTED BY IDOCK:   -0.20 KCAL/MOL
REMARK 927      BINDING AFFINITY PREDICTED BY RF-SCORE:    0.00 PKD
ROOT
HETATM    1  C   UNL     1      -5.870   8.877  67.003  1.00  0.00    -0.046 C  
HETATM    2  O   UNL     1      -6.248  10.106  67.621  1.00  0.00    -0.057 OA 
ENDROOT
BRANCH   2   3
HETATM    3  C   UNL     1      -7.437  10.085  68.303  1.00  0.00    -0.079 A  
HETATM    4  C   UNL     1      -7.714   8.995  69.129  1.00  0.00    -0.092 A  
HETATM    5  N   UNL     1     -10.453  12.071  68.647  1.00  0.00    -0.227 NA 
HETATM    6  C   UNL     1      -8.987   8.873  69.698  1.00  0.00    -0.147 A  
HETATM    7  C   UNL     1      -9.627  11.036  68.814  1.00  0.00    -0.187 A  
HETATM    8  C   UNL     1      -9.969   9.891  69.543  1.00  0.00    -0.240 A  
HETATM    9  C   UNL     1      -8.386  11.110  68.203  1.00  0.00    -0.136 A  
HETATM   10  C   UNL     1     -11.287   9.870  70.048  1.00  0.00    -0.249 A  
HETATM   11  N   UNL     1     -12.118  10.921  69.890  1.00  0.00    -0.333 NA 
HETATM   12  C   UNL     1     -11.656  11.968  69.206  1.00  0.00    -0.321 A  
BRANCH   4  13
HETATM   13  O   UNL     1      -6.866   7.954  69.405  1.00  0.00    -0.046 OA 
BRANCH  13  14
HETATM   14  C   UNL     1      -7.487   6.738  69.861  1.00  0.00    -0.095 C  
BRANCH  14  15
HETATM   15  C   UNL     1      -7.235   5.675  68.792  1.00  0.00    -0.081 C  
BRANCH  15  16
HETATM   16  C   UNL     1      -8.313   5.598  67.705  1.00  0.00    -0.100 C  
BRANCH  16  17
HETATM   17  N   UNL     1      -8.912   4.274  67.480  1.00  0.00    -0.111 NA 
HETATM   18  C   UNL     1      -7.868   3.265  67.169  1.00  0.00    -0.079 C  
HETATM   19  C   UNL     1      -7.279   3.403  65.754  1.00  0.00    -0.067 C  
HETATM   20  C   UNL     1      -9.909   4.232  66.387  1.00  0.00    -0.220 C  
HETATM   21  C   UNL     1      -9.319   4.289  64.966  1.00  0.00    -0.165 C  
HETATM   22  O   UNL     1      -8.306   3.296  64.762  1.00  0.00    -0.090 OA 
ENDBRANCH  16  17
ENDBRANCH  15  16
ENDBRANCH  14  15
ENDBRANCH  13  14
ENDBRANCH   4  13
BRANCH  10  23
HETATM   23  N   UNL     1     -11.792   8.694  70.661  1.00  0.00    -0.465 NA 
HETATM   24  H   UNL     1     -12.805   8.584  70.616  1.00  0.00     0.000 HD 
BRANCH  23  25
HETATM   25  C   UNL     1     -11.106   7.651  71.325  1.00  0.00    -0.246 A  
HETATM   26 CL   UNL     1      -8.514   7.423  74.384  1.00  0.00    -0.236 Cl 
HETATM   27  C   UNL     1      -9.520   5.681  72.570  1.00  0.00    -0.144 A  
HETATM   28  C   UNL     1      -9.508   6.988  73.046  1.00  0.00    -0.150 A  
HETATM   29  C   UNL     1     -10.317   5.341  71.489  1.00  0.00    -0.287 A  
HETATM   30  F   UNL     1      -8.753   4.734  73.132  1.00  0.00    -0.107 F  
HETATM   31  C   UNL     1     -11.096   6.323  70.868  1.00  0.00    -0.366 A  
HETATM   32  C   UNL     1     -10.293   7.967  72.428  1.00  0.00    -0.355 A  
ENDBRANCH  23  25
ENDBRANCH  10  23
ENDBRANCH   2   3
TORSDOF 8
ENDMDL
MODEL      237
REMARK 921   NORMALIZED FREE ENERGY PREDICTED BY IDOCK:   -2.72 KCAL/MOL
REMARK 922        TOTAL FREE ENERGY PREDICTED BY IDOCK:   -5.62 KCAL/MOL
REMARK 923 INTER-LIGAND FREE ENERGY PREDICTED BY IDOCK:   -6.74 KCAL/MOL
REMARK 924 INTRA-LIGAND FREE ENERGY PREDICTED BY IDOCK:    1.12 KCAL/MOL
REMARK 927      BINDING AFFINITY PREDICTED BY RF-SCORE:    0.00 PKD
ROOT
HETATM    1  C   UNL     1      -5.176   9.658  69.862  1.00  0.00    -0.033 C  
HETATM    2  O   UNL     1      -6.077   9.559  68.760  1.00  0.00    -0.043 OA 
ENDROOT
BRANCH   2   3
HETATM    3  C   UNL     1      -7.361   9.195  69.075  1.00  0.00    -0.073 A  
HETATM    4  C   UNL     1      -8.322  10.196  69.220  1.00  0.00    -0.158 A  
HETATM    5  N   UNL     1      -9.272   6.204  69.822  1.00  0.00    -0.144 NA 
HETATM    6  C   UNL     1      -9.592   9.860  69.704  1.00  0.00    -0.249 A  
HETATM    7  C   UNL     1      -9.018   7.507  69.676  1.00  0.00    -0.141 A  
HETATM    8  C   UNL     1      -9.959   8.507  69.949  1.00  0.00    -0.189 A  
HETATM    9  C   UNL     1      -7.746   7.862  69.259  1.00  0.00    -0.099 A  
HETATM   10  C   UNL     1     -11.194   8.050  70.456  1.00  0.00    -0.250 A  
HETATM   11  N   UNL     1     -11.456   6.735  70.592  1.00  0.00    -0.329 NA 
HETATM   12  C   UNL     1     -10.486   5.881  70.261  1.00  0.00    -0.261 A  
BRANCH   4  13
HETATM   13  O   UNL     1      -8.136  11.535  68.993  1.00  0.00    -0.081 OA 
BRANCH  13  14
HETATM   14  C   UNL     1      -7.979  11.925  67.616  1.00  0.00    -0.146 C  
BRANCH  14  15
HETATM   15  C   UNL     1      -7.926  13.452  67.584  1.00  0.00    -0.174 C  
BRANCH  15  16
HETATM   16  C   UNL     1      -8.385  14.132  68.880  1.00  0.00    -0.003 C  
BRANCH  16  17
HETATM   17  N   UNL     1      -9.748  14.684  68.874  1.00  0.00    -0.214 NA 
HETATM   18  C   UNL     1     -10.156  15.073  67.500  1.00  0.00    -0.228 C  
HETATM   19  C   UNL     1      -9.476  16.357  66.994  1.00  0.00    -0.230 C  
HETATM   20  C   UNL     1      -9.932  15.866  69.744  1.00  0.00    -0.211 C  
HETATM   21  C   UNL     1      -9.321  17.172  69.204  1.00  0.00    -0.063 C  
HETATM   22  O   UNL     1      -9.752  17.458  67.867  1.00  0.00    -0.259 OA 
ENDBRANCH  16  17
ENDBRANCH  15  16
ENDBRANCH  14  15
ENDBRANCH  13  14
ENDBRANCH   4  13
BRANCH  10  23
HETATM   23  N   UNL     1     -12.159   8.984  70.917  1.00  0.00    -0.437 NA 
HETATM   24  H   UNL     1     -12.915   8.584  71.473  1.00  0.00     0.000 HD 
BRANCH  23  25
HETATM   25  C   UNL     1     -12.232  10.382  70.724  1.00  0.00    -0.359 A  
HETATM   26 CL   UNL     1     -13.831  13.470  72.733  1.00  0.00    -0.439 Cl 
HETATM   27  C   UNL     1     -12.632  13.144  70.327  1.00  0.00    -0.063 A  
HETATM   28  C   UNL     1     -13.050  12.543  71.509  1.00  0.00    -0.277 A  
HETATM   29  C   UNL     1     -12.011  12.391  69.344  1.00  0.00    -0.319 A  
HETATM   30  F   UNL     1     -12.836  14.452  70.107  1.00  0.00    -0.384 F  
HETATM   31  C   UNL     1     -11.822  11.018  69.542  1.00  0.00    -0.404 A  
HETATM   32  C   UNL     1     -12.854  11.172  71.707  1.00  0.00    -0.479 A  
ENDBRANCH  23  25
ENDBRANCH  10  23
ENDBRANCH   2   3
TORSDOF 8
ENDMDL
MODEL      238
REMARK 921   NORMALIZED FREE ENERGY PREDICTED BY IDOCK:   -2.71 KCAL/MOL
REMARK 922        TOTAL FREE ENERGY PREDICTED BY IDOCK:   -5.61 KCAL/MOL
REMARK 923 INTER-LIGAND FREE ENERGY PREDICTED BY IDOCK:   -4.79 KCAL/MOL
REMARK 924 INTRA-LIGAND FREE ENERGY PREDICTED BY IDOCK:   -0.82 KCAL/MOL
REMARK 927      BINDING AFFINITY PREDICTED BY RF-SCORE:    0.00 PKD
ROOT
HETATM    1  C   UNL     1      -6.084  10.860  68.285  1.00  0.00    -0.049 C  
HETATM    2  O   UNL     1      -7.230  10.445  69.025  1.00  0.00    -0.073 OA 
ENDROOT
BRANCH   2   3
HETATM    3  C   UNL     1      -7.474   9.096  69.034  1.00  0.00    -0.074 A  
HETATM    4  C   UNL     1      -7.956   8.496  67.870  1.00  0.00    -0.108 A  
HETATM    5  N   UNL     1      -7.361   6.291  71.331  1.00  0.00    -0.083 NA 
HETATM    6  C   UNL     1      -8.369   7.160  67.909  1.00  0.00    -0.118 A  
HETATM    7  C   UNL     1      -7.606   6.955  70.199  1.00  0.00    -0.099 A  
HETATM    8  C   UNL     1      -8.208   6.368  69.080  1.00  0.00    -0.111 A  
HETATM    9  C   UNL     1      -7.262   8.297  70.164  1.00  0.00    -0.055 A  
HETATM   10  C   UNL     1      -8.605   5.023  69.246  1.00  0.00    -0.088 A  
HETATM   11  N   UNL     1      -8.348   4.349  70.385  1.00  0.00    -0.072 NA 
HETATM   12  C   UNL     1      -7.733   5.014  71.364  1.00  0.00    -0.100 A  
BRANCH   4  13
HETATM   13  O   UNL     1      -8.137   9.113  66.659  1.00  0.00    -0.109 OA 
BRANCH  13  14
HETATM   14  C   UNL     1      -9.503   9.317  66.254  1.00  0.00    -0.224 C  
BRANCH  14  15
HETATM   15  C   UNL     1      -9.594  10.727  65.672  1.00  0.00    -0.263 C  
BRANCH  15  16
HETATM   16  C   UNL     1     -10.789  11.547  66.175  1.00  0.00    -0.278 C  
BRANCH  16  17
HETATM   17  N   UNL     1     -10.522  12.962  66.476  1.00  0.00    -0.262 NA 
HETATM   18  C   UNL     1     -11.768  13.662  66.880  1.00  0.00    -0.389 C  
HETATM   19  C   UNL     1     -12.727  13.939  65.709  1.00  0.00    -0.461 C  
HETATM   20  C   UNL     1      -9.928  13.723  65.354  1.00  0.00    -0.229 C  
HETATM   21  C   UNL     1     -10.904  14.072  64.216  1.00  0.00    -0.104 C  
HETATM   22  O   UNL     1     -12.085  14.725  64.699  1.00  0.00    -0.443 OA 
ENDBRANCH  16  17
ENDBRANCH  15  16
ENDBRANCH  14  15
ENDBRANCH  13  14
ENDBRANCH   4  13
BRANCH  10  23
HETATM   23  N   UNL     1      -9.368   4.380  68.236  1.00  0.00    -0.138 NA 
HETATM   24  H   UNL     1     -10.375   4.371  68.396  1.00  0.00     0.000 HD 
BRANCH  23  25
HETATM   25  C   UNL     1      -8.945   3.752  67.042  1.00  0.00    -0.143 A  
HETATM   26 CL   UNL     1      -9.041   4.670  63.134  1.00  0.00    -0.125 Cl 
HETATM   27  C   UNL     1      -8.347   2.495  64.591  1.00  0.00    -0.088 A  
HETATM   28  C   UNL     1      -8.810   3.806  64.607  1.00  0.00    -0.120 A  
HETATM   29  C   UNL     1      -8.169   1.805  65.780  1.00  0.00    -0.084 A  
HETATM   30  F   UNL     1      -8.080   1.870  63.434  1.00  0.00    -0.058 F  
HETATM   31  C   UNL     1      -8.475   2.430  66.994  1.00  0.00    -0.105 A  
HETATM   32  C   UNL     1      -9.109   4.431  65.822  1.00  0.00    -0.135 A  
ENDBRANCH  23  25
ENDBRANCH  10  23
ENDBRANCH   2   3
TORSDOF 8
ENDMDL
MODEL      239
REMARK 921   NORMALIZED FREE ENERGY PREDICTED BY IDOCK:   -2.66 KCAL/MOL
REMARK 922        TOTAL FREE ENERGY PREDICTED BY IDOCK:   -5.54 KCAL/MOL
REMARK 923 INTER-LIGAND FREE ENERGY PREDICTED BY IDOCK:   -5.13 KCAL/MOL
REMARK 924 INTRA-LIGAND FREE ENERGY PREDICTED BY IDOCK:   -0.41 KCAL/MOL
REMARK 927      BINDING AFFINITY PREDICTED BY RF-SCORE:    0.00 PKD
ROOT
HETATM    1  C   UNL     1      -6.349   8.240  67.482  1.00  0.00    -0.057 C  
HETATM    2  O   UNL     1      -6.979   9.180  66.614  1.00  0.00    -0.079 OA 
ENDROOT
BRANCH   2   3
HETATM    3  C   UNL     1      -7.119  10.448  67.114  1.00  0.00    -0.090 A  
HETATM    4  C   UNL     1      -8.376  10.854  67.564  1.00  0.00    -0.117 A  
HETATM    5  N   UNL     1      -5.136  13.442  67.631  1.00  0.00    -0.290 NA 
HETATM    6  C   UNL     1      -8.577  12.193  67.919  1.00  0.00    -0.167 A  
HETATM    7  C   UNL     1      -6.223  12.666  67.601  1.00  0.00    -0.148 A  
HETATM    8  C   UNL     1      -7.502  13.125  67.935  1.00  0.00    -0.136 A  
HETATM    9  C   UNL     1      -6.054  11.354  67.190  1.00  0.00    -0.103 A  
HETATM   10  C   UNL     1      -7.586  14.499  68.251  1.00  0.00    -0.121 A  
HETATM   11  N   UNL     1      -6.487  15.279  68.294  1.00  0.00    -0.103 NA 
HETATM   12  C   UNL     1      -5.320  14.710  67.990  1.00  0.00    -0.109 A  
BRANCH   4  13
HETATM   13  O   UNL     1      -9.499  10.071  67.640  1.00  0.00    -0.143 OA 
BRANCH  13  14
HETATM   14  C   UNL     1      -9.802   9.290  66.469  1.00  0.00    -0.263 C  
BRANCH  14  15
HETATM   15  C   UNL     1     -10.276   7.919  66.953  1.00  0.00    -0.380 C  
BRANCH  15  16
HETATM   16  C   UNL     1      -9.302   6.771  66.663  1.00  0.00    -0.165 C  
BRANCH  16  17
HETATM   17  N   UNL     1      -9.508   6.052  65.396  1.00  0.00     0.263 NA 
HETATM   18  C   UNL     1     -10.250   4.785  65.621  1.00  0.00    -0.188 C  
HETATM   19  C   UNL     1      -9.403   3.682  66.280  1.00  0.00    -0.178 C  
HETATM   20  C   UNL     1      -8.261   5.715  64.675  1.00  0.00    -0.129 C  
HETATM   21  C   UNL     1      -7.449   4.558  65.286  1.00  0.00    -0.077 C  
HETATM   22  O   UNL     1      -8.248   3.385  65.487  1.00  0.00    -0.096 OA 
ENDBRANCH  16  17
ENDBRANCH  15  16
ENDBRANCH  14  15
ENDBRANCH  13  14
ENDBRANCH   4  13
BRANCH  10  23
HETATM   23  N   UNL     1      -8.855  15.104  68.447  1.00  0.00    -0.168 NA 
HETATM   24  H   UNL     1      -9.441  14.659  69.153  1.00  0.00     0.000 HD 
BRANCH  23  25
HETATM   25  C   UNL     1      -9.430  16.230  67.813  1.00  0.00    -0.221 A  
HETATM   26 CL   UNL     1     -10.312  19.992  68.908  1.00  0.00    -0.420 Cl 
HETATM   27  C   UNL     1     -10.765  18.459  66.722  1.00  0.00    -0.237 A  
HETATM   28  C   UNL     1     -10.194  18.540  67.987  1.00  0.00    -0.383 A  
HETATM   29  C   UNL     1     -10.672  17.286  65.990  1.00  0.00    -0.110 A  
HETATM   30  F   UNL     1     -11.427  19.500  66.194  1.00  0.00    -0.128 F  
HETATM   31  C   UNL     1     -10.016  16.179  66.539  1.00  0.00    -0.293 A  
HETATM   32  C   UNL     1      -9.533  17.434  68.531  1.00  0.00    -0.297 A  
ENDBRANCH  23  25
ENDBRANCH  10  23
ENDBRANCH   2   3
TORSDOF 8
ENDMDL
MODEL      240
REMARK 921   NORMALIZED FREE ENERGY PREDICTED BY IDOCK:   -2.59 KCAL/MOL
REMARK 922        TOTAL FREE ENERGY PREDICTED BY IDOCK:   -5.44 KCAL/MOL
REMARK 923 INTER-LIGAND FREE ENERGY PREDICTED BY IDOCK:   -5.73 KCAL/MOL
REMARK 924 INTRA-LIGAND FREE ENERGY PREDICTED BY IDOCK:    0.29 KCAL/MOL
REMARK 927      BINDING AFFINITY PREDICTED BY RF-SCORE:    0.00 PKD
ROOT
HETATM    1  C   UNL     1      -7.806  18.558  66.894  1.00  0.00    -0.233 C  
HETATM    2  O   UNL     1      -7.092  17.563  67.626  1.00  0.00    -0.164 OA 
ENDROOT
BRANCH   2   3
HETATM    3  C   UNL     1      -7.637  16.305  67.603  1.00  0.00    -0.141 A  
HETATM    4  C   UNL     1      -8.998  16.161  67.876  1.00  0.00    -0.183 A  
HETATM    5  N   UNL     1      -6.602  12.864  67.108  1.00  0.00    -0.159 NA 
HETATM    6  C   UNL     1      -9.533  14.877  68.023  1.00  0.00    -0.198 A  
HETATM    7  C   UNL     1      -7.415  13.883  67.397  1.00  0.00    -0.128 A  
HETATM    8  C   UNL     1      -8.747  13.713  67.794  1.00  0.00    -0.184 A  
HETATM    9  C   UNL     1      -6.883  15.160  67.319  1.00  0.00    -0.075 A  
HETATM   10  C   UNL     1      -9.168  12.373  67.933  1.00  0.00    -0.192 A  
HETATM   11  N   UNL     1      -8.352  11.344  67.629  1.00  0.00    -0.125 NA 
HETATM   12  C   UNL     1      -7.116  11.642  67.225  1.00  0.00    -0.134 A  
BRANCH   4  13
HETATM   13  O   UNL     1      -9.891  17.178  68.089  1.00  0.00    -0.260 OA 
BRANCH  13  14
HETATM   14  C   UNL     1     -11.128  16.808  68.725  1.00  0.00    -0.220 C  
BRANCH  14  15
HETATM   15  C   UNL     1     -10.788  16.364  70.147  1.00  0.00    -0.265 C  
BRANCH  15  16
HETATM   16  C   UNL     1     -11.875  16.669  71.186  1.00  0.00     0.426 C  
BRANCH  16  17
HETATM   17  N   UNL     1     -11.872  15.826  72.392  1.00  0.00    -0.460 NA 
HETATM   18  C   UNL     1     -11.636  14.402  72.043  1.00  0.00     0.503 C  
HETATM   19  C   UNL     1     -12.850  13.718  71.389  1.00  0.00    -0.369 C  
HETATM   20  C   UNL     1     -13.120  15.890  73.184  1.00  0.00    -0.572 C  
HETATM   21  C   UNL     1     -14.317  15.139  72.572  1.00  0.00    -0.218 C  
HETATM   22  O   UNL     1     -13.994  13.781  72.248  1.00  0.00    -0.516 OA 
ENDBRANCH  16  17
ENDBRANCH  15  16
ENDBRANCH  14  15
ENDBRANCH  13  14
ENDBRANCH   4  13
BRANCH  10  23
HETATM   23  N   UNL     1     -10.444  12.085  68.483  1.00  0.00    -0.225 NA 
HETATM   24  H   UNL     1     -11.195  12.705  68.180  1.00  0.00     0.000 HD 
BRANCH  23  25
HETATM   25  C   UNL     1     -10.834  11.071  69.388  1.00  0.00    -0.231 A  
HETATM   26 CL   UNL     1      -8.918   8.343  71.628  1.00  0.00    -0.233 Cl 
HETATM   27  C   UNL     1     -11.505   8.880  71.030  1.00  0.00    -0.294 A  
HETATM   28  C   UNL     1     -10.172   9.239  70.858  1.00  0.00    -0.301 A  
HETATM   29  C   UNL     1     -12.507   9.602  70.402  1.00  0.00     0.046 A  
HETATM   30  F   UNL     1     -11.844   7.826  71.787  1.00  0.00    -0.264 F  
HETATM   31  C   UNL     1     -12.169  10.684  69.581  1.00  0.00    -0.277 A  
HETATM   32  C   UNL     1      -9.837  10.325  70.042  1.00  0.00    -0.082 A  
ENDBRANCH  23  25
ENDBRANCH  10  23
ENDBRANCH   2   3
TORSDOF 8
ENDMDL
MODEL      241
REMARK 921   NORMALIZED FREE ENERGY PREDICTED BY IDOCK:   -2.42 KCAL/MOL
REMARK 922        TOTAL FREE ENERGY PREDICTED BY IDOCK:   -5.18 KCAL/MOL
REMARK 923 INTER-LIGAND FREE ENERGY PREDICTED BY IDOCK:   -4.77 KCAL/MOL
REMARK 924 INTRA-LIGAND FREE ENERGY PREDICTED BY IDOCK:   -0.41 KCAL/MOL
REMARK 927      BINDING AFFINITY PREDICTED BY RF-SCORE:    0.00 PKD
ROOT
HETATM    1  C   UNL     1      -9.911  18.309  67.156  1.00  0.00    -0.337 C  
HETATM    2  O   UNL     1      -9.221  18.048  68.377  1.00  0.00    -0.281 OA 
ENDROOT
BRANCH   2   3
HETATM    3  C   UNL     1      -8.645  16.809  68.480  1.00  0.00    -0.245 A  
HETATM    4  C   UNL     1      -9.363  15.699  68.029  1.00  0.00    -0.193 A  
HETATM    5  N   UNL     1      -5.610  15.275  69.742  1.00  0.00    -0.106 NA 
HETATM    6  C   UNL     1      -8.866  14.415  68.279  1.00  0.00    -0.182 A  
HETATM    7  C   UNL     1      -6.835  15.345  69.215  1.00  0.00    -0.157 A  
HETATM    8  C   UNL     1      -7.594  14.217  68.885  1.00  0.00    -0.098 A  
HETATM    9  C   UNL     1      -7.370  16.608  69.020  1.00  0.00    -0.228 A  
HETATM   10  C   UNL     1      -7.001  12.977  69.207  1.00  0.00     0.033 A  
HETATM   11  N   UNL     1      -5.760  12.904  69.727  1.00  0.00    -0.102 NA 
HETATM   12  C   UNL     1      -5.126  14.055  69.960  1.00  0.00    -0.089 A  
BRANCH   4  13
HETATM   13  O   UNL     1     -10.581  15.726  67.400  1.00  0.00    -0.301 OA 
BRANCH  13  14
HETATM   14  C   UNL     1     -11.049  14.469  66.879  1.00  0.00    -0.325 C  
BRANCH  14  15
HETATM   15  C   UNL     1     -12.393  14.177  67.547  1.00  0.00    -0.106 C  
BRANCH  15  16
HETATM   16  C   UNL     1     -12.317  13.964  69.063  1.00  0.00    -0.087 C  
BRANCH  16  17
HETATM   17  N   UNL     1     -12.874  15.040  69.897  1.00  0.00    -0.085 NA 
HETATM   18  C   UNL     1     -11.794  15.895  70.451  1.00  0.00    -0.338 C  
HETATM   19  C   UNL     1     -10.999  15.227  71.587  1.00  0.00    -0.037 C  
HETATM   20  C   UNL     1     -13.696  14.569  71.034  1.00  0.00    -0.184 C  
HETATM   21  C   UNL     1     -12.899  13.971  72.208  1.00  0.00    -0.315 C  
HETATM   22  O   UNL     1     -11.866  14.854  72.664  1.00  0.00    -0.308 OA 
ENDBRANCH  16  17
ENDBRANCH  15  16
ENDBRANCH  14  15
ENDBRANCH  13  14
ENDBRANCH   4  13
BRANCH  10  23
HETATM   23  N   UNL     1      -7.747  11.777  69.065  1.00  0.00    -0.329 NA 
HETATM   24  H   UNL     1      -8.641  11.879  68.586  1.00  0.00     0.000 HD 
BRANCH  23  25
HETATM   25  C   UNL     1      -7.440  10.463  69.487  1.00  0.00    -0.148 A  
HETATM   26 CL   UNL     1      -8.633   8.064  72.479  1.00  0.00    -0.206 Cl 
HETATM   27  C   UNL     1      -6.740   7.946  70.546  1.00  0.00    -0.038 A  
HETATM   28  C   UNL     1      -7.778   8.677  71.114  1.00  0.00    -0.113 A  
HETATM   29  C   UNL     1      -6.052   8.448  69.453  1.00  0.00    -0.037 A  
HETATM   30  F   UNL     1      -6.374   6.758  71.050  1.00  0.00    -0.037 F  
HETATM   31  C   UNL     1      -6.397   9.702  68.936  1.00  0.00    -0.042 A  
HETATM   32  C   UNL     1      -8.125   9.927  70.591  1.00  0.00     0.247 A  
ENDBRANCH  23  25
ENDBRANCH  10  23
ENDBRANCH   2   3
TORSDOF 8
ENDMDL
MODEL      242
REMARK 921   NORMALIZED FREE ENERGY PREDICTED BY IDOCK:   -2.41 KCAL/MOL
REMARK 922        TOTAL FREE ENERGY PREDICTED BY IDOCK:   -5.17 KCAL/MOL
REMARK 923 INTER-LIGAND FREE ENERGY PREDICTED BY IDOCK:   -5.15 KCAL/MOL
REMARK 924 INTRA-LIGAND FREE ENERGY PREDICTED BY IDOCK:   -0.02 KCAL/MOL
REMARK 927      BINDING AFFINITY PREDICTED BY RF-SCORE:    0.00 PKD
ROOT
HETATM    1  C   UNL     1     -10.241  11.822  63.561  1.00  0.00    -0.450 C  
HETATM    2  O   UNL     1      -9.053  12.054  64.316  1.00  0.00     0.318 OA 
ENDROOT
BRANCH   2   3
HETATM    3  C   UNL     1      -8.850  11.209  65.376  1.00  0.00    -0.102 A  
HETATM    4  C   UNL     1      -9.524  11.463  66.572  1.00  0.00    -0.200 A  
HETATM    5  N   UNL     1      -6.879   8.286  66.233  1.00  0.00    -0.064 NA 
HETATM    6  C   UNL     1      -9.202  10.716  67.711  1.00  0.00    -0.151 A  
HETATM    7  C   UNL     1      -7.714   9.313  66.413  1.00  0.00    -0.093 A  
HETATM    8  C   UNL     1      -8.283   9.631  67.651  1.00  0.00    -0.114 A  
HETATM    9  C   UNL     1      -7.994  10.104  65.310  1.00  0.00    -0.145 A  
HETATM   10  C   UNL     1      -7.865   8.824  68.731  1.00  0.00    -0.101 A  
HETATM   11  N   UNL     1      -7.032   7.780  68.548  1.00  0.00    -0.069 NA 
HETATM   12  C   UNL     1      -6.589   7.561  67.309  1.00  0.00    -0.062 A  
BRANCH   4  13
HETATM   13  O   UNL     1     -10.457  12.445  66.781  1.00  0.00    -0.220 OA 
BRANCH  13  14
HETATM   14  C   UNL     1      -9.939  13.743  67.125  1.00  0.00    -0.243 C  
BRANCH  14  15
HETATM   15  C   UNL     1     -10.242  14.675  65.951  1.00  0.00    -0.344 C  
BRANCH  15  16
HETATM   16  C   UNL     1      -9.679  16.093  66.103  1.00  0.00    -0.323 C  
BRANCH  16  17
HETATM   17  N   UNL     1     -10.617  17.112  66.599  1.00  0.00    -0.236 NA 
HETATM   18  C   UNL     1      -9.940  18.425  66.752  1.00  0.00    -0.360 C  
HETATM   19  C   UNL     1      -8.994  18.495  67.964  1.00  0.00    -0.301 C  
HETATM   20  C   UNL     1     -11.246  16.783  67.897  1.00  0.00    -0.071 C  
HETATM   21  C   UNL     1     -10.325  16.927  69.122  1.00  0.00    -0.319 C  
HETATM   22  O   UNL     1      -9.700  18.216  69.178  1.00  0.00    -0.229 OA 
ENDBRANCH  16  17
ENDBRANCH  15  16
ENDBRANCH  14  15
ENDBRANCH  13  14
ENDBRANCH   4  13
BRANCH  10  23
HETATM   23  N   UNL     1      -8.252   9.157  70.056  1.00  0.00    -0.126 NA 
HETATM   24  H   UNL     1      -8.580  10.114  70.182  1.00  0.00     0.000 HD 
BRANCH  23  25
HETATM   25  C   UNL     1      -8.253   8.364  71.226  1.00  0.00    -0.134 A  
HETATM   26 CL   UNL     1      -6.635   4.851  72.307  1.00  0.00    -0.042 Cl 
HETATM   27  C   UNL     1      -8.372   6.603  73.424  1.00  0.00    -0.118 A  
HETATM   28  C   UNL     1      -7.560   6.304  72.335  1.00  0.00    -0.098 A  
HETATM   29  C   UNL     1      -9.118   7.770  73.436  1.00  0.00    -0.336 A  
HETATM   30  F   UNL     1      -8.463   5.766  74.469  1.00  0.00    -0.110 F  
HETATM   31  C   UNL     1      -9.063   8.638  72.340  1.00  0.00    -0.228 A  
HETATM   32  C   UNL     1      -7.501   7.177  71.243  1.00  0.00    -0.080 A  
ENDBRANCH  23  25
ENDBRANCH  10  23
ENDBRANCH   2   3
TORSDOF 8
ENDMDL
MODEL      243
REMARK 921   NORMALIZED FREE ENERGY PREDICTED BY IDOCK:   -2.34 KCAL/MOL
REMARK 922        TOTAL FREE ENERGY PREDICTED BY IDOCK:   -5.07 KCAL/MOL
REMARK 923 INTER-LIGAND FREE ENERGY PREDICTED BY IDOCK:   -5.31 KCAL/MOL
REMARK 924 INTRA-LIGAND FREE ENERGY PREDICTED BY IDOCK:    0.24 KCAL/MOL
REMARK 927      BINDING AFFINITY PREDICTED BY RF-SCORE:    0.00 PKD
ROOT
HETATM    1  C   UNL     1      -5.309   7.045  69.890  1.00  0.00    -0.019 C  
HETATM    2  O   UNL     1      -6.201   6.664  70.936  1.00  0.00    -0.037 OA 
ENDROOT
BRANCH   2   3
HETATM    3  C   UNL     1      -7.476   7.158  70.837  1.00  0.00    -0.080 A  
HETATM    4  C   UNL     1      -7.661   8.418  70.266  1.00  0.00    -0.080 A  
HETATM    5  N   UNL     1     -10.867   6.235  71.736  1.00  0.00    -0.239 NA 
HETATM    6  C   UNL     1      -8.929   9.009  70.310  1.00  0.00    -0.221 A  
HETATM    7  C   UNL     1      -9.871   6.999  71.279  1.00  0.00    -0.175 A  
HETATM    8  C   UNL     1     -10.056   8.310  70.826  1.00  0.00    -0.218 A  
HETATM    9  C   UNL     1      -8.598   6.453  71.288  1.00  0.00    -0.127 A  
HETATM   10  C   UNL     1     -11.372   8.808  70.943  1.00  0.00    -0.275 A  
HETATM   11  N   UNL     1     -12.380   8.033  71.393  1.00  0.00    -0.309 NA 
HETATM   12  C   UNL     1     -12.077   6.787  71.758  1.00  0.00    -0.350 A  
BRANCH   4  13
HETATM   13  O   UNL     1      -6.688   9.201  69.701  1.00  0.00    -0.044 OA 
BRANCH  13  14
HETATM   14  C   UNL     1      -7.019   9.804  68.437  1.00  0.00    -0.068 C  
BRANCH  14  15
HETATM   15  C   UNL     1      -7.553   8.692  67.534  1.00  0.00    -0.094 C  
BRANCH  15  16
HETATM   16  C   UNL     1      -6.467   7.877  66.821  1.00  0.00    -0.055 C  
BRANCH  16  17
HETATM   17  N   UNL     1      -6.121   8.312  65.459  1.00  0.00    -0.045 NA 
HETATM   18  C   UNL     1      -7.343   8.532  64.645  1.00  0.00    -0.092 C  
HETATM   19  C   UNL     1      -8.038   7.229  64.211  1.00  0.00    -0.049 C  
HETATM   20  C   UNL     1      -5.257   7.367  64.717  1.00  0.00    -0.029 C  
HETATM   21  C   UNL     1      -5.967   6.098  64.211  1.00  0.00    -0.025 C  
HETATM   22  O   UNL     1      -7.146   6.404  63.455  1.00  0.00    -0.048 OA 
ENDBRANCH  16  17
ENDBRANCH  15  16
ENDBRANCH  14  15
ENDBRANCH  13  14
ENDBRANCH   4  13
BRANCH  10  23
HETATM   23  N   UNL     1     -11.640  10.174  70.666  1.00  0.00    -0.318 NA 
HETATM   24  H   UNL     1     -11.883  10.740  71.479  1.00  0.00     0.000 HD 
BRANCH  23  25
HETATM   25  C   UNL     1     -11.620  10.871  69.436  1.00  0.00    -0.316 A  
HETATM   26 CL   UNL     1     -10.536   9.998  65.669  1.00  0.00    -0.161 Cl 
HETATM   27  C   UNL     1     -11.327  12.229  66.983  1.00  0.00    -0.334 A  
HETATM   28  C   UNL     1     -11.062  10.866  67.060  1.00  0.00    -0.202 A  
HETATM   29  C   UNL     1     -11.744  12.922  68.108  1.00  0.00    -0.395 A  
HETATM   30  F   UNL     1     -11.170  12.900  65.832  1.00  0.00    -0.293 F  
HETATM   31  C   UNL     1     -11.880  12.246  69.326  1.00  0.00    -0.363 A  
HETATM   32  C   UNL     1     -11.205  10.191  68.277  1.00  0.00    -0.246 A  
ENDBRANCH  23  25
ENDBRANCH  10  23
ENDBRANCH   2   3
TORSDOF 8
ENDMDL
MODEL      244
REMARK 921   NORMALIZED FREE ENERGY PREDICTED BY IDOCK:   -2.24 KCAL/MOL
REMARK 922        TOTAL FREE ENERGY PREDICTED BY IDOCK:   -4.91 KCAL/MOL
REMARK 923 INTER-LIGAND FREE ENERGY PREDICTED BY IDOCK:   -4.85 KCAL/MOL
REMARK 924 INTRA-LIGAND FREE ENERGY PREDICTED BY IDOCK:   -0.06 KCAL/MOL
REMARK 927      BINDING AFFINITY PREDICTED BY RF-SCORE:    0.00 PKD
ROOT
HETATM    1  C   UNL     1      -9.465  18.652  67.495  1.00  0.00    -0.291 C  
HETATM    2  O   UNL     1      -9.726  17.393  66.877  1.00  0.00    -0.265 OA 
ENDROOT
BRANCH   2   3
HETATM    3  C   UNL     1      -9.072  16.318  67.422  1.00  0.00    -0.195 A  
HETATM    4  C   UNL     1      -9.598  15.042  67.216  1.00  0.00    -0.207 A  
HETATM    5  N   UNL     1      -6.191  15.614  69.510  1.00  0.00    -0.143 NA 
HETATM    6  C   UNL     1      -9.044  13.955  67.902  1.00  0.00    -0.194 A  
HETATM    7  C   UNL     1      -7.303  15.372  68.812  1.00  0.00    -0.135 A  
HETATM    8  C   UNL     1      -7.890  14.104  68.720  1.00  0.00    -0.114 A  
HETATM    9  C   UNL     1      -7.902  16.448  68.179  1.00  0.00    -0.158 A  
HETATM   10  C   UNL     1      -7.258  13.092  69.475  1.00  0.00     0.373 A  
HETATM   11  N   UNL     1      -6.128  13.333  70.170  1.00  0.00    -0.135 NA 
HETATM   12  C   UNL     1      -5.650  14.578  70.145  1.00  0.00    -0.119 A  
BRANCH   4  13
HETATM   13  O   UNL     1     -10.681  14.730  66.436  1.00  0.00    -0.300 OA 
BRANCH  13  14
HETATM   14  C   UNL     1     -10.407  14.504  65.041  1.00  0.00    -0.413 C  
BRANCH  14  15
HETATM   15  C   UNL     1     -11.060  13.173  64.664  1.00  0.00    -0.366 C  
BRANCH  15  16
HETATM   16  C   UNL     1     -10.250  11.933  65.062  1.00  0.00    -0.278 C  
BRANCH  16  17
HETATM   17  N   UNL     1     -10.335  10.785  64.147  1.00  0.00    -0.356 NA 
HETATM   18  C   UNL     1      -9.395   9.710  64.557  1.00  0.00    -0.182 C  
HETATM   19  C   UNL     1      -7.921  10.031  64.254  1.00  0.00    -0.152 C  
HETATM   20  C   UNL     1     -10.049  11.109  62.731  1.00  0.00    -0.085 C  
HETATM   21  C   UNL     1      -8.564  11.353  62.407  1.00  0.00     0.004 C  
HETATM   22  O   UNL     1      -7.730  10.277  62.856  1.00  0.00    -0.146 OA 
ENDBRANCH  16  17
ENDBRANCH  15  16
ENDBRANCH  14  15
ENDBRANCH  13  14
ENDBRANCH   4  13
BRANCH  10  23
HETATM   23  N   UNL     1      -7.859  11.810  69.583  1.00  0.00     0.049 NA 
HETATM   24  H   UNL     1      -8.396  11.656  70.437  1.00  0.00     0.000 HD 
BRANCH  23  25
HETATM   25  C   UNL     1      -7.828  10.715  68.689  1.00  0.00    -0.121 A  
HETATM   26 CL   UNL     1     -10.580   8.450  66.840  1.00  0.00    -0.350 Cl 
HETATM   27  C   UNL     1      -7.883   8.396  67.088  1.00  0.00    -0.100 A  
HETATM   28  C   UNL     1      -9.068   9.053  67.404  1.00  0.00    -0.131 A  
HETATM   29  C   UNL     1      -6.672   8.884  67.551  1.00  0.00    -0.066 A  
HETATM   30  F   UNL     1      -7.890   7.277  66.348  1.00  0.00    -0.095 F  
HETATM   31  C   UNL     1      -6.649  10.030  68.353  1.00  0.00    -0.054 A  
HETATM   32  C   UNL     1      -9.042  10.203  68.200  1.00  0.00    -0.128 A  
ENDBRANCH  23  25
ENDBRANCH  10  23
ENDBRANCH   2   3
TORSDOF 8
ENDMDL
MODEL      245
REMARK 921   NORMALIZED FREE ENERGY PREDICTED BY IDOCK:   -1.35 KCAL/MOL
REMARK 922        TOTAL FREE ENERGY PREDICTED BY IDOCK:   -3.61 KCAL/MOL
REMARK 923 INTER-LIGAND FREE ENERGY PREDICTED BY IDOCK:   -4.67 KCAL/MOL
REMARK 924 INTRA-LIGAND FREE ENERGY PREDICTED BY IDOCK:    1.07 KCAL/MOL
REMARK 927      BINDING AFFINITY PREDICTED BY RF-SCORE:    0.00 PKD
ROOT
HETATM    1  C   UNL     1      -5.346   6.992  69.870  1.00  0.00    -0.019 C  
HETATM    2  O   UNL     1      -5.780   6.482  71.129  1.00  0.00    -0.026 OA 
ENDROOT
BRANCH   2   3
HETATM    3  C   UNL     1      -7.124   6.581  71.377  1.00  0.00    -0.077 A  
HETATM    4  C   UNL     1      -7.746   7.819  71.205  1.00  0.00    -0.084 A  
HETATM    5  N   UNL     1      -9.873   4.518  72.538  1.00  0.00    -0.154 NA 
HETATM    6  C   UNL     1      -9.075   7.980  71.614  1.00  0.00    -0.194 A  
HETATM    7  C   UNL     1      -9.234   5.623  72.146  1.00  0.00    -0.146 A  
HETATM    8  C   UNL     1      -9.840   6.884  72.100  1.00  0.00    -0.159 A  
HETATM    9  C   UNL     1      -7.899   5.494  71.799  1.00  0.00    -0.112 A  
HETATM   10  C   UNL     1     -11.173   6.928  72.561  1.00  0.00    -0.267 A  
HETATM   11  N   UNL     1     -11.823   5.811  72.945  1.00  0.00    -0.112 NA 
HETATM   12  C   UNL     1     -11.143   4.665  72.906  1.00  0.00    -0.191 A  
BRANCH   4  13
HETATM   13  O   UNL     1      -7.157   8.958  70.720  1.00  0.00    -0.059 OA 
BRANCH  13  14
HETATM   14  C   UNL     1      -7.846   9.611  69.638  1.00  0.00    -0.129 C  
BRANCH  14  15
HETATM   15  C   UNL     1      -8.337   8.516  68.690  1.00  0.00    -0.123 C  
BRANCH  15  16
HETATM   16  C   UNL     1      -7.244   7.900  67.809  1.00  0.00    -0.091 C  
BRANCH  16  17
HETATM   17  N   UNL     1      -7.069   8.502  66.479  1.00  0.00    -0.078 NA 
HETATM   18  C   UNL     1      -8.321   8.407  65.685  1.00  0.00    -0.154 C  
HETATM   19  C   UNL     1      -8.616   6.988  65.167  1.00  0.00     0.064 C  
HETATM   20  C   UNL     1      -5.984   7.899  65.673  1.00  0.00    -0.038 C  
HETATM   21  C   UNL     1      -6.306   6.512  65.086  1.00  0.00    -0.038 C  
HETATM   22  O   UNL     1      -7.539   6.508  64.355  1.00  0.00    -0.084 OA 
ENDBRANCH  16  17
ENDBRANCH  15  16
ENDBRANCH  14  15
ENDBRANCH  13  14
ENDBRANCH   4  13
BRANCH  10  23
HETATM   23  N   UNL     1     -11.830   8.178  72.709  1.00  0.00    -0.557 NA 
HETATM   24  H   UNL     1     -12.151   8.387  73.654  1.00  0.00     0.000 HD 
BRANCH  23  25
HETATM   25  C   UNL     1     -12.105   9.178  71.748  1.00  0.00    -0.376 A  
HETATM   26 CL   UNL     1     -11.236   9.734  67.867  1.00  0.00    -0.159 Cl 
HETATM   27  C   UNL     1     -12.403  11.209  69.816  1.00  0.00    -0.246 A  
HETATM   28  C   UNL     1     -11.810   9.999  69.469  1.00  0.00     0.085 A  
HETATM   29  C   UNL     1     -12.857  11.416  71.109  1.00  0.00    -0.440 A  
HETATM   30  F   UNL     1     -12.531  12.197  68.918  1.00  0.00    -0.197 F  
HETATM   31  C   UNL     1     -12.700  10.409  72.067  1.00  0.00    -0.365 A  
HETATM   32  C   UNL     1     -11.660   8.991  70.428  1.00  0.00    -0.145 A  
ENDBRANCH  23  25
ENDBRANCH  10  23
ENDBRANCH   2   3
TORSDOF 8
ENDMDL
MODEL      246
REMARK 921   NORMALIZED FREE ENERGY PREDICTED BY IDOCK:   -1.18 KCAL/MOL
REMARK 922        TOTAL FREE ENERGY PREDICTED BY IDOCK:   -3.37 KCAL/MOL
REMARK 923 INTER-LIGAND FREE ENERGY PREDICTED BY IDOCK:   -3.87 KCAL/MOL
REMARK 924 INTRA-LIGAND FREE ENERGY PREDICTED BY IDOCK:    0.50 KCAL/MOL
REMARK 927      BINDING AFFINITY PREDICTED BY RF-SCORE:    0.00 PKD
ROOT
HETATM    1  C   UNL     1      -6.650  10.578  67.548  1.00  0.00    -0.066 C  
HETATM    2  O   UNL     1      -7.345  10.027  68.665  1.00  0.00    -0.078 OA 
ENDROOT
BRANCH   2   3
HETATM    3  C   UNL     1      -7.294   8.662  68.781  1.00  0.00    -0.083 A  
HETATM    4  C   UNL     1      -8.124   7.891  67.966  1.00  0.00    -0.126 A  
HETATM    5  N   UNL     1      -5.619   6.124  70.759  1.00  0.00    -0.017 NA 
HETATM    6  C   UNL     1      -8.209   6.511  68.186  1.00  0.00    -0.117 A  
HETATM    7  C   UNL     1      -6.471   6.637  69.868  1.00  0.00    -0.044 A  
HETATM    8  C   UNL     1      -7.388   5.861  69.149  1.00  0.00    -0.083 A  
HETATM    9  C   UNL     1      -6.446   8.010  69.684  1.00  0.00    -0.037 A  
HETATM   10  C   UNL     1      -7.401   4.488  69.474  1.00  0.00    -0.051 A  
HETATM   11  N   UNL     1      -6.532   3.967  70.365  1.00  0.00    -0.030 NA 
HETATM   12  C   UNL     1      -5.683   4.809  70.954  1.00  0.00    -0.016 A  
BRANCH   4  13
HETATM   13  O   UNL     1      -8.947   8.361  66.976  1.00  0.00    -0.136 OA 
BRANCH  13  14
HETATM   14  C   UNL     1     -10.333   8.518  67.330  1.00  0.00    -0.302 C  
BRANCH  14  15
HETATM   15  C   UNL     1     -10.475   8.092  68.791  1.00  0.00    -0.196 C  
BRANCH  15  16
HETATM   16  C   UNL     1     -11.541   7.017  69.039  1.00  0.00     0.337 C  
BRANCH  16  17
HETATM   17  N   UNL     1     -11.623   6.492  70.411  1.00  0.00    -0.401 NA 
HETATM   18  C   UNL     1     -12.641   7.231  71.201  1.00  0.00    -0.323 C  
HETATM   19  C   UNL     1     -12.195   8.645  71.612  1.00  0.00    -0.333 C  
HETATM   20  C   UNL     1     -10.350   6.547  71.163  1.00  0.00    -0.205 C  
HETATM   21  C   UNL     1      -9.940   7.951  71.645  1.00  0.00    -0.181 C  
HETATM   22  O   UNL     1     -10.988   8.597  72.380  1.00  0.00    -0.353 OA 
ENDBRANCH  16  17
ENDBRANCH  15  16
ENDBRANCH  14  15
ENDBRANCH  13  14
ENDBRANCH   4  13
BRANCH  10  23
HETATM   23  N   UNL     1      -8.397   3.639  68.925  1.00  0.00    -0.071 NA 
HETATM   24  H   UNL     1      -9.103   3.318  69.587  1.00  0.00     0.000 HD 
BRANCH  23  25
HETATM   25  C   UNL     1      -8.561   3.172  67.601  1.00  0.00    -0.100 A  
HETATM   26 CL   UNL     1     -10.839   4.210  64.460  1.00  0.00    -0.227 Cl 
HETATM   27  C   UNL     1      -9.131   2.186  65.022  1.00  0.00    -0.127 A  
HETATM   28  C   UNL     1      -9.731   3.359  65.467  1.00  0.00    -0.033 A  
HETATM   29  C   UNL     1      -8.245   1.503  65.840  1.00  0.00    -0.084 A  
HETATM   30  F   UNL     1      -9.407   1.686  63.808  1.00  0.00    -0.093 F  
HETATM   31  C   UNL     1      -7.972   1.991  67.122  1.00  0.00    -0.066 A  
HETATM   32  C   UNL     1      -9.451   3.849  66.747  1.00  0.00    -0.223 A  
ENDBRANCH  23  25
ENDBRANCH  10  23
ENDBRANCH   2   3
TORSDOF 8
ENDMDL
MODEL      247
REMARK 921   NORMALIZED FREE ENERGY PREDICTED BY IDOCK:   -1.10 KCAL/MOL
REMARK 922        TOTAL FREE ENERGY PREDICTED BY IDOCK:   -3.25 KCAL/MOL
REMARK 923 INTER-LIGAND FREE ENERGY PREDICTED BY IDOCK:   -4.44 KCAL/MOL
REMARK 924 INTRA-LIGAND FREE ENERGY PREDICTED BY IDOCK:    1.20 KCAL/MOL
REMARK 927      BINDING AFFINITY PREDICTED BY RF-SCORE:    0.00 PKD
ROOT
HETATM    1  C   UNL     1      -9.472  19.067  66.537  1.00  0.00    -0.345 C  
HETATM    2  O   UNL     1      -8.662  18.584  67.608  1.00  0.00    -0.264 OA 
ENDROOT
BRANCH   2   3
HETATM    3  C   UNL     1      -8.291  17.267  67.523  1.00  0.00    -0.196 A  
HETATM    4  C   UNL     1      -9.221  16.339  67.050  1.00  0.00    -0.214 A  
HETATM    5  N   UNL     1      -5.441  15.153  68.276  1.00  0.00    -0.112 NA 
HETATM    6  C   UNL     1      -8.919  14.975  67.114  1.00  0.00    -0.235 A  
HETATM    7  C   UNL     1      -6.683  15.470  67.901  1.00  0.00    -0.155 A  
HETATM    8  C   UNL     1      -7.645  14.516  67.551  1.00  0.00    -0.211 A  
HETATM    9  C   UNL     1      -7.019  16.813  67.893  1.00  0.00    -0.156 A  
HETATM   10  C   UNL     1      -7.235  13.171  67.680  1.00  0.00    -0.159 A  
HETATM   11  N   UNL     1      -5.978  12.851  68.047  1.00  0.00    -0.093 NA 
HETATM   12  C   UNL     1      -5.145  13.856  68.318  1.00  0.00    -0.109 A  
BRANCH   4  13
HETATM   13  O   UNL     1     -10.472  16.624  66.568  1.00  0.00    -0.302 OA 
BRANCH  13  14
HETATM   14  C   UNL     1     -11.070  15.616  65.733  1.00  0.00    -0.173 C  
BRANCH  14  15
HETATM   15  C   UNL     1     -12.023  14.808  66.614  1.00  0.00    -0.199 C  
BRANCH  15  16
HETATM   16  C   UNL     1     -11.753  13.298  66.625  1.00  0.00    -0.377 C  
BRANCH  16  17
HETATM   17  N   UNL     1     -12.418  12.530  67.689  1.00  0.00     0.102 NA 
HETATM   18  C   UNL     1     -12.029  13.034  69.030  1.00  0.00    -0.267 C  
HETATM   19  C   UNL     1     -10.597  12.648  69.443  1.00  0.00     0.285 C  
HETATM   20  C   UNL     1     -12.135  11.078  67.661  1.00  0.00     0.738 C  
HETATM   21  C   UNL     1     -10.730  10.679  68.148  1.00  0.00    -0.225 C  
HETATM   22  O   UNL     1     -10.432  11.226  69.439  1.00  0.00    -0.168 OA 
ENDBRANCH  16  17
ENDBRANCH  15  16
ENDBRANCH  14  15
ENDBRANCH  13  14
ENDBRANCH   4  13
BRANCH  10  23
HETATM   23  N   UNL     1      -8.178  12.124  67.506  1.00  0.00    -0.156 NA 
HETATM   24  H   UNL     1      -8.652  11.824  68.358  1.00  0.00     0.000 HD 
BRANCH  23  25
HETATM   25  C   UNL     1      -8.560  11.433  66.334  1.00  0.00    -0.174 A  
HETATM   26 CL   UNL     1      -7.471   8.004  64.547  1.00  0.00    -0.095 Cl 
HETATM   27  C   UNL     1      -9.083  10.087  63.913  1.00  0.00    -0.259 A  
HETATM   28  C   UNL     1      -8.230   9.520  64.855  1.00  0.00    -0.140 A  
HETATM   29  C   UNL     1      -9.684  11.309  64.164  1.00  0.00    -0.298 A  
HETATM   30  F   UNL     1      -9.325   9.475  62.743  1.00  0.00    -0.283 F  
HETATM   31  C   UNL     1      -9.416  11.978  65.363  1.00  0.00    -0.080 A  
HETATM   32  C   UNL     1      -7.969  10.188  66.056  1.00  0.00    -0.124 A  
ENDBRANCH  23  25
ENDBRANCH  10  23
ENDBRANCH   2   3
TORSDOF 8
ENDMDL
MODEL      248
REMARK 921   NORMALIZED FREE ENERGY PREDICTED BY IDOCK:   -0.10 KCAL/MOL
REMARK 922        TOTAL FREE ENERGY PREDICTED BY IDOCK:   -1.77 KCAL/MOL
REMARK 923 INTER-LIGAND FREE ENERGY PREDICTED BY IDOCK:   -2.42 KCAL/MOL
REMARK 924 INTRA-LIGAND FREE ENERGY PREDICTED BY IDOCK:    0.65 KCAL/MOL
REMARK 927      BINDING AFFINITY PREDICTED BY RF-SCORE:    0.00 PKD
ROOT
HETATM    1  C   UNL     1      -8.264   8.738  65.243  1.00  0.00    -0.144 C  
HETATM    2  O   UNL     1      -8.490   9.995  64.609  1.00  0.00    -0.154 OA 
ENDROOT
BRANCH   2   3
HETATM    3  C   UNL     1      -8.775  11.040  65.450  1.00  0.00    -0.116 A  
HETATM    4  C   UNL     1     -10.022  11.074  66.075  1.00  0.00    -0.237 A  
HETATM    5  N   UNL     1      -7.254  14.109  66.645  1.00  0.00     0.812 NA 
HETATM    6  C   UNL     1     -10.393  12.212  66.799  1.00  0.00    -0.237 A  
HETATM    7  C   UNL     1      -8.197  13.180  66.472  1.00  0.00     0.480 A  
HETATM    8  C   UNL     1      -9.488  13.291  67.003  1.00  0.00    -0.243 A  
HETATM    9  C   UNL     1      -7.868  12.076  65.703  1.00  0.00     1.296 A  
HETATM   10  C   UNL     1      -9.755  14.494  67.692  1.00  0.00    -0.215 A  
HETATM   11  N   UNL     1      -8.799  15.426  67.877  1.00  0.00    -0.167 NA 
HETATM   12  C   UNL     1      -7.598  15.182  67.351  1.00  0.00    -0.203 A  
BRANCH   4  13
HETATM   13  O   UNL     1     -10.988  10.104  66.004  1.00  0.00     0.130 OA 
BRANCH  13  14
HETATM   14  C   UNL     1     -11.335   9.468  67.248  1.00  0.00     0.804 C  
BRANCH  14  15
HETATM   15  C   UNL     1     -10.094   9.512  68.138  1.00  0.00    -0.214 C  
BRANCH  15  16
HETATM   16  C   UNL     1     -10.273  10.298  69.442  1.00  0.00    -0.235 C  
BRANCH  16  17
HETATM   17  N   UNL     1      -9.941   9.579  70.682  1.00  0.00    -0.279 NA 
HETATM   18  C   UNL     1      -8.471   9.439  70.836  1.00  0.00    -0.065 C  
HETATM   19  C   UNL     1      -7.849   8.396  69.890  1.00  0.00    -0.101 C  
HETATM   20  C   UNL     1     -10.530   8.225  70.780  1.00  0.00    -0.196 C  
HETATM   21  C   UNL     1      -9.859   7.159  69.894  1.00  0.00    -0.174 C  
HETATM   22  O   UNL     1      -8.440   7.108  70.092  1.00  0.00    -0.135 OA 
ENDBRANCH  16  17
ENDBRANCH  15  16
ENDBRANCH  14  15
ENDBRANCH  13  14
ENDBRANCH   4  13
BRANCH  10  23
HETATM   23  N   UNL     1     -11.074  14.780  68.130  1.00  0.00    -0.268 NA 
HETATM   24  H   UNL     1     -11.758  14.910  67.385  1.00  0.00     0.000 HD 
BRANCH  23  25
HETATM   25  C   UNL     1     -11.585  14.913  69.442  1.00  0.00    -0.309 A  
HETATM   26 CL   UNL     1     -14.002  12.745  71.806  1.00  0.00     0.132 Cl 
HETATM   27  C   UNL     1     -12.837  15.186  71.953  1.00  0.00    -0.349 A  
HETATM   28  C   UNL     1     -13.010  14.022  71.211  1.00  0.00    -0.347 A  
HETATM   29  C   UNL     1     -12.043  16.211  71.465  1.00  0.00    -0.438 A  
HETATM   30  F   UNL     1     -13.444  15.346  73.139  1.00  0.00    -0.503 F  
HETATM   31  C   UNL     1     -11.430  16.075  70.214  1.00  0.00    -0.369 A  
HETATM   32  C   UNL     1     -12.391  13.886  69.964  1.00  0.00    -0.378 A  
ENDBRANCH  23  25
ENDBRANCH  10  23
ENDBRANCH   2   3
TORSDOF 8
ENDMDL
MODEL      249
REMARK 921   NORMALIZED FREE ENERGY PREDICTED BY IDOCK:    0.56 KCAL/MOL
REMARK 922        TOTAL FREE ENERGY PREDICTED BY IDOCK:   -0.81 KCAL/MOL
REMARK 923 INTER-LIGAND FREE ENERGY PREDICTED BY IDOCK:   -2.51 KCAL/MOL
REMARK 924 INTRA-LIGAND FREE ENERGY PREDICTED BY IDOCK:    1.70 KCAL/MOL
REMARK 927      BINDING AFFINITY PREDICTED BY RF-SCORE:    0.00 PKD
ROOT
HETATM    1  C   UNL     1      -5.125   7.536  69.369  1.00  0.00    -0.015 C  
HETATM    2  O   UNL     1      -5.470   8.632  70.213  1.00  0.00    -0.022 OA 
ENDROOT
BRANCH   2   3
HETATM    3  C   UNL     1      -6.784   9.022  70.172  1.00  0.00    -0.047 A  
HETATM    4  C   UNL     1      -7.745   8.195  70.756  1.00  0.00    -0.080 A  
HETATM    5  N   UNL     1      -8.820  11.712  68.841  1.00  0.00     0.006 NA 
HETATM    6  C   UNL     1      -9.101   8.489  70.577  1.00  0.00    -0.174 A  
HETATM    7  C   UNL     1      -8.539  10.553  69.439  1.00  0.00    -0.086 A  
HETATM    8  C   UNL     1      -9.521   9.672  69.907  1.00  0.00    -0.260 A  
HETATM    9  C   UNL     1      -7.202  10.213  69.567  1.00  0.00    -0.115 A  
HETATM   10  C   UNL     1     -10.853  10.062  69.647  1.00  0.00    -0.260 A  
HETATM   11  N   UNL     1     -11.138  11.239  69.054  1.00  0.00    -0.225 NA 
HETATM   12  C   UNL     1     -10.109  12.006  68.690  1.00  0.00    -0.160 A  
BRANCH   4  13
HETATM   13  O   UNL     1      -7.500   7.043  71.459  1.00  0.00    -0.082 OA 
BRANCH  13  14
HETATM   14  C   UNL     1      -8.270   5.892  71.069  1.00  0.00    -0.122 C  
BRANCH  14  15
HETATM   15  C   UNL     1      -7.332   4.963  70.297  1.00  0.00    -0.055 C  
BRANCH  15  16
HETATM   16  C   UNL     1      -6.888   5.501  68.931  1.00  0.00    -0.055 C  
BRANCH  16  17
HETATM   17  N   UNL     1      -7.570   4.933  67.759  1.00  0.00    -0.082 NA 
HETATM   18  C   UNL     1      -6.681   3.992  67.032  1.00  0.00    -0.047 C  
HETATM   19  C   UNL     1      -5.567   4.689  66.230  1.00  0.00    -0.017 C  
HETATM   20  C   UNL     1      -8.046   5.938  66.782  1.00  0.00    -0.102 C  
HETATM   21  C   UNL     1      -6.944   6.582  65.922  1.00  0.00    -0.061 C  
HETATM   22  O   UNL     1      -6.122   5.601  65.276  1.00  0.00    -0.024 OA 
ENDBRANCH  16  17
ENDBRANCH  15  16
ENDBRANCH  14  15
ENDBRANCH  13  14
ENDBRANCH   4  13
BRANCH  10  23
HETATM   23  N   UNL     1     -11.920   9.171  69.932  1.00  0.00    -0.242 NA 
HETATM   24  H   UNL     1     -12.750   9.293  69.352  1.00  0.00     0.000 HD 
BRANCH  23  25
HETATM   25  C   UNL     1     -12.009   8.142  70.897  1.00  0.00    -0.183 A  
HETATM   26 CL   UNL     1     -10.174   7.308  74.371  1.00  0.00     0.086 Cl 
HETATM   27  C   UNL     1     -11.943   6.032  72.765  1.00  0.00     0.048 A  
HETATM   28  C   UNL     1     -11.180   7.175  72.978  1.00  0.00    -0.239 A  
HETATM   29  C   UNL     1     -12.744   5.930  71.639  1.00  0.00     0.864 A  
HETATM   30  F   UNL     1     -11.907   5.006  73.629  1.00  0.00    -0.240 F  
HETATM   31  C   UNL     1     -12.768   6.976  70.710  1.00  0.00    -0.133 A  
HETATM   32  C   UNL     1     -11.210   8.222  72.051  1.00  0.00    -0.389 A  
ENDBRANCH  23  25
ENDBRANCH  10  23
ENDBRANCH   2   3
TORSDOF 8
ENDMDL
MODEL      250
REMARK 921   NORMALIZED FREE ENERGY PREDICTED BY IDOCK:    1.01 KCAL/MOL
REMARK 922        TOTAL FREE ENERGY PREDICTED BY IDOCK:   -0.15 KCAL/MOL
REMARK 923 INTER-LIGAND FREE ENERGY PREDICTED BY IDOCK:   -2.66 KCAL/MOL
REMARK 924 INTRA-LIGAND FREE ENERGY PREDICTED BY IDOCK:    2.51 KCAL/MOL
REMARK 927      BINDING AFFINITY PREDICTED BY RF-SCORE:    0.00 PKD
ROOT
HETATM    1  C   UNL     1      -5.125   7.536  69.369  1.00  0.00    -0.015 C  
HETATM    2  O   UNL     1      -5.472   8.628  70.219  1.00  0.00    -0.022 OA 
ENDROOT
BRANCH   2   3
HETATM    3  C   UNL     1      -6.792   8.998  70.199  1.00  0.00    -0.045 A  
HETATM    4  C   UNL     1      -7.736   8.140  70.764  1.00  0.00    -0.080 A  
HETATM    5  N   UNL     1      -8.878  11.696  68.961  1.00  0.00     0.107 NA 
HETATM    6  C   UNL     1      -9.098   8.419  70.604  1.00  0.00    -0.174 A  
HETATM    7  C   UNL     1      -8.575  10.523  69.523  1.00  0.00    -0.029 A  
HETATM    8  C   UNL     1      -9.541   9.615  69.972  1.00  0.00    -0.281 A  
HETATM    9  C   UNL     1      -7.232  10.200  69.632  1.00  0.00    -0.127 A  
HETATM   10  C   UNL     1     -10.880   9.992  69.733  1.00  0.00    -0.273 A  
HETATM   11  N   UNL     1     -11.187  11.182  69.177  1.00  0.00    -0.240 NA 
HETATM   12  C   UNL     1     -10.172  11.974  68.828  1.00  0.00    -0.129 A  
BRANCH   4  13
HETATM   13  O   UNL     1      -7.469   6.973  71.432  1.00  0.00    -0.079 OA 
BRANCH  13  14
HETATM   14  C   UNL     1      -8.574   6.061  71.574  1.00  0.00    -0.132 C  
BRANCH  14  15
HETATM   15  C   UNL     1      -8.337   4.910  70.596  1.00  0.00    -0.102 C  
BRANCH  15  16
HETATM   16  C   UNL     1      -7.105   4.053  70.910  1.00  0.00    -0.033 C  
BRANCH  16  17
HETATM   17  N   UNL     1      -7.079   2.711  70.307  1.00  0.00    -0.033 NA 
HETATM   18  C   UNL     1      -7.215   2.792  68.831  1.00  0.00    -0.048 C  
HETATM   19  C   UNL     1      -8.638   3.137  68.359  1.00  0.00    -0.090 C  
HETATM   20  C   UNL     1      -8.134   1.799  70.802  1.00  0.00    -0.041 C  
HETATM   21  C   UNL     1      -9.549   2.093  70.270  1.00  0.00    -0.019 C  
HETATM   22  O   UNL     1      -9.582   2.174  68.839  1.00  0.00    -0.135 OA 
ENDBRANCH  16  17
ENDBRANCH  15  16
ENDBRANCH  14  15
ENDBRANCH  13  14
ENDBRANCH   4  13
BRANCH  10  23
HETATM   23  N   UNL     1     -11.932   9.078  70.000  1.00  0.00    -0.303 NA 
HETATM   24  H   UNL     1     -12.768   9.203  69.429  1.00  0.00     0.000 HD 
BRANCH  23  25
HETATM   25  C   UNL     1     -11.998   8.019  70.935  1.00  0.00    -0.189 A  
HETATM   26 CL   UNL     1     -10.124   7.112  74.369  1.00  0.00    -0.118 Cl 
HETATM   27  C   UNL     1     -11.886   5.857  72.740  1.00  0.00    -0.069 A  
HETATM   28  C   UNL     1     -11.138   7.005  72.981  1.00  0.00    -0.259 A  
HETATM   29  C   UNL     1     -12.695   5.776  71.617  1.00  0.00     1.153 A  
HETATM   30  F   UNL     1     -11.828   4.807  73.573  1.00  0.00    -0.362 F  
HETATM   31  C   UNL     1     -12.741   6.847  70.719  1.00  0.00    -0.112 A  
HETATM   32  C   UNL     1     -11.191   8.078  72.085  1.00  0.00    -0.380 A  
ENDBRANCH  23  25
ENDBRANCH  10  23
ENDBRANCH   2   3
TORSDOF 8
ENDMDL
MODEL      251
REMARK 921   NORMALIZED FREE ENERGY PREDICTED BY IDOCK:    1.73 KCAL/MOL
REMARK 922        TOTAL FREE ENERGY PREDICTED BY IDOCK:    0.91 KCAL/MOL
REMARK 923 INTER-LIGAND FREE ENERGY PREDICTED BY IDOCK:   -1.78 KCAL/MOL
REMARK 924 INTRA-LIGAND FREE ENERGY PREDICTED BY IDOCK:    2.69 KCAL/MOL
REMARK 927      BINDING AFFINITY PREDICTED BY RF-SCORE:    0.00 PKD
ROOT
HETATM    1  C   UNL     1      -8.783   9.449  69.346  1.00  0.00    -0.157 C  
HETATM    2  O   UNL     1      -8.389  10.464  68.423  1.00  0.00    -0.111 OA 
ENDROOT
BRANCH   2   3
HETATM    3  C   UNL     1      -8.012  11.658  68.980  1.00  0.00     0.063 A  
HETATM    4  C   UNL     1      -8.661  12.822  68.567  1.00  0.00    -0.048 A  
HETATM    5  N   UNL     1      -5.583  12.952  71.343  1.00  0.00    -0.383 NA 
HETATM    6  C   UNL     1      -8.178  14.064  68.996  1.00  0.00     0.116 A  
HETATM    7  C   UNL     1      -6.555  12.977  70.428  1.00  0.00     0.572 A  
HETATM    8  C   UNL     1      -7.109  14.162  69.929  1.00  0.00     0.170 A  
HETATM    9  C   UNL     1      -7.001  11.758  69.944  1.00  0.00     0.310 A  
HETATM   10  C   UNL     1      -6.524  15.351  70.415  1.00  0.00     0.088 A  
HETATM   11  N   UNL     1      -5.551  15.327  71.348  1.00  0.00     0.073 NA 
HETATM   12  C   UNL     1      -5.137  14.131  71.769  1.00  0.00    -0.172 A  
BRANCH   4  13
HETATM   13  O   UNL     1      -9.722  12.893  67.702  1.00  0.00    -0.202 OA 
BRANCH  13  14
HETATM   14  C   UNL     1      -9.605  13.855  66.638  1.00  0.00    -0.289 C  
BRANCH  14  15
HETATM   15  C   UNL     1      -8.819  13.186  65.511  1.00  0.00     1.184 C  
BRANCH  15  16
HETATM   16  C   UNL     1      -9.688  12.527  64.433  1.00  0.00     0.061 C  
BRANCH  16  17
HETATM   17  N   UNL     1     -10.729  11.606  64.916  1.00  0.00    -0.287 NA 
HETATM   18  C   UNL     1     -11.745  11.356  63.863  1.00  0.00     0.017 C  
HETATM   19  C   UNL     1     -12.696  12.543  63.627  1.00  0.00    -0.289 C  
HETATM   20  C   UNL     1     -11.446  12.075  66.123  1.00  0.00    -0.339 C  
HETATM   21  C   UNL     1     -12.458  13.210  65.878  1.00  0.00    -0.319 C  
HETATM   22  O   UNL     1     -13.385  12.891  64.833  1.00  0.00    -0.716 OA 
ENDBRANCH  16  17
ENDBRANCH  15  16
ENDBRANCH  14  15
ENDBRANCH  13  14
ENDBRANCH   4  13
BRANCH  10  23
HETATM   23  N   UNL     1      -6.897  16.603  69.858  1.00  0.00     0.082 NA 
HETATM   24  H   UNL     1      -6.537  17.419  70.352  1.00  0.00     0.000 HD 
BRANCH  23  25
HETATM   25  C   UNL     1      -7.690  16.890  68.724  1.00  0.00    -0.247 A  
HETATM   26 CL   UNL     1     -11.387  18.333  68.107  1.00  0.00     0.537 Cl 
HETATM   27  C   UNL     1      -9.437  17.286  66.547  1.00  0.00    -0.269 A  
HETATM   28  C   UNL     1      -9.828  17.653  67.830  1.00  0.00    -0.292 A  
HETATM   29  C   UNL     1      -8.184  16.733  66.333  1.00  0.00    -0.349 A  
HETATM   30  F   UNL     1     -10.262  17.443  65.501  1.00  0.00    -0.252 F  
HETATM   31  C   UNL     1      -7.323  16.530  67.417  1.00  0.00    -0.176 A  
HETATM   32  C   UNL     1      -8.964  17.455  68.912  1.00  0.00    -0.157 A  
ENDBRANCH  23  25
ENDBRANCH  10  23
ENDBRANCH   2   3
TORSDOF 8
ENDMDL
MODEL      252
REMARK 921   NORMALIZED FREE ENERGY PREDICTED BY IDOCK:    5.37 KCAL/MOL
REMARK 922        TOTAL FREE ENERGY PREDICTED BY IDOCK:    6.25 KCAL/MOL
REMARK 923 INTER-LIGAND FREE ENERGY PREDICTED BY IDOCK:    1.72 KCAL/MOL
REMARK 924 INTRA-LIGAND FREE ENERGY PREDICTED BY IDOCK:    4.53 KCAL/MOL
REMARK 927      BINDING AFFINITY PREDICTED BY RF-SCORE:    0.00 PKD
ROOT
HETATM    1  C   UNL     1      -7.612  11.355  67.367  1.00  0.00    -0.124 C  
HETATM    2  O   UNL     1      -8.889  11.766  66.880  1.00  0.00    -0.178 OA 
ENDROOT
BRANCH   2   3
HETATM    3  C   UNL     1      -9.469  12.813  67.548  1.00  0.00    -0.187 A  
HETATM    4  C   UNL     1      -8.847  14.062  67.501  1.00  0.00    -0.199 A  
HETATM    5  N   UNL     1     -12.321  13.476  69.689  1.00  0.00    -0.227 NA 
HETATM    6  C   UNL     1      -9.328  15.097  68.310  1.00  0.00    -0.193 A  
HETATM    7  C   UNL     1     -11.184  13.716  69.031  1.00  0.00    -0.273 A  
HETATM    8  C   UNL     1     -10.503  14.938  69.097  1.00  0.00    -0.246 A  
HETATM    9  C   UNL     1     -10.657  12.682  68.276  1.00  0.00    -0.250 A  
HETATM   10  C   UNL     1     -11.069  15.897  69.965  1.00  0.00    -0.354 A  
HETATM   11  N   UNL     1     -12.224  15.659  70.619  1.00  0.00    -0.393 NA 
HETATM   12  C   UNL     1     -12.793  14.466  70.441  1.00  0.00    -0.245 A  
BRANCH   4  13
HETATM   13  O   UNL     1      -7.732  14.382  66.770  1.00  0.00     0.146 OA 
BRANCH  13  14
HETATM   14  C   UNL     1      -7.884  15.462  65.831  1.00  0.00     2.131 C  
BRANCH  14  15
HETATM   15  C   UNL     1      -7.851  16.764  66.633  1.00  0.00    -0.307 C  
BRANCH  15  16
HETATM   16  C   UNL     1      -9.187  17.515  66.679  1.00  0.00    -0.262 C  
BRANCH  16  17
HETATM   17  N   UNL     1      -9.422  18.485  65.598  1.00  0.00    -0.167 NA 
HETATM   18  C   UNL     1      -8.145  19.094  65.146  1.00  0.00     1.520 C  
HETATM   19  C   UNL     1      -7.564  20.117  66.139  1.00  0.00    -0.266 C  
HETATM   20  C   UNL     1     -10.339  19.590  65.958  1.00  0.00    -0.511 C  
HETATM   21  C   UNL     1      -9.736  20.659  66.888  1.00  0.00    -0.284 C  
HETATM   22  O   UNL     1      -8.497  21.175  66.385  1.00  0.00     0.638 OA 
ENDBRANCH  16  17
ENDBRANCH  15  16
ENDBRANCH  14  15
ENDBRANCH  13  14
ENDBRANCH   4  13
BRANCH  10  23
HETATM   23  N   UNL     1     -10.376  17.107  70.232  1.00  0.00     0.413 NA 
HETATM   24  H   UNL     1     -10.887  17.780  70.802  1.00  0.00     0.000 HD 
BRANCH  23  25
HETATM   25  C   UNL     1      -9.086  17.521  69.828  1.00  0.00     1.165 A  
HETATM   26 CL   UNL     1      -5.496  15.758  69.463  1.00  0.00    -0.110 Cl 
HETATM   27  C   UNL     1      -6.435  18.290  69.258  1.00  0.00    -0.254 A  
HETATM   28  C   UNL     1      -6.737  16.953  69.495  1.00  0.00    -0.169 A  
HETATM   29  C   UNL     1      -7.437  19.247  69.292  1.00  0.00    -0.255 A  
HETATM   30  F   UNL     1      -5.176  18.681  69.010  1.00  0.00    -0.179 F  
HETATM   31  C   UNL     1      -8.750  18.862  69.583  1.00  0.00     0.629 A  
HETATM   32  C   UNL     1      -8.052  16.570  69.780  1.00  0.00     0.712 A  
ENDBRANCH  23  25
ENDBRANCH  10  23
ENDBRANCH   2   3
TORSDOF 8
ENDMDL
MODEL      253
REMARK 921   NORMALIZED FREE ENERGY PREDICTED BY IDOCK:    7.25 KCAL/MOL
REMARK 922        TOTAL FREE ENERGY PREDICTED BY IDOCK:    9.02 KCAL/MOL
REMARK 923 INTER-LIGAND FREE ENERGY PREDICTED BY IDOCK:    0.57 KCAL/MOL
REMARK 924 INTRA-LIGAND FREE ENERGY PREDICTED BY IDOCK:    8.45 KCAL/MOL
REMARK 927      BINDING AFFINITY PREDICTED BY RF-SCORE:    0.00 PKD
ROOT
HETATM    1  C   UNL     1      -8.846   7.693  74.271  1.00  0.00    -0.182 C  
HETATM    2  O   UNL     1     -10.069   7.883  73.561  1.00  0.00    -0.293 OA 
ENDROOT
BRANCH   2   3
HETATM    3  C   UNL     1      -9.949   8.046  72.206  1.00  0.00    -0.239 A  
HETATM    4  C   UNL     1      -8.858   7.465  71.557  1.00  0.00    -0.124 A  
HETATM    5  N   UNL     1     -11.636   9.730  69.472  1.00  0.00    -0.017 NA 
HETATM    6  C   UNL     1      -8.627   7.761  70.209  1.00  0.00    -0.138 A  
HETATM    7  C   UNL     1     -10.692   9.021  70.095  1.00  0.00    -0.233 A  
HETATM    8  C   UNL     1      -9.538   8.553  69.456  1.00  0.00    -0.170 A  
HETATM    9  C   UNL     1     -10.872   8.774  71.446  1.00  0.00    -0.359 A  
HETATM   10  C   UNL     1      -9.400   8.935  68.104  1.00  0.00    -0.142 A  
HETATM   11  N   UNL     1     -10.360   9.640  67.471  1.00  0.00    -0.225 NA 
HETATM   12  C   UNL     1     -11.429   9.994  68.184  1.00  0.00     0.132 A  
BRANCH   4  13
HETATM   13  O   UNL     1      -7.913   6.655  72.132  1.00  0.00    -0.097 OA 
BRANCH  13  14
HETATM   14  C   UNL     1      -6.914   7.319  72.927  1.00  0.00    -0.068 C  
BRANCH  14  15
HETATM   15  C   UNL     1      -7.366   8.769  73.100  1.00  0.00     0.167 C  
BRANCH  15  16
HETATM   16  C   UNL     1      -6.586   9.783  72.255  1.00  0.00     0.986 C  
BRANCH  16  17
HETATM   17  N   UNL     1      -7.211  10.183  70.984  1.00  0.00    -0.104 NA 
HETATM   18  C   UNL     1      -6.676   9.381  69.855  1.00  0.00    -0.058 C  
HETATM   19  C   UNL     1      -5.245   9.771  69.444  1.00  0.00    -0.035 C  
HETATM   20  C   UNL     1      -7.032  11.611  70.639  1.00  0.00     1.883 C  
HETATM   21  C   UNL     1      -5.622  11.991  70.151  1.00  0.00    -0.139 C  
HETATM   22  O   UNL     1      -5.179  11.153  69.076  1.00  0.00    -0.041 OA 
ENDBRANCH  16  17
ENDBRANCH  15  16
ENDBRANCH  14  15
ENDBRANCH  13  14
ENDBRANCH   4  13
BRANCH  10  23
HETATM   23  N   UNL     1      -8.196   8.653  67.407  1.00  0.00    -0.105 NA 
HETATM   24  H   UNL     1      -7.625   7.912  67.814  1.00  0.00     0.000 HD 
BRANCH  23  25
HETATM   25  C   UNL     1      -7.668   9.241  66.235  1.00  0.00    -0.096 A  
HETATM   26 CL   UNL     1      -5.535   7.940  63.090  1.00  0.00    -0.050 Cl 
HETATM   27  C   UNL     1      -6.382  10.352  63.986  1.00  0.00    -0.040 A  
HETATM   28  C   UNL     1      -6.360   8.976  64.192  1.00  0.00    -0.079 A  
HETATM   29  C   UNL     1      -7.042  11.179  64.880  1.00  0.00     0.816 A  
HETATM   30  F   UNL     1      -5.755  10.903  62.935  1.00  0.00    -0.155 F  
HETATM   31  C   UNL     1      -7.672  10.625  65.999  1.00  0.00    -0.151 A  
HETATM   32  C   UNL     1      -6.996   8.424  65.309  1.00  0.00    -0.074 A  
ENDBRANCH  23  25
ENDBRANCH  10  23
ENDBRANCH   2   3
TORSDOF 8
ENDMDL
MODEL      254
REMARK 921   NORMALIZED FREE ENERGY PREDICTED BY IDOCK:   12.01 KCAL/MOL
REMARK 922        TOTAL FREE ENERGY PREDICTED BY IDOCK:   15.99 KCAL/MOL
REMARK 923 INTER-LIGAND FREE ENERGY PREDICTED BY IDOCK:   13.24 KCAL/MOL
REMARK 924 INTRA-LIGAND FREE ENERGY PREDICTED BY IDOCK:    2.75 KCAL/MOL
REMARK 927      BINDING AFFINITY PREDICTED BY RF-SCORE:    0.00 PKD
ROOT
HETATM    1  C   UNL     1      -6.320   8.813  66.315  1.00  0.00    -0.061 C  
HETATM    2  O   UNL     1      -5.813   7.510  66.597  1.00  0.00    -0.036 OA 
ENDROOT
BRANCH   2   3
HETATM    3  C   UNL     1      -6.236   6.515  65.754  1.00  0.00    -0.038 A  
HETATM    4  C   UNL     1      -7.478   6.648  65.131  1.00  0.00    -0.087 A  
HETATM    5  N   UNL     1      -5.137   3.276  64.545  1.00  0.00    -0.008 NA 
HETATM    6  C   UNL     1      -7.998   5.572  64.404  1.00  0.00    -0.120 A  
HETATM    7  C   UNL     1      -5.949   4.320  64.723  1.00  0.00    -0.022 A  
HETATM    8  C   UNL     1      -7.244   4.384  64.195  1.00  0.00    -0.054 A  
HETATM    9  C   UNL     1      -5.475   5.369  65.494  1.00  0.00    -0.013 A  
HETATM   10  C   UNL     1      -7.670   3.229  63.503  1.00  0.00    -0.068 A  
HETATM   11  N   UNL     1      -6.845   2.179  63.313  1.00  0.00    -0.030 NA 
HETATM   12  C   UNL     1      -5.621   2.260  63.836  1.00  0.00    -0.009 A  
BRANCH   4  13
HETATM   13  O   UNL     1      -8.307   7.737  65.208  1.00  0.00    -0.139 OA 
BRANCH  13  14
HETATM   14  C   UNL     1      -9.463   7.591  66.052  1.00  0.00     0.056 C  
BRANCH  14  15
HETATM   15  C   UNL     1      -9.429   8.735  67.065  1.00  0.00    -0.218 C  
BRANCH  15  16
HETATM   16  C   UNL     1     -10.261   8.489  68.330  1.00  0.00    -0.205 C  
BRANCH  16  17
HETATM   17  N   UNL     1     -10.541   9.670  69.160  1.00  0.00    -0.215 NA 
HETATM   18  C   UNL     1      -9.455   9.894  70.148  1.00  0.00    -0.163 C  
HETATM   19  C   UNL     1      -9.465   8.889  71.314  1.00  0.00    -0.272 C  
HETATM   20  C   UNL     1     -11.816   9.603  69.909  1.00  0.00     0.124 C  
HETATM   21  C   UNL     1     -11.806   8.658  71.125  1.00  0.00    -0.287 C  
HETATM   22  O   UNL     1     -10.714   8.931  72.012  1.00  0.00    -0.339 OA 
ENDBRANCH  16  17
ENDBRANCH  15  16
ENDBRANCH  14  15
ENDBRANCH  13  14
ENDBRANCH   4  13
BRANCH  10  23
HETATM   23  N   UNL     1      -9.016   3.121  63.067  1.00  0.00    -0.092 NA 
HETATM   24  H   UNL     1      -9.181   2.418  62.347  1.00  0.00     0.000 HD 
BRANCH  23  25
HETATM   25  C   UNL     1     -10.163   3.838  63.479  1.00  0.00    -0.205 A  
HETATM   26 CL   UNL     1     -11.444   5.454  66.925  1.00  0.00     0.964 Cl 
HETATM   27  C   UNL     1     -12.499   5.074  64.460  1.00  0.00     5.043 A  
HETATM   28  C   UNL     1     -11.393   4.916  65.289  1.00  0.00     0.606 A  
HETATM   29  C   UNL     1     -12.453   4.633  63.147  1.00  0.00     4.974 A  
HETATM   30  F   UNL     1     -13.629   5.637  64.914  1.00  0.00     3.889 F  
HETATM   31  C   UNL     1     -11.295   4.012  62.667  1.00  0.00     0.424 A  
HETATM   32  C   UNL     1     -10.234   4.301  64.804  1.00  0.00    -0.163 A  
ENDBRANCH  23  25
ENDBRANCH  10  23
ENDBRANCH   2   3
TORSDOF 8
ENDMDL
MODEL      255
REMARK 921   NORMALIZED FREE ENERGY PREDICTED BY IDOCK:   12.30 KCAL/MOL
REMARK 922        TOTAL FREE ENERGY PREDICTED BY IDOCK:   16.43 KCAL/MOL
REMARK 923 INTER-LIGAND FREE ENERGY PREDICTED BY IDOCK:   14.28 KCAL/MOL
REMARK 924 INTRA-LIGAND FREE ENERGY PREDICTED BY IDOCK:    2.15 KCAL/MOL
REMARK 927      BINDING AFFINITY PREDICTED BY RF-SCORE:    0.00 PKD
ROOT
HETATM    1  C   UNL     1      -6.320   8.813  66.315  1.00  0.00    -0.061 C  
HETATM    2  O   UNL     1      -5.813   7.506  66.578  1.00  0.00    -0.034 OA 
ENDROOT
BRANCH   2   3
HETATM    3  C   UNL     1      -6.239   6.522  65.725  1.00  0.00    -0.038 A  
HETATM    4  C   UNL     1      -7.483   6.664  65.108  1.00  0.00    -0.087 A  
HETATM    5  N   UNL     1      -5.147   3.298  64.471  1.00  0.00    -0.008 NA 
HETATM    6  C   UNL     1      -8.007   5.597  64.370  1.00  0.00    -0.125 A  
HETATM    7  C   UNL     1      -5.958   4.340  64.665  1.00  0.00    -0.022 A  
HETATM    8  C   UNL     1      -7.255   4.411  64.143  1.00  0.00    -0.054 A  
HETATM    9  C   UNL     1      -5.480   5.379  65.448  1.00  0.00    -0.013 A  
HETATM   10  C   UNL     1      -7.684   3.266  63.438  1.00  0.00    -0.068 A  
HETATM   11  N   UNL     1      -6.861   2.218  63.231  1.00  0.00    -0.030 NA 
HETATM   12  C   UNL     1      -5.635   2.291  63.751  1.00  0.00    -0.009 A  
BRANCH   4  13
HETATM   13  O   UNL     1      -8.311   7.752  65.202  1.00  0.00    -0.143 OA 
BRANCH  13  14
HETATM   14  C   UNL     1      -9.465   7.596  66.049  1.00  0.00     0.036 C  
BRANCH  14  15
HETATM   15  C   UNL     1      -9.426   8.727  67.076  1.00  0.00    -0.218 C  
BRANCH  15  16
HETATM   16  C   UNL     1     -10.237   9.969  66.686  1.00  0.00    -0.223 C  
BRANCH  16  17
HETATM   17  N   UNL     1      -9.598  10.883  65.726  1.00  0.00    -0.205 NA 
HETATM   18  C   UNL     1      -8.844  11.950  66.431  1.00  0.00    -0.152 C  
HETATM   19  C   UNL     1      -9.744  13.019  67.076  1.00  0.00    -0.235 C  
HETATM   20  C   UNL     1     -10.539  11.545  64.795  1.00  0.00    -0.305 C  
HETATM   21  C   UNL     1     -11.386  12.670  65.417  1.00  0.00    -0.313 C  
HETATM   22  O   UNL     1     -10.578  13.642  66.094  1.00  0.00    -0.284 OA 
ENDBRANCH  16  17
ENDBRANCH  15  16
ENDBRANCH  14  15
ENDBRANCH  13  14
ENDBRANCH   4  13
BRANCH  10  23
HETATM   23  N   UNL     1      -9.032   3.164  63.006  1.00  0.00    -0.092 NA 
HETATM   24  H   UNL     1      -9.200   2.470  62.277  1.00  0.00     0.000 HD 
BRANCH  23  25
HETATM   25  C   UNL     1     -10.177   3.876  63.431  1.00  0.00    -0.177 A  
HETATM   26 CL   UNL     1     -11.540   5.271  66.942  1.00  0.00     1.668 Cl 
HETATM   27  C   UNL     1     -12.518   5.094  64.423  1.00  0.00     5.468 A  
HETATM   28  C   UNL     1     -11.445   4.851  65.274  1.00  0.00     0.846 A  
HETATM   29  C   UNL     1     -12.436   4.747  63.084  1.00  0.00     5.089 A  
HETATM   30  F   UNL     1     -13.651   5.649  64.879  1.00  0.00     3.889 F  
HETATM   31  C   UNL     1     -11.276   4.135  62.597  1.00  0.00     0.339 A  
HETATM   32  C   UNL     1     -10.283   4.245  64.784  1.00  0.00    -0.163 A  
ENDBRANCH  23  25
ENDBRANCH  10  23
ENDBRANCH   2   3
TORSDOF 8
ENDMDL
MODEL      256
REMARK 921   NORMALIZED FREE ENERGY PREDICTED BY IDOCK:   13.09 KCAL/MOL
REMARK 922        TOTAL FREE ENERGY PREDICTED BY IDOCK:   17.58 KCAL/MOL
REMARK 923 INTER-LIGAND FREE ENERGY PREDICTED BY IDOCK:    2.56 KCAL/MOL
REMARK 924 INTRA-LIGAND FREE ENERGY PREDICTED BY IDOCK:   15.02 KCAL/MOL
REMARK 927      BINDING AFFINITY PREDICTED BY RF-SCORE:    0.00 PKD
ROOT
HETATM    1  C   UNL     1      -8.864   7.726  74.290  1.00  0.00    -0.132 C  
HETATM    2  O   UNL     1     -10.115   7.899  73.625  1.00  0.00    -0.233 OA 
ENDROOT
BRANCH   2   3
HETATM    3  C   UNL     1     -10.041   8.320  72.323  1.00  0.00    -0.300 A  
HETATM    4  C   UNL     1      -9.402   7.501  71.391  1.00  0.00    -0.141 A  
HETATM    5  N   UNL     1     -10.963  11.183  70.295  1.00  0.00     0.055 NA 
HETATM    6  C   UNL     1      -9.169   7.986  70.100  1.00  0.00    -0.152 A  
HETATM    7  C   UNL     1     -10.411  10.005  70.596  1.00  0.00    -0.083 A  
HETATM    8  C   UNL     1      -9.663   9.253  69.682  1.00  0.00    -0.192 A  
HETATM    9  C   UNL     1     -10.577   9.539  71.890  1.00  0.00     0.247 A  
HETATM   10  C   UNL     1      -9.472   9.855  68.420  1.00  0.00    -0.137 A  
HETATM   11  N   UNL     1     -10.040  11.039  68.112  1.00  0.00    -0.174 NA 
HETATM   12  C   UNL     1     -10.761  11.637  69.061  1.00  0.00    -0.179 A  
BRANCH   4  13
HETATM   13  O   UNL     1      -8.901   6.247  71.627  1.00  0.00    -0.137 OA 
BRANCH  13  14
HETATM   14  C   UNL     1      -7.840   6.165  72.597  1.00  0.00    -0.103 C  
BRANCH  14  15
HETATM   15  C   UNL     1      -7.891   7.446  73.430  1.00  0.00    -0.125 C  
BRANCH  15  16
HETATM   16  C   UNL     1      -6.866   8.511  73.022  1.00  0.00    -0.031 C  
BRANCH  16  17
HETATM   17  N   UNL     1      -7.368   9.602  72.174  1.00  0.00     0.555 NA 
HETATM   18  C   UNL     1      -7.113   9.319  70.739  1.00  0.00    -0.117 C  
HETATM   19  C   UNL     1      -5.638   9.483  70.330  1.00  0.00    -0.042 C  
HETATM   20  C   UNL     1      -6.785  10.929  72.476  1.00  0.00     4.605 C  
HETATM   21  C   UNL     1      -5.335  11.125  71.998  1.00  0.00     0.351 C  
HETATM   22  O   UNL     1      -5.177  10.809  70.609  1.00  0.00    -0.068 OA 
ENDBRANCH  16  17
ENDBRANCH  15  16
ENDBRANCH  14  15
ENDBRANCH  13  14
ENDBRANCH   4  13
BRANCH  10  23
HETATM   23  N   UNL     1      -8.598   9.257  67.475  1.00  0.00    -0.116 NA 
HETATM   24  H   UNL     1      -8.044   9.913  66.924  1.00  0.00     0.000 HD 
BRANCH  23  25
HETATM   25  C   UNL     1      -8.378   7.892  67.181  1.00  0.00    -0.117 A  
HETATM   26 CL   UNL     1      -5.150   5.543  66.738  1.00  0.00    -0.005 Cl 
HETATM   27  C   UNL     1      -7.819   5.247  66.383  1.00  0.00    -0.103 A  
HETATM   28  C   UNL     1      -6.783   6.093  66.765  1.00  0.00    -0.061 A  
HETATM   29  C   UNL     1      -9.129   5.698  66.401  1.00  0.00    -0.150 A  
HETATM   30  F   UNL     1      -7.572   3.992  65.975  1.00  0.00    -0.082 F  
HETATM   31  C   UNL     1      -9.401   7.014  66.789  1.00  0.00    -0.191 A  
HETATM   32  C   UNL     1      -7.059   7.406  67.160  1.00  0.00    -0.084 A  
ENDBRANCH  23  25
ENDBRANCH  10  23
ENDBRANCH   2   3
TORSDOF 8
ENDMDL
MODEL      257
REMARK 921   NORMALIZED FREE ENERGY PREDICTED BY IDOCK:   49.89 KCAL/MOL
REMARK 922        TOTAL FREE ENERGY PREDICTED BY IDOCK:   71.59 KCAL/MOL
REMARK 923 INTER-LIGAND FREE ENERGY PREDICTED BY IDOCK:   58.86 KCAL/MOL
REMARK 924 INTRA-LIGAND FREE ENERGY PREDICTED BY IDOCK:   12.73 KCAL/MOL
REMARK 927      BINDING AFFINITY PREDICTED BY RF-SCORE:    0.00 PKD
ROOT
HETATM    1  C   UNL     1      -8.919   7.716  74.306  1.00  0.00    -0.130 C  
HETATM    2  O   UNL     1     -10.324   7.899  74.140  1.00  0.00     0.486 OA 
ENDROOT
BRANCH   2   3
HETATM    3  C   UNL     1     -10.743   8.139  72.858  1.00  0.00    -0.247 A  
HETATM    4  C   UNL     1     -10.725   7.088  71.940  1.00  0.00    -0.217 A  
HETATM    5  N   UNL     1     -11.920  10.896  70.814  1.00  0.00    -0.344 NA 
HETATM    6  C   UNL     1     -10.987   7.352  70.591  1.00  0.00    -0.274 A  
HETATM    7  C   UNL     1     -11.512   9.659  71.109  1.00  0.00    -0.384 A  
HETATM    8  C   UNL     1     -11.378   8.647  70.151  1.00  0.00    -0.083 A  
HETATM    9  C   UNL     1     -11.186   9.396  72.429  1.00  0.00     0.646 A  
HETATM   10  C   UNL     1     -11.644   9.037  68.821  1.00  0.00     0.970 A  
HETATM   11  N   UNL     1     -12.067  10.283  68.524  1.00  0.00     0.063 NA 
HETATM   12  C   UNL     1     -12.191  11.144  69.535  1.00  0.00    -0.277 A  
BRANCH   4  13
HETATM   13  O   UNL     1     -10.403   5.783  72.213  1.00  0.00    -0.191 OA 
BRANCH  13  14
HETATM   14  C   UNL     1      -9.083   5.556  72.738  1.00  0.00    -0.133 C  
BRANCH  14  15
HETATM   15  C   UNL     1      -8.614   6.871  73.361  1.00  0.00    -0.145 C  
BRANCH  15  16
HETATM   16  C   UNL     1      -7.777   7.754  72.428  1.00  0.00    -0.101 C  
BRANCH  16  17
HETATM   17  N   UNL     1      -6.372   7.956  72.816  1.00  0.00    -0.063 NA 
HETATM   18  C   UNL     1      -6.156   9.332  73.330  1.00  0.00     0.246 C  
HETATM   19  C   UNL     1      -6.161  10.409  72.231  1.00  0.00     1.426 C  
HETATM   20  C   UNL     1      -5.399   7.731  71.724  1.00  0.00    -0.035 C  
HETATM   21  C   UNL     1      -5.344   8.846  70.663  1.00  0.00    -0.027 C  
HETATM   22  O   UNL     1      -5.155  10.140  71.249  1.00  0.00    -0.060 OA 
ENDBRANCH  16  17
ENDBRANCH  15  16
ENDBRANCH  14  15
ENDBRANCH  13  14
ENDBRANCH   4  13
BRANCH  10  23
HETATM   23  N   UNL     1     -11.384   8.139  67.753  1.00  0.00     0.108 NA 
HETATM   24  H   UNL     1     -10.946   8.558  66.933  1.00  0.00     0.000 HD 
BRANCH  23  25
HETATM   25  C   UNL     1     -11.638   6.751  67.654  1.00  0.00     0.631 A  
HETATM   26 CL   UNL     1      -9.483   3.509  66.670  1.00  0.00    -0.203 Cl 
HETATM   27  C   UNL     1     -12.090   4.005  67.206  1.00  0.00    12.560 A  
HETATM   28  C   UNL     1     -10.806   4.526  67.097  1.00  0.00     1.078 A  
HETATM   29  C   UNL     1     -13.150   4.831  67.543  1.00  0.00    19.552 A  
HETATM   30  F   UNL     1     -12.331   2.706  66.972  1.00  0.00    13.086 F  
HETATM   31  C   UNL     1     -12.923   6.196  67.756  1.00  0.00    11.295 A  
HETATM   32  C   UNL     1     -10.580   5.890  67.317  1.00  0.00    -0.365 A  
ENDBRANCH  23  25
ENDBRANCH  10  23
ENDBRANCH   2   3
TORSDOF 8
ENDMDL
