MODEL        1
REMARK 921   NORMALIZED FREE ENERGY PREDICTED BY IDOCK:   -7.03 KCAL/MOL
REMARK 922        TOTAL FREE ENERGY PREDICTED BY IDOCK:   -8.01 KCAL/MOL
REMARK 923 INTER-LIGAND FREE ENERGY PREDICTED BY IDOCK:   -7.85 KCAL/MOL
REMARK 924 INTRA-LIGAND FREE ENERGY PREDICTED BY IDOCK:   -0.16 KCAL/MOL
REMARK 927      BINDING AFFINITY PREDICTED BY RF-SCORE:    0.00 PKD
ROOT
HETATM    1  N   UNL     1     -11.519  16.574  63.832  1.00  0.00    -1.599 NA 
HETATM    2  H2  UNL     1     -12.322  16.753  63.229  1.00  0.00     0.000 HD 
HETATM    3  C   UNL     1     -11.377  15.390  64.497  1.00  0.00    -0.313 C  
HETATM    4  H1  UNL     1     -10.787  17.273  63.964  1.00  0.00     0.000 HD 
HETATM    5  N   UNL     1     -12.306  14.504  64.329  1.00  0.00    -0.700 N  
HETATM    6  C   UNL     1     -12.223  13.291  64.965  1.00  0.00    -0.432 C  
HETATM    7  H   UNL     1     -13.100  14.708  63.722  1.00  0.00     0.000 HD 
HETATM    8  N   UNL     1     -11.202  13.095  65.918  1.00  0.00    -0.286 N  
HETATM    9  O   UNL     1     -13.039  12.409  64.708  1.00  0.00    -0.806 OA 
HETATM   10  C   UNL     1     -10.209  15.167  65.358  1.00  0.00    -0.402 C  
HETATM   11  C   UNL     1     -10.194  14.025  66.049  1.00  0.00    -0.304 C  
ENDROOT
BRANCH   8  12
HETATM   12  C   UNL     1     -11.211  11.791  66.591  1.00  0.00    -0.323 C  
HETATM   13  O   UNL     1     -12.253  11.827  67.598  1.00  0.00    -0.534 OA 
HETATM   14  C   UNL     1     -11.659  12.068  68.884  1.00  0.00    -0.321 C  
HETATM   15  C   UNL     1     -10.203  11.623  68.811  1.00  0.00    -0.177 C  
HETATM   16  F   UNL     1      -9.988   9.878  67.258  1.00  0.00    -0.191 F  
HETATM   17  C   UNL     1      -9.995  11.242  67.351  1.00  0.00    -0.182 C  
HETATM   18  O   UNL     1      -9.973  10.511  69.695  1.00  0.00    -0.354 OA 
HETATM   19  F   UNL     1      -8.794  11.647  66.900  1.00  0.00    -0.163 F  
HETATM   20  H   UNL     1      -9.065  10.234  69.650  1.00  0.00     0.000 HD 
BRANCH  14  21
HETATM   21  C   UNL     1     -11.785  13.568  69.188  1.00  0.00    -0.327 C  
HETATM   22  O   UNL     1     -10.565  14.070  69.724  1.00  0.00    -0.435 OA 
HETATM   23  H   UNL     1     -10.643  14.998  69.912  1.00  0.00     0.000 HD 
ENDBRANCH  14  21
ENDBRANCH   8  12
TORSDOF 2
ENDMDL
MODEL        2
REMARK 921   NORMALIZED FREE ENERGY PREDICTED BY IDOCK:   -6.67 KCAL/MOL
REMARK 922        TOTAL FREE ENERGY PREDICTED BY IDOCK:   -7.61 KCAL/MOL
REMARK 923 INTER-LIGAND FREE ENERGY PREDICTED BY IDOCK:   -7.62 KCAL/MOL
REMARK 924 INTRA-LIGAND FREE ENERGY PREDICTED BY IDOCK:    0.02 KCAL/MOL
REMARK 927      BINDING AFFINITY PREDICTED BY RF-SCORE:    0.00 PKD
ROOT
HETATM    1  N   UNL     1     -11.474  16.559  63.862  1.00  0.00    -1.599 NA 
HETATM    2  H2  UNL     1     -12.265  16.834  63.278  1.00  0.00     0.000 HD 
HETATM    3  C   UNL     1     -11.357  15.290  64.351  1.00  0.00    -0.215 C  
HETATM    4  H1  UNL     1     -10.736  17.221  64.105  1.00  0.00     0.000 HD 
HETATM    5  N   UNL     1     -12.293  14.450  64.042  1.00  0.00    -0.931 N  
HETATM    6  C   UNL     1     -12.235  13.156  64.497  1.00  0.00    -0.406 C  
HETATM    7  H   UNL     1     -13.074  14.750  63.459  1.00  0.00     0.000 HD 
HETATM    8  N   UNL     1     -11.234  12.811  65.429  1.00  0.00    -0.285 N  
HETATM    9  O   UNL     1     -13.056  12.332  64.103  1.00  0.00    -0.749 OA 
HETATM   10  C   UNL     1     -10.207  14.928  65.189  1.00  0.00    -0.409 C  
HETATM   11  C   UNL     1     -10.217  13.699  65.708  1.00  0.00    -0.308 C  
ENDROOT
BRANCH   8  12
HETATM   12  C   UNL     1     -11.269  11.425  65.906  1.00  0.00    -0.107 C  
HETATM   13  O   UNL     1     -12.035  11.407  67.136  1.00  0.00    -0.532 OA 
HETATM   14  C   UNL     1     -11.132  11.374  68.255  1.00  0.00    -0.244 C  
HETATM   15  C   UNL     1      -9.809  10.798  67.763  1.00  0.00    -0.166 C  
HETATM   16  F   UNL     1     -10.205   9.312  65.991  1.00  0.00    -0.364 F  
HETATM   17  C   UNL     1     -10.000  10.637  66.261  1.00  0.00    -0.222 C  
HETATM   18  O   UNL     1      -9.539   9.541  68.409  1.00  0.00    -0.140 OA 
HETATM   19  F   UNL     1      -8.890  10.982  65.582  1.00  0.00    -0.178 F  
HETATM   20  H   UNL     1      -8.714   9.181  68.103  1.00  0.00     0.000 HD 
BRANCH  14  21
HETATM   21  C   UNL     1     -10.974  12.811  68.773  1.00  0.00    -0.250 C  
HETATM   22  O   UNL     1     -11.411  12.900  70.127  1.00  0.00    -0.518 OA 
HETATM   23  H   UNL     1     -11.314  13.789  70.448  1.00  0.00     0.000 HD 
ENDBRANCH  14  21
ENDBRANCH   8  12
TORSDOF 2
ENDMDL
MODEL        3
REMARK 921   NORMALIZED FREE ENERGY PREDICTED BY IDOCK:   -6.55 KCAL/MOL
REMARK 922        TOTAL FREE ENERGY PREDICTED BY IDOCK:   -7.48 KCAL/MOL
REMARK 923 INTER-LIGAND FREE ENERGY PREDICTED BY IDOCK:   -7.71 KCAL/MOL
REMARK 924 INTRA-LIGAND FREE ENERGY PREDICTED BY IDOCK:    0.24 KCAL/MOL
REMARK 927      BINDING AFFINITY PREDICTED BY RF-SCORE:    0.00 PKD
ROOT
HETATM    1  N   UNL     1      -9.669  10.168  62.390  1.00  0.00    -0.684 NA 
HETATM    2  H2  UNL     1     -10.184   9.971  61.532  1.00  0.00     0.000 HD 
HETATM    3  C   UNL     1     -10.246  10.847  63.426  1.00  0.00    -0.295 C  
HETATM    4  H1  UNL     1      -8.702   9.868  62.512  1.00  0.00     0.000 HD 
HETATM    5  N   UNL     1     -11.473  11.228  63.271  1.00  0.00    -0.796 N  
HETATM    6  C   UNL     1     -12.114  11.912  64.275  1.00  0.00    -0.249 C  
HETATM    7  H   UNL     1     -11.965  11.021  62.402  1.00  0.00     0.000 HD 
HETATM    8  N   UNL     1     -11.365  12.325  65.396  1.00  0.00    -0.332 N  
HETATM    9  O   UNL     1     -13.312  12.164  64.175  1.00  0.00    -0.750 OA 
HETATM   10  C   UNL     1      -9.475  11.116  64.647  1.00  0.00    -0.245 C  
HETATM   11  C   UNL     1     -10.077  11.869  65.571  1.00  0.00    -0.245 C  
ENDROOT
BRANCH   8  12
HETATM   12  C   UNL     1     -12.108  13.094  66.401  1.00  0.00    -0.382 C  
HETATM   13  O   UNL     1     -12.656  14.261  65.740  1.00  0.00    -0.454 OA 
HETATM   14  C   UNL     1     -11.826  15.399  66.027  1.00  0.00     0.335 C  
HETATM   15  C   UNL     1     -11.075  15.108  67.321  1.00  0.00    -0.332 C  
HETATM   16  F   UNL     1     -12.360  13.690  68.677  1.00  0.00    -0.389 F  
HETATM   17  C   UNL     1     -11.446  13.670  67.660  1.00  0.00    -0.325 C  
HETATM   18  O   UNL     1     -11.478  16.026  68.353  1.00  0.00    -0.369 OA 
HETATM   19  F   UNL     1     -10.388  12.984  68.130  1.00  0.00    -0.213 F  
HETATM   20  H   UNL     1     -11.010  15.845  69.159  1.00  0.00     0.000 HD 
BRANCH  14  21
HETATM   21  C   UNL     1     -10.871  15.596  64.841  1.00  0.00    -0.418 C  
HETATM   22  O   UNL     1     -11.459  16.454  63.867  1.00  0.00    -1.569 OA 
HETATM   23  H   UNL     1     -10.868  16.576  63.134  1.00  0.00     0.000 HD 
ENDBRANCH  14  21
ENDBRANCH   8  12
TORSDOF 2
ENDMDL
MODEL        4
REMARK 921   NORMALIZED FREE ENERGY PREDICTED BY IDOCK:   -6.53 KCAL/MOL
REMARK 922        TOTAL FREE ENERGY PREDICTED BY IDOCK:   -7.46 KCAL/MOL
REMARK 923 INTER-LIGAND FREE ENERGY PREDICTED BY IDOCK:   -7.42 KCAL/MOL
REMARK 924 INTRA-LIGAND FREE ENERGY PREDICTED BY IDOCK:   -0.04 KCAL/MOL
REMARK 927      BINDING AFFINITY PREDICTED BY RF-SCORE:    0.00 PKD
ROOT
HETATM    1  N   UNL     1     -13.045  12.220  63.893  1.00  0.00    -0.761 NA 
HETATM    2  H2  UNL     1     -13.286  12.247  62.901  1.00  0.00     0.000 HD 
HETATM    3  C   UNL     1     -12.497  13.301  64.521  1.00  0.00    -0.319 C  
HETATM    4  H1  UNL     1     -13.202  11.384  64.456  1.00  0.00     0.000 HD 
HETATM    5  N   UNL     1     -12.298  14.361  63.806  1.00  0.00    -1.079 N  
HETATM    6  C   UNL     1     -11.754  15.485  64.376  1.00  0.00    -0.242 C  
HETATM    7  H   UNL     1     -12.546  14.362  62.816  1.00  0.00     0.000 HD 
HETATM    8  N   UNL     1     -11.274  15.407  65.700  1.00  0.00    -0.261 N  
HETATM    9  O   UNL     1     -11.680  16.525  63.728  1.00  0.00    -1.086 OA 
HETATM   10  C   UNL     1     -12.159  13.227  65.949  1.00  0.00    -0.493 C  
HETATM   11  C   UNL     1     -11.538  14.290  66.464  1.00  0.00    -0.378 C  
ENDROOT
BRANCH   8  12
HETATM   12  C   UNL     1     -10.661  16.633  66.222  1.00  0.00    -0.205 C  
HETATM   13  O   UNL     1      -9.257  16.605  65.864  1.00  0.00    -0.471 OA 
HETATM   14  C   UNL     1      -8.487  16.182  67.002  1.00  0.00    -0.208 C  
HETATM   15  C   UNL     1      -9.308  16.484  68.251  1.00  0.00    -0.217 C  
HETATM   16  F   UNL     1     -10.687  18.340  67.860  1.00  0.00    -0.403 F  
HETATM   17  C   UNL     1     -10.644  16.981  67.716  1.00  0.00    -0.350 C  
HETATM   18  O   UNL     1      -8.647  17.476  69.058  1.00  0.00    -0.175 OA 
HETATM   19  F   UNL     1     -11.674  16.503  68.439  1.00  0.00    -0.312 F  
HETATM   20  H   UNL     1      -9.159  17.664  69.837  1.00  0.00     0.000 HD 
BRANCH  14  21
HETATM   21  C   UNL     1      -8.206  14.681  66.849  1.00  0.00    -0.076 C  
HETATM   22  O   UNL     1      -6.837  14.402  67.126  1.00  0.00    -0.379 OA 
HETATM   23  H   UNL     1      -6.663  13.473  67.032  1.00  0.00     0.000 HD 
ENDBRANCH  14  21
ENDBRANCH   8  12
TORSDOF 2
ENDMDL
MODEL        5
REMARK 921   NORMALIZED FREE ENERGY PREDICTED BY IDOCK:   -6.51 KCAL/MOL
REMARK 922        TOTAL FREE ENERGY PREDICTED BY IDOCK:   -7.43 KCAL/MOL
REMARK 923 INTER-LIGAND FREE ENERGY PREDICTED BY IDOCK:   -7.31 KCAL/MOL
REMARK 924 INTRA-LIGAND FREE ENERGY PREDICTED BY IDOCK:   -0.12 KCAL/MOL
REMARK 927      BINDING AFFINITY PREDICTED BY RF-SCORE:    0.00 PKD
ROOT
HETATM    1  N   UNL     1      -9.964   8.300  66.573  1.00  0.00    -0.362 NA 
HETATM    2  H2  UNL     1     -10.451   7.674  67.216  1.00  0.00     0.000 HD 
HETATM    3  C   UNL     1     -10.244   9.636  66.530  1.00  0.00    -0.224 C  
HETATM    4  H1  UNL     1      -9.247   7.954  65.935  1.00  0.00     0.000 HD 
HETATM    5  N   UNL     1     -11.154  10.074  67.340  1.00  0.00    -0.331 N  
HETATM    6  C   UNL     1     -11.481  11.407  67.351  1.00  0.00    -0.251 C  
HETATM    7  H   UNL     1     -11.628   9.428  67.971  1.00  0.00     0.000 HD 
HETATM    8  N   UNL     1     -10.929  12.248  66.363  1.00  0.00    -0.274 N  
HETATM    9  O   UNL     1     -12.254  11.840  68.202  1.00  0.00    -0.507 OA 
HETATM   10  C   UNL     1      -9.525  10.507  65.591  1.00  0.00    -0.259 C  
HETATM   11  C   UNL     1      -9.926  11.779  65.542  1.00  0.00    -0.242 C  
ENDROOT
BRANCH   8  12
HETATM   12  C   UNL     1     -11.366  13.647  66.409  1.00  0.00    -0.316 C  
HETATM   13  O   UNL     1     -12.582  13.750  65.629  1.00  0.00    -0.491 OA 
HETATM   14  C   UNL     1     -12.268  14.283  64.331  1.00  0.00    -0.447 C  
HETATM   15  C   UNL     1     -10.961  15.057  64.456  1.00  0.00    -0.191 C  
HETATM   16  F   UNL     1     -10.760  15.924  66.626  1.00  0.00    -0.310 F  
HETATM   17  C   UNL     1     -10.503  14.803  65.886  1.00  0.00    -0.312 C  
HETATM   18  O   UNL     1     -11.180  16.457  64.200  1.00  0.00    -1.273 OA 
HETATM   19  F   UNL     1      -9.172  14.616  65.953  1.00  0.00    -0.294 F  
HETATM   20  H   UNL     1     -10.365  16.939  64.278  1.00  0.00     0.000 HD 
BRANCH  14  21
HETATM   21  C   UNL     1     -12.145  13.104  63.355  1.00  0.00    -0.486 C  
HETATM   22  O   UNL     1     -13.223  12.191  63.543  1.00  0.00    -0.744 OA 
HETATM   23  H   UNL     1     -13.147  11.461  62.939  1.00  0.00     0.000 HD 
ENDBRANCH  14  21
ENDBRANCH   8  12
TORSDOF 2
ENDMDL
MODEL        6
REMARK 921   NORMALIZED FREE ENERGY PREDICTED BY IDOCK:   -6.47 KCAL/MOL
REMARK 922        TOTAL FREE ENERGY PREDICTED BY IDOCK:   -7.38 KCAL/MOL
REMARK 923 INTER-LIGAND FREE ENERGY PREDICTED BY IDOCK:   -7.26 KCAL/MOL
REMARK 924 INTRA-LIGAND FREE ENERGY PREDICTED BY IDOCK:   -0.12 KCAL/MOL
REMARK 927      BINDING AFFINITY PREDICTED BY RF-SCORE:    0.00 PKD
ROOT
HETATM    1  N   UNL     1     -10.975  10.668  70.236  1.00  0.00    -0.448 NA 
HETATM    2  H2  UNL     1     -10.512   9.764  70.339  1.00  0.00     0.000 HD 
HETATM    3  C   UNL     1     -11.106  11.266  69.016  1.00  0.00    -0.244 C  
HETATM    4  H1  UNL     1     -11.361  11.162  71.041  1.00  0.00     0.000 HD 
HETATM    5  N   UNL     1     -10.616  10.639  67.995  1.00  0.00    -0.194 N  
HETATM    6  C   UNL     1     -10.716  11.183  66.739  1.00  0.00    -0.276 C  
HETATM    7  H   UNL     1     -10.156   9.737  68.124  1.00  0.00     0.000 HD 
HETATM    8  N   UNL     1     -11.212  12.497  66.609  1.00  0.00    -0.290 N  
HETATM    9  O   UNL     1     -10.362  10.531  65.760  1.00  0.00    -0.249 OA 
HETATM   10  C   UNL     1     -11.776  12.568  68.905  1.00  0.00    -0.367 C  
HETATM   11  C   UNL     1     -11.775  13.131  67.695  1.00  0.00    -0.369 C  
ENDROOT
BRANCH   8  12
HETATM   12  C   UNL     1     -11.240  13.026  65.241  1.00  0.00    -0.289 C  
HETATM   13  O   UNL     1      -9.927  13.568  64.956  1.00  0.00    -0.266 OA 
HETATM   14  C   UNL     1      -9.961  14.996  65.110  1.00  0.00    -0.234 C  
HETATM   15  C   UNL     1     -11.407  15.445  64.935  1.00  0.00    -0.363 C  
HETATM   16  F   UNL     1     -12.522  13.970  63.490  1.00  0.00    -0.499 F  
HETATM   17  C   UNL     1     -12.194  14.147  64.806  1.00  0.00    -0.440 C  
HETATM   18  O   UNL     1     -11.538  16.273  63.765  1.00  0.00    -1.539 OA 
HETATM   19  F   UNL     1     -13.363  14.210  65.469  1.00  0.00    -0.531 F  
HETATM   20  H   UNL     1     -12.440  16.552  63.656  1.00  0.00     0.000 HD 
BRANCH  14  21
HETATM   21  C   UNL     1      -9.422  15.332  66.507  1.00  0.00    -0.283 C  
HETATM   22  O   UNL     1      -8.210  14.624  66.755  1.00  0.00    -0.377 OA 
HETATM   23  H   UNL     1      -7.876  14.832  67.619  1.00  0.00     0.000 HD 
ENDBRANCH  14  21
ENDBRANCH   8  12
TORSDOF 2
ENDMDL
MODEL        7
REMARK 921   NORMALIZED FREE ENERGY PREDICTED BY IDOCK:   -6.39 KCAL/MOL
REMARK 922        TOTAL FREE ENERGY PREDICTED BY IDOCK:   -7.30 KCAL/MOL
REMARK 923 INTER-LIGAND FREE ENERGY PREDICTED BY IDOCK:   -7.25 KCAL/MOL
REMARK 924 INTRA-LIGAND FREE ENERGY PREDICTED BY IDOCK:   -0.05 KCAL/MOL
REMARK 927      BINDING AFFINITY PREDICTED BY RF-SCORE:    0.00 PKD
ROOT
HETATM    1  N   UNL     1      -9.089  10.077  69.216  1.00  0.00    -0.187 NA 
HETATM    2  H2  UNL     1      -9.482   9.718  70.086  1.00  0.00     0.000 HD 
HETATM    3  C   UNL     1      -9.542  11.237  68.655  1.00  0.00    -0.190 C  
HETATM    4  H1  UNL     1      -8.340   9.586  68.727  1.00  0.00     0.000 HD 
HETATM    5  N   UNL     1     -10.492  11.861  69.276  1.00  0.00    -0.435 N  
HETATM    6  C   UNL     1     -10.991  13.034  68.769  1.00  0.00    -0.258 C  
HETATM    7  H   UNL     1     -10.870  11.479  70.143  1.00  0.00     0.000 HD 
HETATM    8  N   UNL     1     -10.565  13.455  67.492  1.00  0.00    -0.249 N  
HETATM    9  O   UNL     1     -11.804  13.685  69.420  1.00  0.00    -0.297 OA 
HETATM   10  C   UNL     1      -8.955  11.725  67.401  1.00  0.00    -0.173 C  
HETATM   11  C   UNL     1      -9.519  12.811  66.868  1.00  0.00    -0.235 C  
ENDROOT
BRANCH   8  12
HETATM   12  C   UNL     1     -11.182  14.691  66.997  1.00  0.00    -0.344 C  
HETATM   13  O   UNL     1     -12.473  14.341  66.440  1.00  0.00    -0.441 OA 
HETATM   14  C   UNL     1     -12.365  14.266  65.009  1.00  0.00    -0.428 C  
HETATM   15  C   UNL     1     -11.170  15.114  64.591  1.00  0.00    -0.343 C  
HETATM   16  F   UNL     1     -10.872  16.867  66.121  1.00  0.00    -0.267 F  
HETATM   17  C   UNL     1     -10.541  15.558  65.905  1.00  0.00    -0.339 C  
HETATM   18  O   UNL     1     -11.602  16.233  63.795  1.00  0.00    -1.539 OA 
HETATM   19  F   UNL     1      -9.197  15.524  65.846  1.00  0.00    -0.326 F  
HETATM   20  H   UNL     1     -10.857  16.762  63.535  1.00  0.00     0.000 HD 
BRANCH  14  21
HETATM   21  C   UNL     1     -12.182  12.789  64.628  1.00  0.00    -0.447 C  
HETATM   22  O   UNL     1     -13.130  12.412  63.633  1.00  0.00    -0.748 OA 
HETATM   23  H   UNL     1     -13.016  11.499  63.398  1.00  0.00     0.000 HD 
ENDBRANCH  14  21
ENDBRANCH   8  12
TORSDOF 2
ENDMDL
MODEL        8
REMARK 921   NORMALIZED FREE ENERGY PREDICTED BY IDOCK:   -6.31 KCAL/MOL
REMARK 922        TOTAL FREE ENERGY PREDICTED BY IDOCK:   -7.21 KCAL/MOL
REMARK 923 INTER-LIGAND FREE ENERGY PREDICTED BY IDOCK:   -7.18 KCAL/MOL
REMARK 924 INTRA-LIGAND FREE ENERGY PREDICTED BY IDOCK:   -0.03 KCAL/MOL
REMARK 927      BINDING AFFINITY PREDICTED BY RF-SCORE:    0.00 PKD
ROOT
HETATM    1  N   UNL     1     -12.746  12.045  63.087  1.00  0.00    -0.846 NA 
HETATM    2  H2  UNL     1     -12.961  12.298  62.122  1.00  0.00     0.000 HD 
HETATM    3  C   UNL     1     -12.326  12.979  63.990  1.00  0.00    -0.363 C  
HETATM    4  H1  UNL     1     -12.835  11.085  63.418  1.00  0.00     0.000 HD 
HETATM    5  N   UNL     1     -12.213  14.198  63.570  1.00  0.00    -1.090 N  
HETATM    6  C   UNL     1     -11.798  15.187  64.427  1.00  0.00    -0.305 C  
HETATM    7  H   UNL     1     -12.432  14.425  62.600  1.00  0.00     0.000 HD 
HETATM    8  N   UNL     1     -11.350  14.823  65.713  1.00  0.00    -0.342 N  
HETATM    9  O   UNL     1     -11.810  16.359  64.060  1.00  0.00    -1.003 OA 
HETATM   10  C   UNL     1     -12.021  12.581  65.371  1.00  0.00    -0.492 C  
HETATM   11  C   UNL     1     -11.523  13.532  66.163  1.00  0.00    -0.325 C  
ENDROOT
BRANCH   8  12
HETATM   12  C   UNL     1     -10.876  15.929  66.552  1.00  0.00    -0.198 C  
HETATM   13  O   UNL     1      -9.459  16.094  66.296  1.00  0.00    -0.268 OA 
HETATM   14  C   UNL     1      -8.712  15.468  67.353  1.00  0.00    -0.178 C  
HETATM   15  C   UNL     1      -9.617  15.396  68.577  1.00  0.00    -0.201 C  
HETATM   16  F   UNL     1     -11.137  17.182  68.542  1.00  0.00    -0.337 F  
HETATM   17  C   UNL     1     -10.965  15.905  68.084  1.00  0.00    -0.335 C  
HETATM   18  O   UNL     1      -9.089  16.210  69.640  1.00  0.00    -0.124 OA 
HETATM   19  F   UNL     1     -11.982  15.191  68.599  1.00  0.00    -0.341 F  
HETATM   20  H   UNL     1      -9.653  16.165  70.404  1.00  0.00     0.000 HD 
BRANCH  14  21
HETATM   21  C   UNL     1      -8.290  14.073  66.868  1.00  0.00    -0.017 C  
HETATM   22  O   UNL     1      -6.906  13.856  67.127  1.00  0.00    -0.414 OA 
HETATM   23  H   UNL     1      -6.645  12.993  66.827  1.00  0.00     0.000 HD 
ENDBRANCH  14  21
ENDBRANCH   8  12
TORSDOF 2
ENDMDL
MODEL        9
REMARK 921   NORMALIZED FREE ENERGY PREDICTED BY IDOCK:   -6.24 KCAL/MOL
REMARK 922        TOTAL FREE ENERGY PREDICTED BY IDOCK:   -7.13 KCAL/MOL
REMARK 923 INTER-LIGAND FREE ENERGY PREDICTED BY IDOCK:   -7.17 KCAL/MOL
REMARK 924 INTRA-LIGAND FREE ENERGY PREDICTED BY IDOCK:    0.04 KCAL/MOL
REMARK 927      BINDING AFFINITY PREDICTED BY RF-SCORE:    0.00 PKD
ROOT
HETATM    1  N   UNL     1     -10.857  12.144  64.503  1.00  0.00    -0.295 NA 
HETATM    2  H2  UNL     1     -11.240  11.951  63.577  1.00  0.00     0.000 HD 
HETATM    3  C   UNL     1     -10.756  13.420  64.980  1.00  0.00    -0.343 C  
HETATM    4  H1  UNL     1     -10.534  11.392  65.112  1.00  0.00     0.000 HD 
HETATM    5  N   UNL     1     -11.167  14.373  64.207  1.00  0.00    -0.611 N  
HETATM    6  C   UNL     1     -11.097  15.678  64.626  1.00  0.00    -0.373 C  
HETATM    7  H   UNL     1     -11.543  14.154  63.284  1.00  0.00     0.000 HD 
HETATM    8  N   UNL     1     -10.428  15.966  65.834  1.00  0.00    -0.341 N  
HETATM    9  O   UNL     1     -11.598  16.567  63.943  1.00  0.00    -1.175 OA 
HETATM   10  C   UNL     1     -10.198  13.662  66.317  1.00  0.00    -0.296 C  
HETATM   11  C   UNL     1     -10.042  14.940  66.668  1.00  0.00    -0.258 C  
ENDROOT
BRANCH   8  12
HETATM   12  C   UNL     1     -10.350  17.387  66.188  1.00  0.00    -0.327 C  
HETATM   13  O   UNL     1      -9.070  17.883  65.725  1.00  0.00    -0.495 OA 
HETATM   14  C   UNL     1      -8.157  17.942  66.833  1.00  0.00    -0.229 C  
HETATM   15  C   UNL     1      -8.986  18.033  68.109  1.00  0.00    -0.283 C  
HETATM   16  F   UNL     1     -11.015  19.120  67.657  1.00  0.00    -0.505 F  
HETATM   17  C   UNL     1     -10.427  17.885  67.638  1.00  0.00    -0.397 C  
HETATM   18  O   UNL     1      -8.760  19.295  68.765  1.00  0.00    -0.362 OA 
HETATM   19  F   UNL     1     -11.147  17.123  68.481  1.00  0.00    -0.337 F  
HETATM   20  H   UNL     1      -9.277  19.351  69.561  1.00  0.00     0.000 HD 
BRANCH  14  21
HETATM   21  C   UNL     1      -7.294  16.673  66.800  1.00  0.00    -0.248 C  
HETATM   22  O   UNL     1      -6.020  16.954  66.225  1.00  0.00    -0.290 OA 
HETATM   23  H   UNL     1      -5.486  16.169  66.204  1.00  0.00     0.000 HD 
ENDBRANCH  14  21
ENDBRANCH   8  12
TORSDOF 2
ENDMDL
MODEL       10
REMARK 921   NORMALIZED FREE ENERGY PREDICTED BY IDOCK:   -6.21 KCAL/MOL
REMARK 922        TOTAL FREE ENERGY PREDICTED BY IDOCK:   -7.09 KCAL/MOL
REMARK 923 INTER-LIGAND FREE ENERGY PREDICTED BY IDOCK:   -7.39 KCAL/MOL
REMARK 924 INTRA-LIGAND FREE ENERGY PREDICTED BY IDOCK:    0.29 KCAL/MOL
REMARK 927      BINDING AFFINITY PREDICTED BY RF-SCORE:    0.00 PKD
ROOT
HETATM    1  N   UNL     1     -11.553  14.655  71.355  1.00  0.00    -0.504 NA 
HETATM    2  H2  UNL     1     -11.546  14.003  72.140  1.00  0.00     0.000 HD 
HETATM    3  C   UNL     1     -11.650  14.216  70.066  1.00  0.00    -0.248 C  
HETATM    4  H1  UNL     1     -11.487  15.663  71.500  1.00  0.00     0.000 HD 
HETATM    5  N   UNL     1     -11.733  12.937  69.883  1.00  0.00    -0.485 N  
HETATM    6  C   UNL     1     -11.836  12.428  68.612  1.00  0.00    -0.302 C  
HETATM    7  H   UNL     1     -11.722  12.306  70.684  1.00  0.00     0.000 HD 
HETATM    8  N   UNL     1     -11.688  13.306  67.518  1.00  0.00    -0.348 N  
HETATM    9  O   UNL     1     -12.038  11.228  68.448  1.00  0.00    -0.598 OA 
HETATM   10  C   UNL     1     -11.654  15.182  68.959  1.00  0.00    -0.350 C  
HETATM   11  C   UNL     1     -11.651  14.668  67.727  1.00  0.00    -0.359 C  
ENDROOT
BRANCH   8  12
HETATM   12  C   UNL     1     -11.760  12.680  66.193  1.00  0.00    -0.406 C  
HETATM   13  O   UNL     1     -10.467  12.845  65.562  1.00  0.00    -0.280 OA 
HETATM   14  C   UNL     1     -10.530  13.941  64.634  1.00  0.00    -0.396 C  
HETATM   15  C   UNL     1     -11.990  14.124  64.236  1.00  0.00    -0.435 C  
HETATM   16  F   UNL     1     -13.103  12.062  64.345  1.00  0.00    -0.505 F  
HETATM   17  C   UNL     1     -12.750  13.137  65.113  1.00  0.00    -0.405 C  
HETATM   18  O   UNL     1     -12.167  13.847  62.835  1.00  0.00    -0.927 OA 
HETATM   19  F   UNL     1     -13.904  13.662  65.562  1.00  0.00     0.166 F  
HETATM   20  H   UNL     1     -13.077  13.961  62.586  1.00  0.00     0.000 HD 
BRANCH  14  21
HETATM   21  C   UNL     1      -9.967  15.185  65.336  1.00  0.00    -0.330 C  
HETATM   22  O   UNL     1     -10.628  16.359  64.870  1.00  0.00    -0.677 OA 
HETATM   23  H   UNL     1     -10.279  17.129  65.305  1.00  0.00     0.000 HD 
ENDBRANCH  14  21
ENDBRANCH   8  12
TORSDOF 2
ENDMDL
MODEL       11
REMARK 921   NORMALIZED FREE ENERGY PREDICTED BY IDOCK:   -6.16 KCAL/MOL
REMARK 922        TOTAL FREE ENERGY PREDICTED BY IDOCK:   -7.04 KCAL/MOL
REMARK 923 INTER-LIGAND FREE ENERGY PREDICTED BY IDOCK:   -6.99 KCAL/MOL
REMARK 924 INTRA-LIGAND FREE ENERGY PREDICTED BY IDOCK:   -0.05 KCAL/MOL
REMARK 927      BINDING AFFINITY PREDICTED BY RF-SCORE:    0.00 PKD
ROOT
HETATM    1  N   UNL     1      -7.688  11.233  69.566  1.00  0.00    -0.367 NA 
HETATM    2  H2  UNL     1      -7.839  10.495  70.254  1.00  0.00     0.000 HD 
HETATM    3  C   UNL     1      -8.708  11.697  68.785  1.00  0.00    -0.010 C  
HETATM    4  H1  UNL     1      -6.770  11.656  69.431  1.00  0.00     0.000 HD 
HETATM    5  N   UNL     1      -9.874  11.161  68.956  1.00  0.00    -0.359 N  
HETATM    6  C   UNL     1     -10.943  11.584  68.207  1.00  0.00    -0.224 C  
HETATM    7  H   UNL     1      -9.998  10.424  69.650  1.00  0.00     0.000 HD 
HETATM    8  N   UNL     1     -10.713  12.488  67.149  1.00  0.00    -0.234 N  
HETATM    9  O   UNL     1     -12.069  11.162  68.456  1.00  0.00    -0.586 OA 
HETATM   10  C   UNL     1      -8.456  12.759  67.802  1.00  0.00    -0.177 C  
HETATM   11  C   UNL     1      -9.480  13.087  67.011  1.00  0.00    -0.237 C  
ENDROOT
BRANCH   8  12
HETATM   12  C   UNL     1     -11.896  12.852  66.363  1.00  0.00    -0.415 C  
HETATM   13  O   UNL     1     -12.143  11.778  65.422  1.00  0.00    -0.296 OA 
HETATM   14  C   UNL     1     -11.633  12.153  64.132  1.00  0.00    -0.390 C  
HETATM   15  C   UNL     1     -11.570  13.675  64.085  1.00  0.00    -0.352 C  
HETATM   16  F   UNL     1     -13.243  14.576  65.461  1.00  0.00    -0.417 F  
HETATM   17  C   UNL     1     -11.957  14.114  65.492  1.00  0.00    -0.391 C  
HETATM   18  O   UNL     1     -12.480  14.184  63.093  1.00  0.00    -1.126 OA 
HETATM   19  F   UNL     1     -11.205  15.149  65.910  1.00  0.00    -0.336 F  
HETATM   20  H   UNL     1     -12.441  15.133  63.063  1.00  0.00     0.000 HD 
BRANCH  14  21
HETATM   21  C   UNL     1     -10.244  11.517  63.972  1.00  0.00    -0.345 C  
HETATM   22  O   UNL     1     -10.183  10.756  62.769  1.00  0.00    -0.727 OA 
HETATM   23  H   UNL     1      -9.324  10.363  62.670  1.00  0.00     0.000 HD 
ENDBRANCH  14  21
ENDBRANCH   8  12
TORSDOF 2
ENDMDL
MODEL       12
REMARK 921   NORMALIZED FREE ENERGY PREDICTED BY IDOCK:   -6.14 KCAL/MOL
REMARK 922        TOTAL FREE ENERGY PREDICTED BY IDOCK:   -7.02 KCAL/MOL
REMARK 923 INTER-LIGAND FREE ENERGY PREDICTED BY IDOCK:   -7.17 KCAL/MOL
REMARK 924 INTRA-LIGAND FREE ENERGY PREDICTED BY IDOCK:    0.16 KCAL/MOL
REMARK 927      BINDING AFFINITY PREDICTED BY RF-SCORE:    0.00 PKD
ROOT
HETATM    1  N   UNL     1     -10.244  18.533  69.155  1.00  0.00    -0.448 NA 
HETATM    2  H2  UNL     1      -9.537  19.224  68.904  1.00  0.00     0.000 HD 
HETATM    3  C   UNL     1     -10.333  17.336  68.502  1.00  0.00    -0.371 C  
HETATM    4  H1  UNL     1     -10.915  18.705  69.903  1.00  0.00     0.000 HD 
HETATM    5  N   UNL     1      -9.481  17.117  67.553  1.00  0.00    -0.245 N  
HETATM    6  C   UNL     1      -9.512  15.933  66.859  1.00  0.00    -0.227 C  
HETATM    7  H   UNL     1      -8.785  17.826  67.319  1.00  0.00     0.000 HD 
HETATM    8  N   UNL     1     -10.579  15.041  67.091  1.00  0.00    -0.289 N  
HETATM    9  O   UNL     1      -8.629  15.679  66.044  1.00  0.00    -0.242 OA 
HETATM   10  C   UNL     1     -11.364  16.364  68.887  1.00  0.00    -0.272 C  
HETATM   11  C   UNL     1     -11.447  15.263  68.138  1.00  0.00    -0.346 C  
ENDROOT
BRANCH   8  12
HETATM   12  C   UNL     1     -10.570  13.822  66.275  1.00  0.00    -0.289 C  
HETATM   13  O   UNL     1     -10.544  14.228  64.884  1.00  0.00    -0.393 OA 
HETATM   14  C   UNL     1     -11.871  14.134  64.340  1.00  0.00    -0.428 C  
HETATM   15  C   UNL     1     -12.648  13.135  65.189  1.00  0.00    -0.465 C  
HETATM   16  F   UNL     1     -11.174  11.542  66.081  1.00  0.00    -0.339 F  
HETATM   17  C   UNL     1     -11.697  12.782  66.326  1.00  0.00    -0.402 C  
HETATM   18  O   UNL     1     -13.004  11.980  64.406  1.00  0.00    -0.600 OA 
HETATM   19  F   UNL     1     -12.347  12.681  67.500  1.00  0.00    -0.329 F  
HETATM   20  H   UNL     1     -13.488  11.358  64.935  1.00  0.00     0.000 HD 
BRANCH  14  21
HETATM   21  C   UNL     1     -12.498  15.534  64.384  1.00  0.00     0.108 C  
HETATM   22  O   UNL     1     -11.569  16.509  63.918  1.00  0.00    -1.598 OA 
HETATM   23  H   UNL     1     -11.958  17.376  63.946  1.00  0.00     0.000 HD 
ENDBRANCH  14  21
ENDBRANCH   8  12
TORSDOF 2
ENDMDL
MODEL       13
REMARK 921   NORMALIZED FREE ENERGY PREDICTED BY IDOCK:   -6.10 KCAL/MOL
REMARK 922        TOTAL FREE ENERGY PREDICTED BY IDOCK:   -6.97 KCAL/MOL
REMARK 923 INTER-LIGAND FREE ENERGY PREDICTED BY IDOCK:   -6.98 KCAL/MOL
REMARK 924 INTRA-LIGAND FREE ENERGY PREDICTED BY IDOCK:    0.01 KCAL/MOL
REMARK 927      BINDING AFFINITY PREDICTED BY RF-SCORE:    0.00 PKD
ROOT
HETATM    1  N   UNL     1     -11.570  16.286  71.138  1.00  0.00    -0.585 NA 
HETATM    2  H2  UNL     1     -10.824  16.705  71.693  1.00  0.00     0.000 HD 
HETATM    3  C   UNL     1     -11.297  15.497  70.057  1.00  0.00    -0.321 C  
HETATM    4  H1  UNL     1     -12.553  16.438  71.366  1.00  0.00     0.000 HD 
HETATM    5  N   UNL     1     -10.050  15.304  69.768  1.00  0.00    -0.391 N  
HETATM    6  C   UNL     1      -9.705  14.519  68.697  1.00  0.00    -0.221 C  
HETATM    7  H   UNL     1      -9.322  15.736  70.338  1.00  0.00     0.000 HD 
HETATM    8  N   UNL     1     -10.724  14.066  67.834  1.00  0.00    -0.238 N  
HETATM    9  O   UNL     1      -8.525  14.238  68.499  1.00  0.00    -0.161 OA 
HETATM   10  C   UNL     1     -12.395  14.911  69.278  1.00  0.00    -0.138 C  
HETATM   11  C   UNL     1     -12.047  14.236  68.181  1.00  0.00    -0.240 C  
ENDROOT
BRANCH   8  12
HETATM   12  C   UNL     1     -10.271  13.275  66.684  1.00  0.00    -0.265 C  
HETATM   13  O   UNL     1      -9.572  14.172  65.787  1.00  0.00    -0.242 OA 
HETATM   14  C   UNL     1     -10.450  14.543  64.710  1.00  0.00    -0.337 C  
HETATM   15  C   UNL     1     -11.513  13.457  64.587  1.00  0.00    -0.348 C  
HETATM   16  F   UNL     1     -10.625  11.401  65.284  1.00  0.00    -0.302 F  
HETATM   17  C   UNL     1     -11.241  12.525  65.760  1.00  0.00    -0.320 C  
HETATM   18  O   UNL     1     -11.395  12.781  63.322  1.00  0.00    -0.689 OA 
HETATM   19  F   UNL     1     -12.384  12.103  66.332  1.00  0.00    -0.317 F  
HETATM   20  H   UNL     1     -12.058  12.104  63.246  1.00  0.00     0.000 HD 
BRANCH  14  21
HETATM   21  C   UNL     1     -11.062  15.909  65.051  1.00  0.00    -0.360 C  
HETATM   22  O   UNL     1     -11.723  16.454  63.913  1.00  0.00    -1.504 OA 
HETATM   23  H   UNL     1     -12.102  17.300  64.124  1.00  0.00     0.000 HD 
ENDBRANCH  14  21
ENDBRANCH   8  12
TORSDOF 2
ENDMDL
MODEL       14
REMARK 921   NORMALIZED FREE ENERGY PREDICTED BY IDOCK:   -6.08 KCAL/MOL
REMARK 922        TOTAL FREE ENERGY PREDICTED BY IDOCK:   -6.95 KCAL/MOL
REMARK 923 INTER-LIGAND FREE ENERGY PREDICTED BY IDOCK:   -6.80 KCAL/MOL
REMARK 924 INTRA-LIGAND FREE ENERGY PREDICTED BY IDOCK:   -0.15 KCAL/MOL
REMARK 927      BINDING AFFINITY PREDICTED BY RF-SCORE:    0.00 PKD
ROOT
HETATM    1  N   UNL     1      -9.468  20.672  66.935  1.00  0.00    -0.651 NA 
HETATM    2  H2  UNL     1      -8.639  21.150  66.580  1.00  0.00     0.000 HD 
HETATM    3  C   UNL     1      -9.571  19.311  66.908  1.00  0.00    -0.331 C  
HETATM    4  H1  UNL     1     -10.255  21.190  67.326  1.00  0.00     0.000 HD 
HETATM    5  N   UNL     1      -8.571  18.653  66.413  1.00  0.00    -0.291 N  
HETATM    6  C   UNL     1      -8.608  17.282  66.359  1.00  0.00    -0.259 C  
HETATM    7  H   UNL     1      -7.755  19.155  66.063  1.00  0.00     0.000 HD 
HETATM    8  N   UNL     1      -9.807  16.623  66.700  1.00  0.00    -0.261 N  
HETATM    9  O   UNL     1      -7.612  16.658  66.004  1.00  0.00    -0.180 OA 
HETATM   10  C   UNL     1     -10.779  18.655  67.425  1.00  0.00    -0.456 C  
HETATM   11  C   UNL     1     -10.843  17.330  67.272  1.00  0.00    -0.124 C  
ENDROOT
BRANCH   8  12
HETATM   12  C   UNL     1      -9.783  15.163  66.569  1.00  0.00    -0.271 C  
HETATM   13  O   UNL     1     -10.089  14.844  65.189  1.00  0.00    -0.365 OA 
HETATM   14  C   UNL     1     -11.470  14.456  65.089  1.00  0.00    -0.362 C  
HETATM   15  C   UNL     1     -11.913  13.970  66.464  1.00  0.00    -0.444 C  
HETATM   16  F   UNL     1     -10.080  13.057  67.608  1.00  0.00    -0.206 F  
HETATM   17  C   UNL     1     -10.717  14.243  67.367  1.00  0.00    -0.282 C  
HETATM   18  O   UNL     1     -12.246  12.571  66.418  1.00  0.00    -0.584 OA 
HETATM   19  F   UNL     1     -11.103  14.704  68.571  1.00  0.00    -0.231 F  
HETATM   20  H   UNL     1     -12.523  12.268  67.275  1.00  0.00     0.000 HD 
BRANCH  14  21
HETATM   21  C   UNL     1     -12.271  15.682  64.627  1.00  0.00     0.114 C  
HETATM   22  O   UNL     1     -11.498  16.470  63.727  1.00  0.00    -1.615 OA 
HETATM   23  H   UNL     1     -11.993  17.228  63.441  1.00  0.00     0.000 HD 
ENDBRANCH  14  21
ENDBRANCH   8  12
TORSDOF 2
ENDMDL
MODEL       15
REMARK 921   NORMALIZED FREE ENERGY PREDICTED BY IDOCK:   -6.03 KCAL/MOL
REMARK 922        TOTAL FREE ENERGY PREDICTED BY IDOCK:   -6.89 KCAL/MOL
REMARK 923 INTER-LIGAND FREE ENERGY PREDICTED BY IDOCK:   -6.79 KCAL/MOL
REMARK 924 INTRA-LIGAND FREE ENERGY PREDICTED BY IDOCK:   -0.10 KCAL/MOL
REMARK 927      BINDING AFFINITY PREDICTED BY RF-SCORE:    0.00 PKD
ROOT
HETATM    1  N   UNL     1      -9.920  10.472  62.353  1.00  0.00    -0.757 NA 
HETATM    2  H2  UNL     1     -10.331  10.657  61.438  1.00  0.00     0.000 HD 
HETATM    3  C   UNL     1     -10.372  11.104  63.477  1.00  0.00    -0.387 C  
HETATM    4  H1  UNL     1      -9.153   9.809  62.469  1.00  0.00     0.000 HD 
HETATM    5  N   UNL     1     -11.344  11.945  63.330  1.00  0.00    -0.681 N  
HETATM    6  C   UNL     1     -11.849  12.612  64.419  1.00  0.00    -0.387 C  
HETATM    7  H   UNL     1     -11.737  12.114  62.403  1.00  0.00     0.000 HD 
HETATM    8  N   UNL     1     -11.187  12.482  65.657  1.00  0.00    -0.305 N  
HETATM    9  O   UNL     1     -12.848  13.315  64.296  1.00  0.00    -0.649 OA 
HETATM   10  C   UNL     1      -9.756  10.817  64.779  1.00  0.00    -0.338 C  
HETATM   11  C   UNL     1     -10.187  11.546  65.810  1.00  0.00    -0.249 C  
ENDROOT
BRANCH   8  12
HETATM   12  C   UNL     1     -11.756  13.264  66.760  1.00  0.00    -0.385 C  
HETATM   13  O   UNL     1     -11.489  14.662  66.487  1.00  0.00    -0.349 OA 
HETATM   14  C   UNL     1     -10.358  15.089  67.264  1.00  0.00    -0.249 C  
HETATM   15  C   UNL     1     -10.240  14.151  68.459  1.00  0.00    -0.247 C  
HETATM   16  F   UNL     1     -12.364  13.347  69.046  1.00  0.00    -0.343 F  
HETATM   17  C   UNL     1     -11.306  13.091  68.218  1.00  0.00    -0.288 C  
HETATM   18  O   UNL     1     -10.463  14.870  69.686  1.00  0.00    -0.320 OA 
HETATM   19  F   UNL     1     -10.868  11.863  68.552  1.00  0.00    -0.195 F  
HETATM   20  H   UNL     1     -10.389  14.286  70.431  1.00  0.00     0.000 HD 
BRANCH  14  21
HETATM   21  C   UNL     1      -9.117  15.027  66.361  1.00  0.00    -0.277 C  
HETATM   22  O   UNL     1      -8.149  14.136  66.909  1.00  0.00    -0.382 OA 
HETATM   23  H   UNL     1      -7.382  14.098  66.351  1.00  0.00     0.000 HD 
ENDBRANCH  14  21
ENDBRANCH   8  12
TORSDOF 2
ENDMDL
MODEL       16
REMARK 921   NORMALIZED FREE ENERGY PREDICTED BY IDOCK:   -6.00 KCAL/MOL
REMARK 922        TOTAL FREE ENERGY PREDICTED BY IDOCK:   -6.86 KCAL/MOL
REMARK 923 INTER-LIGAND FREE ENERGY PREDICTED BY IDOCK:   -6.69 KCAL/MOL
REMARK 924 INTRA-LIGAND FREE ENERGY PREDICTED BY IDOCK:   -0.17 KCAL/MOL
REMARK 927      BINDING AFFINITY PREDICTED BY RF-SCORE:    0.00 PKD
ROOT
HETATM    1  N   UNL     1     -11.509  13.477  70.047  1.00  0.00    -0.497 NA 
HETATM    2  H2  UNL     1     -11.660  12.513  69.745  1.00  0.00     0.000 HD 
HETATM    3  C   UNL     1     -11.277  14.476  69.145  1.00  0.00    -0.269 C  
HETATM    4  H1  UNL     1     -11.524  13.734  71.033  1.00  0.00     0.000 HD 
HETATM    5  N   UNL     1     -11.257  14.149  67.893  1.00  0.00    -0.268 N  
HETATM    6  C   UNL     1     -11.033  15.106  66.935  1.00  0.00    -0.323 C  
HETATM    7  H   UNL     1     -11.409  13.178  67.618  1.00  0.00     0.000 HD 
HETATM    8  N   UNL     1     -10.668  16.404  67.347  1.00  0.00    -0.309 N  
HETATM    9  O   UNL     1     -11.137  14.816  65.746  1.00  0.00    -0.324 OA 
HETATM   10  C   UNL     1     -11.061  15.851  69.613  1.00  0.00    -0.320 C  
HETATM   11  C   UNL     1     -10.743  16.750  68.679  1.00  0.00    -0.352 C  
ENDROOT
BRANCH   8  12
HETATM   12  C   UNL     1     -10.396  17.356  66.265  1.00  0.00    -0.330 C  
HETATM   13  O   UNL     1      -9.051  17.101  65.789  1.00  0.00    -0.525 OA 
HETATM   14  C   UNL     1      -8.156  18.070  66.360  1.00  0.00    -0.260 C  
HETATM   15  C   UNL     1      -8.984  19.291  66.747  1.00  0.00    -0.327 C  
HETATM   16  F   UNL     1     -10.831  19.479  65.313  1.00  0.00    -0.550 F  
HETATM   17  C   UNL     1     -10.423  18.877  66.471  1.00  0.00    -0.432 C  
HETATM   18  O   UNL     1      -8.592  20.432  65.962  1.00  0.00    -0.566 OA 
HETATM   19  F   UNL     1     -11.257  19.321  67.429  1.00  0.00    -0.553 F  
HETATM   20  H   UNL     1      -9.107  21.193  66.203  1.00  0.00     0.000 HD 
BRANCH  14  21
HETATM   21  C   UNL     1      -7.481  17.426  67.580  1.00  0.00    -0.182 C  
HETATM   22  O   UNL     1      -7.589  18.280  68.715  1.00  0.00    -0.298 OA 
HETATM   23  H   UNL     1      -7.171  17.881  69.469  1.00  0.00     0.000 HD 
ENDBRANCH  14  21
ENDBRANCH   8  12
TORSDOF 2
ENDMDL
MODEL       17
REMARK 921   NORMALIZED FREE ENERGY PREDICTED BY IDOCK:   -5.94 KCAL/MOL
REMARK 922        TOTAL FREE ENERGY PREDICTED BY IDOCK:   -6.79 KCAL/MOL
REMARK 923 INTER-LIGAND FREE ENERGY PREDICTED BY IDOCK:   -6.65 KCAL/MOL
REMARK 924 INTRA-LIGAND FREE ENERGY PREDICTED BY IDOCK:   -0.14 KCAL/MOL
REMARK 927      BINDING AFFINITY PREDICTED BY RF-SCORE:    0.00 PKD
ROOT
HETATM    1  N   UNL     1     -11.534  16.491  63.922  1.00  0.00    -1.599 NA 
HETATM    2  H2  UNL     1     -10.886  17.258  63.742  1.00  0.00     0.000 HD 
HETATM    3  C   UNL     1     -11.235  15.501  64.814  1.00  0.00    -0.390 C  
HETATM    4  H1  UNL     1     -12.433  16.431  63.444  1.00  0.00     0.000 HD 
HETATM    5  N   UNL     1     -10.094  15.579  65.421  1.00  0.00    -0.361 N  
HETATM    6  C   UNL     1      -9.732  14.618  66.332  1.00  0.00    -0.295 C  
HETATM    7  H   UNL     1      -9.462  16.355  65.221  1.00  0.00     0.000 HD 
HETATM    8  N   UNL     1     -10.548  13.476  66.471  1.00  0.00    -0.279 N  
HETATM    9  O   UNL     1      -8.707  14.759  66.994  1.00  0.00    -0.210 OA 
HETATM   10  C   UNL     1     -12.189  14.410  65.048  1.00  0.00    -0.418 C  
HETATM   11  C   UNL     1     -11.781  13.432  65.858  1.00  0.00    -0.356 C  
ENDROOT
BRANCH   8  12
HETATM   12  C   UNL     1     -10.068  12.472  67.427  1.00  0.00    -0.210 C  
HETATM   13  O   UNL     1      -9.072  11.667  66.751  1.00  0.00    -0.174 OA 
HETATM   14  C   UNL     1      -9.672  10.431  66.326  1.00  0.00    -0.205 C  
HETATM   15  C   UNL     1     -10.886  10.180  67.213  1.00  0.00    -0.230 C  
HETATM   16  F   UNL     1     -10.533  11.138  69.325  1.00  0.00    -0.223 F  
HETATM   17  C   UNL     1     -10.995  11.433  68.072  1.00  0.00    -0.237 C  
HETATM   18  O   UNL     1     -10.690   8.996  68.009  1.00  0.00    -0.385 OA 
HETATM   19  F   UNL     1     -12.276  11.812  68.233  1.00  0.00    -0.361 F  
HETATM   20  H   UNL     1     -11.447   8.839  68.561  1.00  0.00     0.000 HD 
BRANCH  14  21
HETATM   21  C   UNL     1     -10.062  10.580  64.849  1.00  0.00    -0.333 C  
HETATM   22  O   UNL     1      -9.024  11.236  64.126  1.00  0.00    -0.387 OA 
HETATM   23  H   UNL     1      -9.265  11.328  63.212  1.00  0.00     0.000 HD 
ENDBRANCH  14  21
ENDBRANCH   8  12
TORSDOF 2
ENDMDL
MODEL       18
REMARK 921   NORMALIZED FREE ENERGY PREDICTED BY IDOCK:   -5.93 KCAL/MOL
REMARK 922        TOTAL FREE ENERGY PREDICTED BY IDOCK:   -6.78 KCAL/MOL
REMARK 923 INTER-LIGAND FREE ENERGY PREDICTED BY IDOCK:   -6.79 KCAL/MOL
REMARK 924 INTRA-LIGAND FREE ENERGY PREDICTED BY IDOCK:    0.01 KCAL/MOL
REMARK 927      BINDING AFFINITY PREDICTED BY RF-SCORE:    0.00 PKD
ROOT
HETATM    1  N   UNL     1     -12.231  10.761  68.509  1.00  0.00    -0.822 NA 
HETATM    2  H2  UNL     1     -12.958  10.569  69.199  1.00  0.00     0.000 HD 
HETATM    3  C   UNL     1     -11.619  11.981  68.441  1.00  0.00    -0.311 C  
HETATM    4  H1  UNL     1     -11.930  10.052  67.841  1.00  0.00     0.000 HD 
HETATM    5  N   UNL     1     -12.001  12.880  69.290  1.00  0.00    -0.287 N  
HETATM    6  C   UNL     1     -11.424  14.126  69.279  1.00  0.00    -0.292 C  
HETATM    7  H   UNL     1     -12.731  12.663  69.969  1.00  0.00     0.000 HD 
HETATM    8  N   UNL     1     -10.536  14.451  68.233  1.00  0.00    -0.239 N  
HETATM    9  O   UNL     1     -11.700  14.935  70.161  1.00  0.00    -0.260 OA 
HETATM   10  C   UNL     1     -10.579  12.225  67.434  1.00  0.00    -0.247 C  
HETATM   11  C   UNL     1     -10.101  13.470  67.369  1.00  0.00    -0.237 C  
ENDROOT
BRANCH   8  12
HETATM   12  C   UNL     1     -10.001  15.817  68.262  1.00  0.00    -0.221 C  
HETATM   13  O   UNL     1     -10.862  16.639  67.438  1.00  0.00    -0.287 OA 
HETATM   14  C   UNL     1     -10.247  16.827  66.152  1.00  0.00    -0.351 C  
HETATM   15  C   UNL     1      -8.747  16.615  66.323  1.00  0.00    -0.324 C  
HETATM   16  F   UNL     1      -8.108  17.217  68.499  1.00  0.00    -0.223 F  
HETATM   17  C   UNL     1      -8.590  16.165  67.770  1.00  0.00    -0.167 C  
HETATM   18  O   UNL     1      -8.034  17.837  66.059  1.00  0.00    -0.473 OA 
HETATM   19  F   UNL     1      -7.672  15.187  67.886  1.00  0.00    -0.110 F  
HETATM   20  H   UNL     1      -7.099  17.705  66.165  1.00  0.00     0.000 HD 
BRANCH  14  21
HETATM   21  C   UNL     1     -10.862  15.808  65.183  1.00  0.00    -0.428 C  
HETATM   22  O   UNL     1     -11.447  16.474  64.067  1.00  0.00    -1.513 OA 
HETATM   23  H   UNL     1     -11.828  15.844  63.468  1.00  0.00     0.000 HD 
ENDBRANCH  14  21
ENDBRANCH   8  12
TORSDOF 2
ENDMDL
MODEL       19
REMARK 921   NORMALIZED FREE ENERGY PREDICTED BY IDOCK:   -5.89 KCAL/MOL
REMARK 922        TOTAL FREE ENERGY PREDICTED BY IDOCK:   -6.74 KCAL/MOL
REMARK 923 INTER-LIGAND FREE ENERGY PREDICTED BY IDOCK:   -6.58 KCAL/MOL
REMARK 924 INTRA-LIGAND FREE ENERGY PREDICTED BY IDOCK:   -0.16 KCAL/MOL
REMARK 927      BINDING AFFINITY PREDICTED BY RF-SCORE:    0.00 PKD
ROOT
HETATM    1  N   UNL     1     -11.724  14.962  71.944  1.00  0.00    -0.413 NA 
HETATM    2  H2  UNL     1     -11.708  14.376  72.779  1.00  0.00     0.000 HD 
HETATM    3  C   UNL     1     -11.832  14.420  70.695  1.00  0.00    -0.295 C  
HETATM    4  H1  UNL     1     -11.660  15.978  72.006  1.00  0.00     0.000 HD 
HETATM    5  N   UNL     1     -11.912  13.130  70.617  1.00  0.00    -0.533 N  
HETATM    6  C   UNL     1     -12.026  12.521  69.392  1.00  0.00    -0.256 C  
HETATM    7  H   UNL     1     -11.892  12.566  71.467  1.00  0.00     0.000 HD 
HETATM    8  N   UNL     1     -11.892  13.308  68.230  1.00  0.00    -0.351 N  
HETATM    9  O   UNL     1     -12.226  11.310  69.328  1.00  0.00    -0.322 OA 
HETATM   10  C   UNL     1     -11.849  15.293  69.515  1.00  0.00    -0.368 C  
HETATM   11  C   UNL     1     -11.857  14.682  68.328  1.00  0.00    -0.298 C  
ENDROOT
BRANCH   8  12
HETATM   12  C   UNL     1     -11.974  12.576  66.961  1.00  0.00    -0.225 C  
HETATM   13  O   UNL     1     -10.661  12.028  66.687  1.00  0.00    -0.229 OA 
HETATM   14  C   UNL     1      -9.990  12.864  65.730  1.00  0.00    -0.254 C  
HETATM   15  C   UNL     1     -11.058  13.625  64.953  1.00  0.00    -0.351 C  
HETATM   16  F   UNL     1     -13.022  12.346  64.851  1.00  0.00    -0.560 F  
HETATM   17  C   UNL     1     -12.366  13.251  65.639  1.00  0.00    -0.465 C  
HETATM   18  O   UNL     1     -11.045  13.234  63.568  1.00  0.00    -0.542 OA 
HETATM   19  F   UNL     1     -13.189  14.310  65.745  1.00  0.00    -0.526 F  
HETATM   20  H   UNL     1     -11.711  13.708  63.084  1.00  0.00     0.000 HD 
BRANCH  14  21
HETATM   21  C   UNL     1      -9.060  13.810  66.503  1.00  0.00    -0.129 C  
HETATM   22  O   UNL     1      -9.098  15.117  65.935  1.00  0.00    -0.458 OA 
HETATM   23  H   UNL     1      -8.523  15.702  66.413  1.00  0.00     0.000 HD 
ENDBRANCH  14  21
ENDBRANCH   8  12
TORSDOF 2
ENDMDL
MODEL       20
REMARK 921   NORMALIZED FREE ENERGY PREDICTED BY IDOCK:   -5.77 KCAL/MOL
REMARK 922        TOTAL FREE ENERGY PREDICTED BY IDOCK:   -6.61 KCAL/MOL
REMARK 923 INTER-LIGAND FREE ENERGY PREDICTED BY IDOCK:   -6.47 KCAL/MOL
REMARK 924 INTRA-LIGAND FREE ENERGY PREDICTED BY IDOCK:   -0.13 KCAL/MOL
REMARK 927      BINDING AFFINITY PREDICTED BY RF-SCORE:    0.00 PKD
ROOT
HETATM    1  N   UNL     1     -12.368  14.254  63.224  1.00  0.00    -1.092 NA 
HETATM    2  H2  UNL     1     -12.247  15.215  62.902  1.00  0.00     0.000 HD 
HETATM    3  C   UNL     1     -12.102  13.898  64.515  1.00  0.00    -0.443 C  
HETATM    4  H1  UNL     1     -12.694  13.520  62.596  1.00  0.00     0.000 HD 
HETATM    5  N   UNL     1     -11.689  14.830  65.312  1.00  0.00    -0.339 N  
HETATM    6  C   UNL     1     -11.406  14.541  66.623  1.00  0.00    -0.356 C  
HETATM    7  H   UNL     1     -11.574  15.783  64.964  1.00  0.00     0.000 HD 
HETATM    8  N   UNL     1     -11.419  13.192  67.036  1.00  0.00    -0.318 N  
HETATM    9  O   UNL     1     -11.134  15.448  67.405  1.00  0.00    -0.321 OA 
HETATM   10  C   UNL     1     -12.285  12.505  64.945  1.00  0.00    -0.534 C  
HETATM   11  C   UNL     1     -11.909  12.218  66.193  1.00  0.00    -0.329 C  
ENDROOT
BRANCH   8  12
HETATM   12  C   UNL     1     -11.057  12.959  68.438  1.00  0.00    -0.262 C  
HETATM   13  O   UNL     1      -9.613  13.030  68.533  1.00  0.00    -0.197 OA 
HETATM   14  C   UNL     1      -9.076  11.697  68.563  1.00  0.00    -0.157 C  
HETATM   15  C   UNL     1     -10.176  10.767  69.062  1.00  0.00    -0.213 C  
HETATM   16  F   UNL     1     -11.608  11.941  70.502  1.00  0.00    -0.359 F  
HETATM   17  C   UNL     1     -11.404  11.660  69.179  1.00  0.00    -0.283 C  
HETATM   18  O   UNL     1      -9.808  10.188  70.327  1.00  0.00    -0.396 OA 
HETATM   19  F   UNL     1     -12.516  11.029  68.762  1.00  0.00    -0.337 F  
HETATM   20  H   UNL     1     -10.494   9.608  70.638  1.00  0.00     0.000 HD 
BRANCH  14  21
HETATM   21  C   UNL     1      -8.625  11.339  67.140  1.00  0.00    -0.147 C  
HETATM   22  O   UNL     1      -8.219  12.512  66.439  1.00  0.00    -0.393 OA 
HETATM   23  H   UNL     1      -7.940  12.291  65.558  1.00  0.00     0.000 HD 
ENDBRANCH  14  21
ENDBRANCH   8  12
TORSDOF 2
ENDMDL
MODEL       21
REMARK 921   NORMALIZED FREE ENERGY PREDICTED BY IDOCK:   -5.76 KCAL/MOL
REMARK 922        TOTAL FREE ENERGY PREDICTED BY IDOCK:   -6.60 KCAL/MOL
REMARK 923 INTER-LIGAND FREE ENERGY PREDICTED BY IDOCK:   -6.55 KCAL/MOL
REMARK 924 INTRA-LIGAND FREE ENERGY PREDICTED BY IDOCK:   -0.05 KCAL/MOL
REMARK 927      BINDING AFFINITY PREDICTED BY RF-SCORE:    0.00 PKD
ROOT
HETATM    1  N   UNL     1      -9.605  20.887  67.059  1.00  0.00    -0.688 NA 
HETATM    2  H2  UNL     1     -10.047  21.535  66.406  1.00  0.00     0.000 HD 
HETATM    3  C   UNL     1      -9.735  19.535  66.917  1.00  0.00    -0.356 C  
HETATM    4  H1  UNL     1      -9.048  21.221  67.845  1.00  0.00     0.000 HD 
HETATM    5  N   UNL     1     -10.442  19.111  65.919  1.00  0.00    -0.475 N  
HETATM    6  C   UNL     1     -10.610  17.764  65.717  1.00  0.00    -0.175 C  
HETATM    7  H   UNL     1     -10.876  19.779  65.282  1.00  0.00     0.000 HD 
HETATM    8  N   UNL     1     -10.137  16.868  66.698  1.00  0.00    -0.293 N  
HETATM    9  O   UNL     1     -11.177  17.364  64.703  1.00  0.00    -0.992 OA 
HETATM   10  C   UNL     1      -9.087  18.630  67.876  1.00  0.00    -0.314 C  
HETATM   11  C   UNL     1      -9.343  17.329  67.726  1.00  0.00    -0.250 C  
ENDROOT
BRANCH   8  12
HETATM   12  C   UNL     1     -10.398  15.449  66.435  1.00  0.00    -0.296 C  
HETATM   13  O   UNL     1     -11.727  15.151  66.930  1.00  0.00    -0.244 OA 
HETATM   14  C   UNL     1     -11.620  14.508  68.212  1.00  0.00    -0.329 C  
HETATM   15  C   UNL     1     -10.237  13.872  68.295  1.00  0.00    -0.247 C  
HETATM   16  F   UNL     1      -9.513  13.273  66.145  1.00  0.00    -0.260 F  
HETATM   17  C   UNL     1      -9.534  14.324  67.021  1.00  0.00    -0.254 C  
HETATM   18  O   UNL     1     -10.347  12.439  68.370  1.00  0.00    -0.221 OA 
HETATM   19  F   UNL     1      -8.246  14.636  67.251  1.00  0.00    -0.170 F  
HETATM   20  H   UNL     1      -9.484  12.043  68.423  1.00  0.00     0.000 HD 
BRANCH  14  21
HETATM   21  C   UNL     1     -11.825  15.577  69.294  1.00  0.00    -0.353 C  
HETATM   22  O   UNL     1     -13.028  15.327  70.017  1.00  0.00    -0.633 OA 
HETATM   23  H   UNL     1     -13.155  15.989  70.686  1.00  0.00     0.000 HD 
ENDBRANCH  14  21
ENDBRANCH   8  12
TORSDOF 2
ENDMDL
MODEL       22
REMARK 921   NORMALIZED FREE ENERGY PREDICTED BY IDOCK:   -5.70 KCAL/MOL
REMARK 922        TOTAL FREE ENERGY PREDICTED BY IDOCK:   -6.53 KCAL/MOL
REMARK 923 INTER-LIGAND FREE ENERGY PREDICTED BY IDOCK:   -6.48 KCAL/MOL
REMARK 924 INTRA-LIGAND FREE ENERGY PREDICTED BY IDOCK:   -0.04 KCAL/MOL
REMARK 927      BINDING AFFINITY PREDICTED BY RF-SCORE:    0.00 PKD
ROOT
HETATM    1  N   UNL     1     -10.394   8.987  68.418  1.00  0.00    -0.202 NA 
HETATM    2  H2  UNL     1      -9.832   8.149  68.265  1.00  0.00     0.000 HD 
HETATM    3  C   UNL     1     -10.620   9.885  67.415  1.00  0.00    -0.277 C  
HETATM    4  H1  UNL     1     -10.812   9.189  69.327  1.00  0.00     0.000 HD 
HETATM    5  N   UNL     1     -10.091   9.628  66.262  1.00  0.00    -0.263 N  
HETATM    6  C   UNL     1     -10.281  10.489  65.210  1.00  0.00    -0.282 C  
HETATM    7  H   UNL     1      -9.531   8.785  66.135  1.00  0.00     0.000 HD 
HETATM    8  N   UNL     1     -10.922  11.722  65.451  1.00  0.00    -0.305 N  
HETATM    9  O   UNL     1      -9.883  10.182  64.089  1.00  0.00    -0.305 OA 
HETATM   10  C   UNL     1     -11.432  11.082  67.671  1.00  0.00    -0.303 C  
HETATM   11  C   UNL     1     -11.523  11.959  66.669  1.00  0.00    -0.314 C  
ENDROOT
BRANCH   8  12
HETATM   12  C   UNL     1     -11.043  12.607  64.288  1.00  0.00    -0.362 C  
HETATM   13  O   UNL     1      -9.897  13.494  64.294  1.00  0.00    -0.162 OA 
HETATM   14  C   UNL     1     -10.287  14.768  64.834  1.00  0.00    -0.332 C  
HETATM   15  C   UNL     1     -11.794  14.904  64.650  1.00  0.00    -0.407 C  
HETATM   16  F   UNL     1     -12.469  13.704  62.751  1.00  0.00    -0.397 F  
HETATM   17  C   UNL     1     -12.232  13.557  64.090  1.00  0.00    -0.394 C  
HETATM   18  O   UNL     1     -12.093  15.986  63.748  1.00  0.00    -1.318 OA 
HETATM   19  F   UNL     1     -13.398  13.154  64.627  1.00  0.00    -0.138 F  
HETATM   20  H   UNL     1     -13.033  16.071  63.633  1.00  0.00     0.000 HD 
BRANCH  14  21
HETATM   21  C   UNL     1      -9.886  14.793  66.316  1.00  0.00    -0.296 C  
HETATM   22  O   UNL     1      -8.489  14.551  66.456  1.00  0.00    -0.428 OA 
HETATM   23  H   UNL     1      -8.241  14.567  67.373  1.00  0.00     0.000 HD 
ENDBRANCH  14  21
ENDBRANCH   8  12
TORSDOF 2
ENDMDL
MODEL       23
REMARK 921   NORMALIZED FREE ENERGY PREDICTED BY IDOCK:   -5.70 KCAL/MOL
REMARK 922        TOTAL FREE ENERGY PREDICTED BY IDOCK:   -6.52 KCAL/MOL
REMARK 923 INTER-LIGAND FREE ENERGY PREDICTED BY IDOCK:   -6.48 KCAL/MOL
REMARK 924 INTRA-LIGAND FREE ENERGY PREDICTED BY IDOCK:   -0.04 KCAL/MOL
REMARK 927      BINDING AFFINITY PREDICTED BY RF-SCORE:    0.00 PKD
ROOT
HETATM    1  N   UNL     1     -10.382  10.154  70.186  1.00  0.00    -0.384 NA 
HETATM    2  H2  UNL     1      -9.535   9.644  70.438  1.00  0.00     0.000 HD 
HETATM    3  C   UNL     1     -10.525  10.731  68.957  1.00  0.00    -0.215 C  
HETATM    4  H1  UNL     1     -11.157  10.255  70.841  1.00  0.00     0.000 HD 
HETATM    5  N   UNL     1      -9.541  10.602  68.125  1.00  0.00    -0.153 N  
HETATM    6  C   UNL     1      -9.622  11.155  66.872  1.00  0.00    -0.186 C  
HETATM    7  H   UNL     1      -8.704  10.089  68.403  1.00  0.00     0.000 HD 
HETATM    8  N   UNL     1     -10.716  11.992  66.570  1.00  0.00    -0.248 N  
HETATM    9  O   UNL     1      -8.742  10.927  66.046  1.00  0.00    -0.176 OA 
HETATM   10  C   UNL     1     -11.757  11.461  68.627  1.00  0.00    -0.394 C  
HETATM   11  C   UNL     1     -11.778  12.078  67.444  1.00  0.00    -0.281 C  
ENDROOT
BRANCH   8  12
HETATM   12  C   UNL     1     -10.705  12.585  65.229  1.00  0.00    -0.286 C  
HETATM   13  O   UNL     1      -9.956  13.823  65.305  1.00  0.00    -0.293 OA 
HETATM   14  C   UNL     1     -10.873  14.927  65.378  1.00  0.00    -0.369 C  
HETATM   15  C   UNL     1     -12.197  14.467  64.778  1.00  0.00    -0.431 C  
HETATM   16  F   UNL     1     -11.797  12.832  63.144  1.00  0.00    -0.548 F  
HETATM   17  C   UNL     1     -11.989  12.986  64.489  1.00  0.00    -0.394 C  
HETATM   18  O   UNL     1     -12.492  15.213  63.583  1.00  0.00    -0.985 OA 
HETATM   19  F   UNL     1     -13.085  12.266  64.788  1.00  0.00    -0.520 F  
HETATM   20  H   UNL     1     -13.317  14.927  63.209  1.00  0.00     0.000 HD 
BRANCH  14  21
HETATM   21  C   UNL     1     -11.019  15.321  66.855  1.00  0.00    -0.315 C  
HETATM   22  O   UNL     1     -10.519  16.638  67.069  1.00  0.00    -0.305 OA 
HETATM   23  H   UNL     1     -10.610  16.881  67.983  1.00  0.00     0.000 HD 
ENDBRANCH  14  21
ENDBRANCH   8  12
TORSDOF 2
ENDMDL
MODEL       24
REMARK 921   NORMALIZED FREE ENERGY PREDICTED BY IDOCK:   -5.67 KCAL/MOL
REMARK 922        TOTAL FREE ENERGY PREDICTED BY IDOCK:   -6.49 KCAL/MOL
REMARK 923 INTER-LIGAND FREE ENERGY PREDICTED BY IDOCK:   -6.47 KCAL/MOL
REMARK 924 INTRA-LIGAND FREE ENERGY PREDICTED BY IDOCK:   -0.02 KCAL/MOL
REMARK 927      BINDING AFFINITY PREDICTED BY RF-SCORE:    0.00 PKD
ROOT
HETATM    1  N   UNL     1      -9.193   8.192  68.443  1.00  0.00    -0.136 NA 
HETATM    2  H2  UNL     1      -9.664   7.616  69.142  1.00  0.00     0.000 HD 
HETATM    3  C   UNL     1      -9.709   9.392  68.045  1.00  0.00    -0.145 C  
HETATM    4  H1  UNL     1      -8.317   7.896  68.012  1.00  0.00     0.000 HD 
HETATM    5  N   UNL     1     -10.820   9.768  68.592  1.00  0.00    -0.335 N  
HETATM    6  C   UNL     1     -11.391  10.965  68.240  1.00  0.00    -0.308 C  
HETATM    7  H   UNL     1     -11.272   9.173  69.287  1.00  0.00     0.000 HD 
HETATM    8  N   UNL     1     -10.834  11.691  67.167  1.00  0.00    -0.247 N  
HETATM    9  O   UNL     1     -12.377  11.375  68.848  1.00  0.00    -0.446 OA 
HETATM   10  C   UNL     1      -9.006  10.195  67.035  1.00  0.00    -0.148 C  
HETATM   11  C   UNL     1      -9.625  11.305  66.629  1.00  0.00    -0.195 C  
ENDROOT
BRANCH   8  12
HETATM   12  C   UNL     1     -11.530  12.934  66.818  1.00  0.00    -0.340 C  
HETATM   13  O   UNL     1     -12.532  12.608  65.825  1.00  0.00    -0.607 OA 
HETATM   14  C   UNL     1     -12.038  12.959  64.521  1.00  0.00    -0.413 C  
HETATM   15  C   UNL     1     -10.967  14.028  64.707  1.00  0.00    -0.402 C  
HETATM   16  F   UNL     1     -11.436  15.291  66.627  1.00  0.00    -0.325 F  
HETATM   17  C   UNL     1     -10.808  14.148  66.217  1.00  0.00    -0.300 C  
HETATM   18  O   UNL     1     -11.386  15.268  64.109  1.00  0.00    -0.672 OA 
HETATM   19  F   UNL     1      -9.517  14.292  66.568  1.00  0.00    -0.252 F  
HETATM   20  H   UNL     1     -10.718  15.934  64.225  1.00  0.00     0.000 HD 
BRANCH  14  21
HETATM   21  C   UNL     1     -11.473  11.687  63.874  1.00  0.00    -0.343 C  
HETATM   22  O   UNL     1     -12.319  11.252  62.813  1.00  0.00    -0.856 OA 
HETATM   23  H   UNL     1     -11.970  10.465  62.413  1.00  0.00     0.000 HD 
ENDBRANCH  14  21
ENDBRANCH   8  12
TORSDOF 2
ENDMDL
MODEL       25
REMARK 921   NORMALIZED FREE ENERGY PREDICTED BY IDOCK:   -5.65 KCAL/MOL
REMARK 922        TOTAL FREE ENERGY PREDICTED BY IDOCK:   -6.47 KCAL/MOL
REMARK 923 INTER-LIGAND FREE ENERGY PREDICTED BY IDOCK:   -6.30 KCAL/MOL
REMARK 924 INTRA-LIGAND FREE ENERGY PREDICTED BY IDOCK:   -0.17 KCAL/MOL
REMARK 927      BINDING AFFINITY PREDICTED BY RF-SCORE:    0.00 PKD
ROOT
HETATM    1  N   UNL     1      -7.567  14.717  69.846  1.00  0.00    -0.397 NA 
HETATM    2  H2  UNL     1      -7.746  14.670  70.849  1.00  0.00     0.000 HD 
HETATM    3  C   UNL     1      -8.580  14.606  68.936  1.00  0.00    -0.131 C  
HETATM    4  H1  UNL     1      -6.625  14.849  69.479  1.00  0.00     0.000 HD 
HETATM    5  N   UNL     1      -9.776  14.439  69.402  1.00  0.00    -0.413 N  
HETATM    6  C   UNL     1     -10.840  14.323  68.542  1.00  0.00    -0.253 C  
HETATM    7  H   UNL     1      -9.928  14.393  70.409  1.00  0.00     0.000 HD 
HETATM    8  N   UNL     1     -10.584  14.229  67.158  1.00  0.00    -0.277 N  
HETATM    9  O   UNL     1     -11.984  14.288  68.987  1.00  0.00    -0.319 OA 
HETATM   10  C   UNL     1      -8.286  14.675  67.499  1.00  0.00    -0.203 C  
HETATM   11  C   UNL     1      -9.314  14.459  66.675  1.00  0.00    -0.278 C  
ENDROOT
BRANCH   8  12
HETATM   12  C   UNL     1     -11.768  14.057  66.309  1.00  0.00    -0.387 C  
HETATM   13  O   UNL     1     -12.113  12.650  66.324  1.00  0.00    -0.523 OA 
HETATM   14  C   UNL     1     -11.624  12.031  65.122  1.00  0.00    -0.272 C  
HETATM   15  C   UNL     1     -11.467  13.124  64.071  1.00  0.00    -0.406 C  
HETATM   16  F   UNL     1     -13.033  14.826  64.463  1.00  0.00    -0.305 F  
HETATM   17  C   UNL     1     -11.777  14.415  64.817  1.00  0.00    -0.416 C  
HETATM   18  O   UNL     1     -12.375  12.902  62.977  1.00  0.00    -0.683 OA 
HETATM   19  F   UNL     1     -10.948  15.409  64.450  1.00  0.00    -0.348 F  
HETATM   20  H   UNL     1     -12.277  13.583  62.322  1.00  0.00     0.000 HD 
BRANCH  14  21
HETATM   21  C   UNL     1     -10.285  11.356  65.452  1.00  0.00    -0.270 C  
HETATM   22  O   UNL     1      -9.335  11.608  64.420  1.00  0.00    -0.414 OA 
HETATM   23  H   UNL     1      -8.506  11.190  64.624  1.00  0.00     0.000 HD 
ENDBRANCH  14  21
ENDBRANCH   8  12
TORSDOF 2
ENDMDL
MODEL       26
REMARK 921   NORMALIZED FREE ENERGY PREDICTED BY IDOCK:   -5.64 KCAL/MOL
REMARK 922        TOTAL FREE ENERGY PREDICTED BY IDOCK:   -6.46 KCAL/MOL
REMARK 923 INTER-LIGAND FREE ENERGY PREDICTED BY IDOCK:   -6.29 KCAL/MOL
REMARK 924 INTRA-LIGAND FREE ENERGY PREDICTED BY IDOCK:   -0.17 KCAL/MOL
REMARK 927      BINDING AFFINITY PREDICTED BY RF-SCORE:    0.00 PKD
ROOT
HETATM    1  N   UNL     1     -12.785  13.747  64.215  1.00  0.00    -0.653 NA 
HETATM    2  H2  UNL     1     -13.642  13.236  64.430  1.00  0.00     0.000 HD 
HETATM    3  C   UNL     1     -12.012  14.287  65.203  1.00  0.00    -0.395 C  
HETATM    4  H1  UNL     1     -12.470  13.876  63.254  1.00  0.00     0.000 HD 
HETATM    5  N   UNL     1     -12.412  14.123  66.423  1.00  0.00    -0.512 N  
HETATM    6  C   UNL     1     -11.680  14.637  67.463  1.00  0.00    -0.379 C  
HETATM    7  H   UNL     1     -13.274  13.610  66.611  1.00  0.00     0.000 HD 
HETATM    8  N   UNL     1     -10.584  15.475  67.170  1.00  0.00    -0.296 N  
HETATM    9  O   UNL     1     -11.995  14.375  68.621  1.00  0.00    -0.326 OA 
HETATM   10  C   UNL     1     -10.785  15.018  64.858  1.00  0.00    -0.420 C  
HETATM   11  C   UNL     1     -10.140  15.599  65.871  1.00  0.00    -0.353 C  
ENDROOT
BRANCH   8  12
HETATM   12  C   UNL     1      -9.882  16.026  68.334  1.00  0.00    -0.213 C  
HETATM   13  O   UNL     1     -10.606  17.207  68.760  1.00  0.00    -0.343 OA 
HETATM   14  C   UNL     1      -9.931  18.377  68.269  1.00  0.00    -0.369 C  
HETATM   15  C   UNL     1      -8.476  17.998  68.018  1.00  0.00    -0.261 C  
HETATM   16  F   UNL     1      -7.837  16.291  69.495  1.00  0.00    -0.235 F  
HETATM   17  C   UNL     1      -8.423  16.498  68.276  1.00  0.00    -0.199 C  
HETATM   18  O   UNL     1      -7.607  18.729  68.903  1.00  0.00    -0.316 OA 
HETATM   19  F   UNL     1      -7.641  15.869  67.381  1.00  0.00    -0.140 F  
HETATM   20  H   UNL     1      -6.700  18.493  68.745  1.00  0.00     0.000 HD 
BRANCH  14  21
HETATM   21  C   UNL     1     -10.638  18.824  66.982  1.00  0.00    -0.420 C  
HETATM   22  O   UNL     1      -9.687  19.040  65.943  1.00  0.00    -0.467 OA 
HETATM   23  H   UNL     1     -10.125  19.316  65.147  1.00  0.00     0.000 HD 
ENDBRANCH  14  21
ENDBRANCH   8  12
TORSDOF 2
ENDMDL
MODEL       27
REMARK 921   NORMALIZED FREE ENERGY PREDICTED BY IDOCK:   -5.60 KCAL/MOL
REMARK 922        TOTAL FREE ENERGY PREDICTED BY IDOCK:   -6.41 KCAL/MOL
REMARK 923 INTER-LIGAND FREE ENERGY PREDICTED BY IDOCK:   -6.35 KCAL/MOL
REMARK 924 INTRA-LIGAND FREE ENERGY PREDICTED BY IDOCK:   -0.07 KCAL/MOL
REMARK 927      BINDING AFFINITY PREDICTED BY RF-SCORE:    0.00 PKD
ROOT
HETATM    1  N   UNL     1      -9.153  17.632  65.954  1.00  0.00    -0.514 NA 
HETATM    2  H2  UNL     1      -9.638  18.367  65.439  1.00  0.00     0.000 HD 
HETATM    3  C   UNL     1      -9.570  16.333  65.904  1.00  0.00    -0.301 C  
HETATM    4  H1  UNL     1      -8.335  17.836  66.530  1.00  0.00     0.000 HD 
HETATM    5  N   UNL     1     -10.607  16.074  65.174  1.00  0.00    -0.408 N  
HETATM    6  C   UNL     1     -11.078  14.788  65.076  1.00  0.00    -0.405 C  
HETATM    7  H   UNL     1     -11.076  16.827  64.670  1.00  0.00     0.000 HD 
HETATM    8  N   UNL     1     -10.513  13.797  65.905  1.00  0.00    -0.290 N  
HETATM    9  O   UNL     1     -11.983  14.527  64.289  1.00  0.00    -0.444 OA 
HETATM   10  C   UNL     1      -8.850  15.300  66.660  1.00  0.00    -0.328 C  
HETATM   11  C   UNL     1      -9.379  14.075  66.637  1.00  0.00    -0.277 C  
ENDROOT
BRANCH   8  12
HETATM   12  C   UNL     1     -11.103  12.459  65.779  1.00  0.00    -0.315 C  
HETATM   13  O   UNL     1     -12.253  12.406  66.658  1.00  0.00    -0.562 OA 
HETATM   14  C   UNL     1     -11.891  11.723  67.870  1.00  0.00    -0.219 C  
HETATM   15  C   UNL     1     -10.692  10.836  67.558  1.00  0.00    -0.264 C  
HETATM   16  F   UNL     1     -10.769  10.164  65.312  1.00  0.00    -0.241 F  
HETATM   17  C   UNL     1     -10.331  11.177  66.118  1.00  0.00    -0.250 C  
HETATM   18  O   UNL     1     -11.041   9.448  67.711  1.00  0.00    -0.504 OA 
HETATM   19  F   UNL     1      -8.998  11.235  65.943  1.00  0.00    -0.191 F  
HETATM   20  H   UNL     1     -10.293   8.895  67.517  1.00  0.00     0.000 HD 
BRANCH  14  21
HETATM   21  C   UNL     1     -11.559  12.785  68.928  1.00  0.00    -0.316 C  
HETATM   22  O   UNL     1     -11.534  12.201  70.227  1.00  0.00    -0.517 OA 
HETATM   23  H   UNL     1     -11.329  12.858  70.881  1.00  0.00     0.000 HD 
ENDBRANCH  14  21
ENDBRANCH   8  12
TORSDOF 2
ENDMDL
MODEL       28
REMARK 921   NORMALIZED FREE ENERGY PREDICTED BY IDOCK:   -5.51 KCAL/MOL
REMARK 922        TOTAL FREE ENERGY PREDICTED BY IDOCK:   -6.32 KCAL/MOL
REMARK 923 INTER-LIGAND FREE ENERGY PREDICTED BY IDOCK:   -6.25 KCAL/MOL
REMARK 924 INTRA-LIGAND FREE ENERGY PREDICTED BY IDOCK:   -0.07 KCAL/MOL
REMARK 927      BINDING AFFINITY PREDICTED BY RF-SCORE:    0.00 PKD
ROOT
HETATM    1  N   UNL     1     -11.946  12.306  67.573  1.00  0.00    -0.528 NA 
HETATM    2  H2  UNL     1     -11.914  12.254  66.554  1.00  0.00     0.000 HD 
HETATM    3  C   UNL     1     -11.569  11.248  68.351  1.00  0.00    -0.308 C  
HETATM    4  H1  UNL     1     -12.259  13.149  68.053  1.00  0.00     0.000 HD 
HETATM    5  N   UNL     1     -11.171  10.179  67.741  1.00  0.00    -0.463 N  
HETATM    6  C   UNL     1     -10.775   9.081  68.463  1.00  0.00    -0.095 C  
HETATM    7  H   UNL     1     -11.150  10.151  66.721  1.00  0.00     0.000 HD 
HETATM    8  N   UNL     1     -10.963   9.087  69.861  1.00  0.00    -0.223 N  
HETATM    9  O   UNL     1     -10.283   8.114  67.887  1.00  0.00    -0.197 OA 
HETATM   10  C   UNL     1     -11.629  11.356  69.815  1.00  0.00    -0.407 C  
HETATM   11  C   UNL     1     -11.340  10.248  70.500  1.00  0.00    -0.341 C  
ENDROOT
BRANCH   8  12
HETATM   12  C   UNL     1     -10.563   7.859  70.556  1.00  0.00    -0.223 C  
HETATM   13  O   UNL     1     -11.740   7.023  70.677  1.00  0.00    -0.324 OA 
HETATM   14  C   UNL     1     -12.278   7.152  72.003  1.00  0.00    -0.278 C  
HETATM   15  C   UNL     1     -11.148   7.615  72.916  1.00  0.00    -0.393 C  
HETATM   16  F   UNL     1      -9.097   6.822  72.098  1.00  0.00    -0.137 F  
HETATM   17  C   UNL     1      -9.976   7.862  71.975  1.00  0.00    -0.193 C  
HETATM   18  O   UNL     1     -10.848   6.605  73.896  1.00  0.00    -0.486 OA 
HETATM   19  F   UNL     1      -9.289   8.966  72.320  1.00  0.00    -0.344 F  
HETATM   20  H   UNL     1     -10.144   6.893  74.465  1.00  0.00     0.000 HD 
BRANCH  14  21
HETATM   21  C   UNL     1     -13.425   8.172  71.949  1.00  0.00    -0.324 C  
HETATM   22  O   UNL     1     -13.580   8.813  73.212  1.00  0.00    -0.983 OA 
HETATM   23  H   UNL     1     -14.289   9.443  73.178  1.00  0.00     0.000 HD 
ENDBRANCH  14  21
ENDBRANCH   8  12
TORSDOF 2
ENDMDL
MODEL       29
REMARK 921   NORMALIZED FREE ENERGY PREDICTED BY IDOCK:   -5.49 KCAL/MOL
REMARK 922        TOTAL FREE ENERGY PREDICTED BY IDOCK:   -6.29 KCAL/MOL
REMARK 923 INTER-LIGAND FREE ENERGY PREDICTED BY IDOCK:   -6.21 KCAL/MOL
REMARK 924 INTRA-LIGAND FREE ENERGY PREDICTED BY IDOCK:   -0.07 KCAL/MOL
REMARK 927      BINDING AFFINITY PREDICTED BY RF-SCORE:    0.00 PKD
ROOT
HETATM    1  N   UNL     1     -12.999  11.685  63.003  1.00  0.00    -0.852 NA 
HETATM    2  H2  UNL     1     -12.915  10.685  62.820  1.00  0.00     0.000 HD 
HETATM    3  C   UNL     1     -12.110  12.339  63.807  1.00  0.00    -0.532 C  
HETATM    4  H1  UNL     1     -13.751  12.239  62.593  1.00  0.00     0.000 HD 
HETATM    5  N   UNL     1     -11.156  11.635  64.327  1.00  0.00    -0.343 N  
HETATM    6  C   UNL     1     -10.226  12.231  65.142  1.00  0.00    -0.279 C  
HETATM    7  H   UNL     1     -11.095  10.636  64.130  1.00  0.00     0.000 HD 
HETATM    8  N   UNL     1     -10.424  13.573  65.526  1.00  0.00    -0.291 N  
HETATM    9  O   UNL     1      -9.255  11.589  65.533  1.00  0.00    -0.211 OA 
HETATM   10  C   UNL     1     -12.263  13.779  64.052  1.00  0.00    -0.429 C  
HETATM   11  C   UNL     1     -11.414  14.322  64.926  1.00  0.00    -0.378 C  
ENDROOT
BRANCH   8  12
HETATM   12  C   UNL     1      -9.416  14.123  66.438  1.00  0.00    -0.269 C  
HETATM   13  O   UNL     1      -9.716  13.632  67.768  1.00  0.00    -0.213 OA 
HETATM   14  C   UNL     1     -10.401  14.657  68.507  1.00  0.00    -0.238 C  
HETATM   15  C   UNL     1     -10.046  15.997  67.874  1.00  0.00    -0.241 C  
HETATM   16  F   UNL     1      -7.905  15.879  66.923  1.00  0.00    -0.197 F  
HETATM   17  C   UNL     1      -9.221  15.631  66.647  1.00  0.00    -0.266 C  
HETATM   18  O   UNL     1      -9.302  16.808  68.801  1.00  0.00    -0.243 OA 
HETATM   19  F   UNL     1      -9.528  16.411  65.595  1.00  0.00    -0.323 F  
HETATM   20  H   UNL     1      -9.081  17.644  68.407  1.00  0.00     0.000 HD 
BRANCH  14  21
HETATM   21  C   UNL     1     -11.907  14.367  68.429  1.00  0.00    -0.319 C  
HETATM   22  O   UNL     1     -12.639  15.343  69.165  1.00  0.00    -0.590 OA 
HETATM   23  H   UNL     1     -13.570  15.164  69.116  1.00  0.00     0.000 HD 
ENDBRANCH  14  21
ENDBRANCH   8  12
TORSDOF 2
ENDMDL
MODEL       30
REMARK 921   NORMALIZED FREE ENERGY PREDICTED BY IDOCK:   -5.44 KCAL/MOL
REMARK 922        TOTAL FREE ENERGY PREDICTED BY IDOCK:   -6.23 KCAL/MOL
REMARK 923 INTER-LIGAND FREE ENERGY PREDICTED BY IDOCK:   -6.26 KCAL/MOL
REMARK 924 INTRA-LIGAND FREE ENERGY PREDICTED BY IDOCK:    0.03 KCAL/MOL
REMARK 927      BINDING AFFINITY PREDICTED BY RF-SCORE:    0.00 PKD
ROOT
HETATM    1  N   UNL     1      -8.053  21.203  66.870  1.00  0.00    -0.535 NA 
HETATM    2  H2  UNL     1      -7.063  21.432  66.961  1.00  0.00     0.000 HD 
HETATM    3  C   UNL     1      -8.511  19.932  67.070  1.00  0.00    -0.328 C  
HETATM    4  H1  UNL     1      -8.743  21.914  66.627  1.00  0.00     0.000 HD 
HETATM    5  N   UNL     1      -7.634  19.031  67.379  1.00  0.00    -0.230 N  
HETATM    6  C   UNL     1      -8.027  17.734  67.597  1.00  0.00    -0.214 C  
HETATM    7  H   UNL     1      -6.650  19.285  67.461  1.00  0.00     0.000 HD 
HETATM    8  N   UNL     1      -9.364  17.377  67.322  1.00  0.00    -0.236 N  
HETATM    9  O   UNL     1      -7.215  16.910  68.009  1.00  0.00    -0.155 OA 
HETATM   10  C   UNL     1      -9.942  19.637  66.929  1.00  0.00    -0.515 C  
HETATM   11  C   UNL     1     -10.294  18.354  67.043  1.00  0.00    -0.393 C  
ENDROOT
BRANCH   8  12
HETATM   12  C   UNL     1      -9.694  15.963  67.530  1.00  0.00    -0.223 C  
HETATM   13  O   UNL     1      -9.590  15.297  66.248  1.00  0.00    -0.259 OA 
HETATM   14  C   UNL     1     -10.906  15.135  65.692  1.00  0.00    -0.360 C  
HETATM   15  C   UNL     1     -11.901  15.172  66.845  1.00  0.00     0.004 C  
HETATM   16  F   UNL     1     -10.883  14.354  68.794  1.00  0.00    -0.222 F  
HETATM   17  C   UNL     1     -11.055  15.500  68.068  1.00  0.00    -0.322 C  
HETATM   18  O   UNL     1     -12.566  13.901  66.975  1.00  0.00    -0.461 OA 
HETATM   19  F   UNL     1     -11.683  16.362  68.887  1.00  0.00    -0.331 F  
HETATM   20  H   UNL     1     -13.187  13.924  67.694  1.00  0.00     0.000 HD 
BRANCH  14  21
HETATM   21  C   UNL     1     -11.140  16.280  64.696  1.00  0.00    -0.246 C  
HETATM   22  O   UNL     1     -12.031  15.865  63.664  1.00  0.00    -1.239 OA 
HETATM   23  H   UNL     1     -12.176  16.573  63.048  1.00  0.00     0.000 HD 
ENDBRANCH  14  21
ENDBRANCH   8  12
TORSDOF 2
ENDMDL
MODEL       31
REMARK 921   NORMALIZED FREE ENERGY PREDICTED BY IDOCK:   -5.39 KCAL/MOL
REMARK 922        TOTAL FREE ENERGY PREDICTED BY IDOCK:   -6.18 KCAL/MOL
REMARK 923 INTER-LIGAND FREE ENERGY PREDICTED BY IDOCK:   -6.14 KCAL/MOL
REMARK 924 INTRA-LIGAND FREE ENERGY PREDICTED BY IDOCK:   -0.04 KCAL/MOL
REMARK 927      BINDING AFFINITY PREDICTED BY RF-SCORE:    0.00 PKD
ROOT
HETATM    1  N   UNL     1      -8.515  20.767  67.000  1.00  0.00    -0.566 NA 
HETATM    2  H2  UNL     1      -7.543  21.060  67.097  1.00  0.00     0.000 HD 
HETATM    3  C   UNL     1      -8.936  19.541  67.428  1.00  0.00    -0.307 C  
HETATM    4  H1  UNL     1      -9.215  21.378  66.578  1.00  0.00     0.000 HD 
HETATM    5  N   UNL     1      -8.048  18.766  67.964  1.00  0.00    -0.275 N  
HETATM    6  C   UNL     1      -8.404  17.521  68.419  1.00  0.00    -0.278 C  
HETATM    7  H   UNL     1      -7.081  19.081  68.048  1.00  0.00     0.000 HD 
HETATM    8  N   UNL     1      -9.705  17.048  68.147  1.00  0.00    -0.259 N  
HETATM    9  O   UNL     1      -7.590  16.839  69.035  1.00  0.00    -0.232 OA 
HETATM   10  C   UNL     1     -10.343  19.150  67.270  1.00  0.00    -0.523 C  
HETATM   11  C   UNL     1     -10.652  17.901  67.623  1.00  0.00    -0.387 C  
ENDROOT
BRANCH   8  12
HETATM   12  C   UNL     1      -9.994  15.690  68.621  1.00  0.00    -0.208 C  
HETATM   13  O   UNL     1      -9.356  14.765  67.707  1.00  0.00    -0.194 OA 
HETATM   14  C   UNL     1     -10.339  14.251  66.792  1.00  0.00    -0.274 C  
HETATM   15  C   UNL     1     -11.704  14.391  67.455  1.00  0.00    -0.387 C  
HETATM   16  F   UNL     1     -11.468  14.251  69.785  1.00  0.00    -0.269 F  
HETATM   17  C   UNL     1     -11.422  15.143  68.750  1.00  0.00    -0.319 C  
HETATM   18  O   UNL     1     -12.279  13.095  67.699  1.00  0.00    -0.279 OA 
HETATM   19  F   UNL     1     -12.376  16.055  69.009  1.00  0.00    -0.323 F  
HETATM   20  H   UNL     1     -13.130  13.182  68.113  1.00  0.00     0.000 HD 
BRANCH  14  21
HETATM   21  C   UNL     1     -10.245  15.067  65.494  1.00  0.00    -0.378 C  
HETATM   22  O   UNL     1     -10.088  14.200  64.374  1.00  0.00    -0.682 OA 
HETATM   23  H   UNL     1     -10.030  14.705  63.571  1.00  0.00     0.000 HD 
ENDBRANCH  14  21
ENDBRANCH   8  12
TORSDOF 2
ENDMDL
MODEL       32
REMARK 921   NORMALIZED FREE ENERGY PREDICTED BY IDOCK:   -5.35 KCAL/MOL
REMARK 922        TOTAL FREE ENERGY PREDICTED BY IDOCK:   -6.13 KCAL/MOL
REMARK 923 INTER-LIGAND FREE ENERGY PREDICTED BY IDOCK:   -5.99 KCAL/MOL
REMARK 924 INTRA-LIGAND FREE ENERGY PREDICTED BY IDOCK:   -0.14 KCAL/MOL
REMARK 927      BINDING AFFINITY PREDICTED BY RF-SCORE:    0.00 PKD
ROOT
HETATM    1  N   UNL     1     -13.312  14.204  72.939  1.00  0.00    -0.644 NA 
HETATM    2  H2  UNL     1     -13.448  13.516  73.681  1.00  0.00     0.000 HD 
HETATM    3  C   UNL     1     -12.902  13.832  71.691  1.00  0.00    -0.352 C  
HETATM    4  H1  UNL     1     -13.477  15.198  73.098  1.00  0.00     0.000 HD 
HETATM    5  N   UNL     1     -12.693  12.571  71.489  1.00  0.00    -0.282 N  
HETATM    6  C   UNL     1     -12.283  12.129  70.256  1.00  0.00    -0.264 C  
HETATM    7  H   UNL     1     -12.834  11.903  72.248  1.00  0.00     0.000 HD 
HETATM    8  N   UNL     1     -11.943  13.082  69.274  1.00  0.00    -0.302 N  
HETATM    9  O   UNL     1     -12.205  10.923  70.034  1.00  0.00    -0.315 OA 
HETATM   10  C   UNL     1     -12.714  14.848  70.647  1.00  0.00    -0.422 C  
HETATM   11  C   UNL     1     -12.218  14.416  69.486  1.00  0.00    -0.282 C  
ENDROOT
BRANCH   8  12
HETATM   12  C   UNL     1     -11.465  12.533  68.001  1.00  0.00    -0.317 C  
HETATM   13  O   UNL     1     -10.046  12.279  68.141  1.00  0.00    -0.200 OA 
HETATM   14  C   UNL     1      -9.311  13.350  67.524  1.00  0.00    -0.218 C  
HETATM   15  C   UNL     1     -10.225  14.002  66.493  1.00  0.00    -0.279 C  
HETATM   16  F   UNL     1     -11.729  12.411  65.652  1.00  0.00    -0.377 F  
HETATM   17  C   UNL     1     -11.565  13.302  66.677  1.00  0.00    -0.365 C  
HETATM   18  O   UNL     1      -9.697  13.818  65.167  1.00  0.00    -0.567 OA 
HETATM   19  F   UNL     1     -12.592  14.167  66.579  1.00  0.00    -0.480 F  
HETATM   20  H   UNL     1     -10.267  14.225  64.525  1.00  0.00     0.000 HD 
BRANCH  14  21
HETATM   21  C   UNL     1      -8.898  14.334  68.629  1.00  0.00    -0.150 C  
HETATM   22  O   UNL     1      -8.872  15.665  68.122  1.00  0.00    -0.171 OA 
HETATM   23  H   UNL     1      -8.616  16.274  68.805  1.00  0.00     0.000 HD 
ENDBRANCH  14  21
ENDBRANCH   8  12
TORSDOF 2
ENDMDL
MODEL       33
REMARK 921   NORMALIZED FREE ENERGY PREDICTED BY IDOCK:   -5.30 KCAL/MOL
REMARK 922        TOTAL FREE ENERGY PREDICTED BY IDOCK:   -6.08 KCAL/MOL
REMARK 923 INTER-LIGAND FREE ENERGY PREDICTED BY IDOCK:   -6.07 KCAL/MOL
REMARK 924 INTRA-LIGAND FREE ENERGY PREDICTED BY IDOCK:   -0.01 KCAL/MOL
REMARK 927      BINDING AFFINITY PREDICTED BY RF-SCORE:    0.00 PKD
ROOT
HETATM    1  N   UNL     1     -14.267   8.963  73.213  1.00  0.00    -1.237 NA 
HETATM    2  H2  UNL     1     -15.069   9.592  73.258  1.00  0.00     0.000 HD 
HETATM    3  C   UNL     1     -13.217   9.207  72.374  1.00  0.00    -0.444 C  
HETATM    4  H1  UNL     1     -14.214   8.125  73.793  1.00  0.00     0.000 HD 
HETATM    5  N   UNL     1     -13.284  10.270  71.639  1.00  0.00    -0.410 N  
HETATM    6  C   UNL     1     -12.261  10.577  70.777  1.00  0.00    -0.369 C  
HETATM    7  H   UNL     1     -14.098  10.882  71.701  1.00  0.00     0.000 HD 
HETATM    8  N   UNL     1     -11.226   9.637  70.593  1.00  0.00    -0.294 N  
HETATM    9  O   UNL     1     -12.271  11.647  70.173  1.00  0.00    -0.310 OA 
HETATM   10  C   UNL     1     -12.079   8.280  72.333  1.00  0.00    -0.430 C  
HETATM   11  C   UNL     1     -11.142   8.536  71.417  1.00  0.00    -0.265 C  
ENDROOT
BRANCH   8  12
HETATM   12  C   UNL     1     -10.198  10.014  69.618  1.00  0.00    -0.239 C  
HETATM   13  O   UNL     1     -10.601   9.485  68.331  1.00  0.00    -0.220 OA 
HETATM   14  C   UNL     1      -9.873   8.273  68.069  1.00  0.00    -0.169 C  
HETATM   15  C   UNL     1      -8.596   8.314  68.901  1.00  0.00    -0.132 C  
HETATM   16  F   UNL     1      -7.927  10.541  69.211  1.00  0.00    -0.118 F  
HETATM   17  C   UNL     1      -8.733   9.574  69.746  1.00  0.00    -0.194 C  
HETATM   18  O   UNL     1      -7.440   8.363  68.044  1.00  0.00    -0.094 OA 
HETATM   19  F   UNL     1      -8.289   9.379  71.001  1.00  0.00    -0.212 F  
HETATM   20  H   UNL     1      -6.644   8.388  68.563  1.00  0.00     0.000 HD 
BRANCH  14  21
HETATM   21  C   UNL     1     -10.771   7.090  68.456  1.00  0.00    -0.179 C  
HETATM   22  O   UNL     1     -11.444   6.582  67.308  1.00  0.00    -0.754 OA 
HETATM   23  H   UNL     1     -12.000   5.850  67.547  1.00  0.00     0.000 HD 
ENDBRANCH  14  21
ENDBRANCH   8  12
TORSDOF 2
ENDMDL
MODEL       34
REMARK 921   NORMALIZED FREE ENERGY PREDICTED BY IDOCK:   -5.25 KCAL/MOL
REMARK 922        TOTAL FREE ENERGY PREDICTED BY IDOCK:   -6.02 KCAL/MOL
REMARK 923 INTER-LIGAND FREE ENERGY PREDICTED BY IDOCK:   -5.97 KCAL/MOL
REMARK 924 INTRA-LIGAND FREE ENERGY PREDICTED BY IDOCK:   -0.06 KCAL/MOL
REMARK 927      BINDING AFFINITY PREDICTED BY RF-SCORE:    0.00 PKD
ROOT
HETATM    1  N   UNL     1      -8.865  19.854  67.988  1.00  0.00    -0.301 NA 
HETATM    2  H2  UNL     1      -7.946  20.202  68.264  1.00  0.00     0.000 HD 
HETATM    3  C   UNL     1      -9.212  18.545  68.161  1.00  0.00    -0.309 C  
HETATM    4  H1  UNL     1      -9.564  20.470  67.571  1.00  0.00     0.000 HD 
HETATM    5  N   UNL     1      -8.326  17.764  68.691  1.00  0.00    -0.295 N  
HETATM    6  C   UNL     1      -8.611  16.438  68.896  1.00  0.00    -0.250 C  
HETATM    7  H   UNL     1      -7.413  18.136  68.956  1.00  0.00     0.000 HD 
HETATM    8  N   UNL     1      -9.814  15.916  68.377  1.00  0.00    -0.211 N  
HETATM    9  O   UNL     1      -7.816  15.729  69.509  1.00  0.00    -0.227 OA 
HETATM   10  C   UNL     1     -10.543  18.077  67.751  1.00  0.00    -0.409 C  
HETATM   11  C   UNL     1     -10.768  16.767  67.862  1.00  0.00    -0.347 C  
ENDROOT
BRANCH   8  12
HETATM   12  C   UNL     1     -10.023  14.480  68.593  1.00  0.00    -0.237 C  
HETATM   13  O   UNL     1      -9.319  13.774  67.542  1.00  0.00    -0.207 OA 
HETATM   14  C   UNL     1     -10.258  13.377  66.528  1.00  0.00    -0.282 C  
HETATM   15  C   UNL     1     -11.637  13.315  67.176  1.00  0.00    -0.357 C  
HETATM   16  F   UNL     1     -11.418  12.770  69.447  1.00  0.00    -0.291 F  
HETATM   17  C   UNL     1     -11.416  13.836  68.590  1.00  0.00    -0.301 C  
HETATM   18  O   UNL     1     -12.133  11.964  67.171  1.00  0.00    -0.590 OA 
HETATM   19  F   UNL     1     -12.428  14.629  68.988  1.00  0.00    -0.265 F  
HETATM   20  H   UNL     1     -12.992  11.925  67.574  1.00  0.00     0.000 HD 
BRANCH  14  21
HETATM   21  C   UNL     1     -10.201  14.417  65.400  1.00  0.00    -0.382 C  
HETATM   22  O   UNL     1     -10.268  13.776  64.130  1.00  0.00    -0.705 OA 
HETATM   23  H   UNL     1     -10.232  14.419  63.432  1.00  0.00     0.000 HD 
ENDBRANCH  14  21
ENDBRANCH   8  12
TORSDOF 2
ENDMDL
MODEL       35
REMARK 921   NORMALIZED FREE ENERGY PREDICTED BY IDOCK:   -5.25 KCAL/MOL
REMARK 922        TOTAL FREE ENERGY PREDICTED BY IDOCK:   -6.02 KCAL/MOL
REMARK 923 INTER-LIGAND FREE ENERGY PREDICTED BY IDOCK:   -6.06 KCAL/MOL
REMARK 924 INTRA-LIGAND FREE ENERGY PREDICTED BY IDOCK:    0.04 KCAL/MOL
REMARK 927      BINDING AFFINITY PREDICTED BY RF-SCORE:    0.00 PKD
ROOT
HETATM    1  N   UNL     1      -8.822  12.613  66.961  1.00  0.00    -0.209 NA 
HETATM    2  H2  UNL     1      -8.909  11.999  66.151  1.00  0.00     0.000 HD 
HETATM    3  C   UNL     1      -9.236  13.914  66.916  1.00  0.00    -0.259 C  
HETATM    4  H1  UNL     1      -8.423  12.282  67.839  1.00  0.00     0.000 HD 
HETATM    5  N   UNL     1      -9.743  14.333  65.801  1.00  0.00    -0.490 N  
HETATM    6  C   UNL     1     -10.182  15.629  65.689  1.00  0.00    -0.375 C  
HETATM    7  H   UNL     1      -9.817  13.700  65.005  1.00  0.00     0.000 HD 
HETATM    8  N   UNL     1      -9.923  16.525  66.746  1.00  0.00    -0.265 N  
HETATM    9  O   UNL     1     -10.774  15.988  64.674  1.00  0.00    -0.601 OA 
HETATM   10  C   UNL     1      -9.094  14.771  68.100  1.00  0.00    -0.180 C  
HETATM   11  C   UNL     1      -9.430  16.053  67.943  1.00  0.00    -0.210 C  
ENDROOT
BRANCH   8  12
HETATM   12  C   UNL     1     -10.378  17.903  66.531  1.00  0.00    -0.362 C  
HETATM   13  O   UNL     1      -9.543  18.481  65.497  1.00  0.00    -0.173 OA 
HETATM   14  C   UNL     1      -8.537  19.306  66.109  1.00  0.00    -0.257 C  
HETATM   15  C   UNL     1      -9.056  19.725  67.480  1.00  0.00    -0.330 C  
HETATM   16  F   UNL     1     -11.399  19.836  67.437  1.00  0.00    -0.481 F  
HETATM   17  C   UNL     1     -10.365  18.964  67.640  1.00  0.00    -0.426 C  
HETATM   18  O   UNL     1      -9.252  21.150  67.527  1.00  0.00    -0.408 OA 
HETATM   19  F   UNL     1     -10.517  18.500  68.893  1.00  0.00    -0.359 F  
HETATM   20  H   UNL     1      -9.575  21.412  68.382  1.00  0.00     0.000 HD 
BRANCH  14  21
HETATM   21  C   UNL     1      -7.248  18.478  66.213  1.00  0.00    -0.254 C  
HETATM   22  O   UNL     1      -6.414  18.714  65.082  1.00  0.00    -0.424 OA 
HETATM   23  H   UNL     1      -5.617  18.202  65.146  1.00  0.00     0.000 HD 
ENDBRANCH  14  21
ENDBRANCH   8  12
TORSDOF 2
ENDMDL
MODEL       36
REMARK 921   NORMALIZED FREE ENERGY PREDICTED BY IDOCK:   -5.24 KCAL/MOL
REMARK 922        TOTAL FREE ENERGY PREDICTED BY IDOCK:   -6.01 KCAL/MOL
REMARK 923 INTER-LIGAND FREE ENERGY PREDICTED BY IDOCK:   -5.99 KCAL/MOL
REMARK 924 INTRA-LIGAND FREE ENERGY PREDICTED BY IDOCK:   -0.03 KCAL/MOL
REMARK 927      BINDING AFFINITY PREDICTED BY RF-SCORE:    0.00 PKD
ROOT
HETATM    1  N   UNL     1      -9.687  19.171  68.845  1.00  0.00    -0.419 NA 
HETATM    2  H2  UNL     1      -9.815  19.452  69.817  1.00  0.00     0.000 HD 
HETATM    3  C   UNL     1     -10.218  18.009  68.363  1.00  0.00    -0.391 C  
HETATM    4  H1  UNL     1      -9.156  19.746  68.190  1.00  0.00     0.000 HD 
HETATM    5  N   UNL     1     -10.892  17.280  69.194  1.00  0.00    -0.313 N  
HETATM    6  C   UNL     1     -11.456  16.101  68.774  1.00  0.00    -0.340 C  
HETATM    7  H   UNL     1     -11.005  17.582  70.162  1.00  0.00     0.000 HD 
HETATM    8  N   UNL     1     -11.153  15.629  67.480  1.00  0.00    -0.317 N  
HETATM    9  O   UNL     1     -12.196  15.474  69.529  1.00  0.00    -0.327 OA 
HETATM   10  C   UNL     1     -10.012  17.634  66.958  1.00  0.00    -0.320 C  
HETATM   11  C   UNL     1     -10.478  16.438  66.592  1.00  0.00    -0.274 C  
ENDROOT
BRANCH   8  12
HETATM   12  C   UNL     1     -11.753  14.338  67.124  1.00  0.00    -0.404 C  
HETATM   13  O   UNL     1     -11.042  13.310  67.857  1.00  0.00    -0.246 OA 
HETATM   14  C   UNL     1     -10.087  12.683  66.986  1.00  0.00    -0.224 C  
HETATM   15  C   UNL     1     -10.560  12.897  65.553  1.00  0.00    -0.279 C  
HETATM   16  F   UNL     1     -12.901  13.046  65.508  1.00  0.00    -0.518 F  
HETATM   17  C   UNL     1     -11.777  13.804  65.686  1.00  0.00    -0.347 C  
HETATM   18  O   UNL     1     -10.892  11.637  64.940  1.00  0.00    -0.295 OA 
HETATM   19  F   UNL     1     -11.806  14.736  64.716  1.00  0.00    -0.372 F  
HETATM   20  H   UNL     1     -11.186  11.770  64.047  1.00  0.00     0.000 HD 
BRANCH  14  21
HETATM   21  C   UNL     1      -8.719  13.332  67.241  1.00  0.00    -0.214 C  
HETATM   22  O   UNL     1      -7.690  12.596  66.586  1.00  0.00    -0.384 OA 
HETATM   23  H   UNL     1      -6.844  12.997  66.744  1.00  0.00     0.000 HD 
ENDBRANCH  14  21
ENDBRANCH   8  12
TORSDOF 2
ENDMDL
MODEL       37
REMARK 921   NORMALIZED FREE ENERGY PREDICTED BY IDOCK:   -5.21 KCAL/MOL
REMARK 922        TOTAL FREE ENERGY PREDICTED BY IDOCK:   -5.98 KCAL/MOL
REMARK 923 INTER-LIGAND FREE ENERGY PREDICTED BY IDOCK:   -5.97 KCAL/MOL
REMARK 924 INTRA-LIGAND FREE ENERGY PREDICTED BY IDOCK:   -0.01 KCAL/MOL
REMARK 927      BINDING AFFINITY PREDICTED BY RF-SCORE:    0.00 PKD
ROOT
HETATM    1  N   UNL     1      -6.853  15.881  69.591  1.00  0.00    -0.187 NA 
HETATM    2  H2  UNL     1      -6.919  16.420  70.454  1.00  0.00     0.000 HD 
HETATM    3  C   UNL     1      -7.942  15.680  68.792  1.00  0.00    -0.172 C  
HETATM    4  H1  UNL     1      -5.971  15.469  69.287  1.00  0.00     0.000 HD 
HETATM    5  N   UNL     1      -9.062  16.203  69.178  1.00  0.00    -0.252 N  
HETATM    6  C   UNL     1     -10.195  16.042  68.420  1.00  0.00    -0.236 C  
HETATM    7  H   UNL     1      -9.102  16.737  70.047  1.00  0.00     0.000 HD 
HETATM    8  N   UNL     1     -10.149  15.170  67.312  1.00  0.00    -0.234 N  
HETATM    9  O   UNL     1     -11.223  16.641  68.724  1.00  0.00    -0.308 OA 
HETATM   10  C   UNL     1      -7.813  14.896  67.557  1.00  0.00    -0.206 C  
HETATM   11  C   UNL     1      -8.942  14.662  66.885  1.00  0.00    -0.253 C  
ENDROOT
BRANCH   8  12
HETATM   12  C   UNL     1     -11.413  15.012  66.583  1.00  0.00    -0.251 C  
HETATM   13  O   UNL     1     -12.291  14.202  67.404  1.00  0.00    -0.317 OA 
HETATM   14  C   UNL     1     -12.275  12.849  66.920  1.00  0.00    -0.106 C  
HETATM   15  C   UNL     1     -11.846  12.887  65.457  1.00  0.00    -0.411 C  
HETATM   16  F   UNL     1     -12.514  14.917  64.491  1.00  0.00    -0.454 F  
HETATM   17  C   UNL     1     -11.495  14.347  65.202  1.00  0.00    -0.362 C  
HETATM   18  O   UNL     1     -12.916  12.434  64.608  1.00  0.00    -0.793 OA 
HETATM   19  F   UNL     1     -10.399  14.465  64.431  1.00  0.00    -0.399 F  
HETATM   20  H   UNL     1     -12.648  12.457  63.697  1.00  0.00     0.000 HD 
BRANCH  14  21
HETATM   21  C   UNL     1     -11.289  12.051  67.786  1.00  0.00    -0.303 C  
HETATM   22  O   UNL     1     -11.800  10.746  68.044  1.00  0.00    -0.725 OA 
HETATM   23  H   UNL     1     -11.191  10.253  68.580  1.00  0.00     0.000 HD 
ENDBRANCH  14  21
ENDBRANCH   8  12
TORSDOF 2
ENDMDL
MODEL       38
REMARK 921   NORMALIZED FREE ENERGY PREDICTED BY IDOCK:   -5.19 KCAL/MOL
REMARK 922        TOTAL FREE ENERGY PREDICTED BY IDOCK:   -5.96 KCAL/MOL
REMARK 923 INTER-LIGAND FREE ENERGY PREDICTED BY IDOCK:   -5.81 KCAL/MOL
REMARK 924 INTRA-LIGAND FREE ENERGY PREDICTED BY IDOCK:   -0.15 KCAL/MOL
REMARK 927      BINDING AFFINITY PREDICTED BY RF-SCORE:    0.00 PKD
ROOT
HETATM    1  N   UNL     1     -11.927  10.797  68.098  1.00  0.00    -0.801 NA 
HETATM    2  H2  UNL     1     -12.267  10.237  67.315  1.00  0.00     0.000 HD 
HETATM    3  C   UNL     1     -11.676  12.133  67.961  1.00  0.00    -0.344 C  
HETATM    4  H1  UNL     1     -11.761  10.384  69.015  1.00  0.00     0.000 HD 
HETATM    5  N   UNL     1     -11.887  12.657  66.796  1.00  0.00    -0.397 N  
HETATM    6  C   UNL     1     -11.658  13.995  66.591  1.00  0.00    -0.382 C  
HETATM    7  H   UNL     1     -12.225  12.075  66.029  1.00  0.00     0.000 HD 
HETATM    8  N   UNL     1     -11.042  14.741  67.617  1.00  0.00    -0.295 N  
HETATM    9  O   UNL     1     -11.975  14.512  65.524  1.00  0.00    -0.354 OA 
HETATM   10  C   UNL     1     -11.185  12.909  69.107  1.00  0.00    -0.293 C  
HETATM   11  C   UNL     1     -10.870  14.183  68.866  1.00  0.00    -0.258 C  
ENDROOT
BRANCH   8  12
HETATM   12  C   UNL     1     -10.785  16.150  67.304  1.00  0.00    -0.277 C  
HETATM   13  O   UNL     1      -9.671  16.195  66.378  1.00  0.00    -0.250 OA 
HETATM   14  C   UNL     1      -8.471  16.523  67.097  1.00  0.00    -0.181 C  
HETATM   15  C   UNL     1      -8.882  17.250  68.373  1.00  0.00    -0.269 C  
HETATM   16  F   UNL     1     -10.891  18.406  68.010  1.00  0.00    -0.395 F  
HETATM   17  C   UNL     1     -10.404  17.182  68.375  1.00  0.00    -0.362 C  
HETATM   18  O   UNL     1      -8.404  18.607  68.354  1.00  0.00    -0.315 OA 
HETATM   19  F   UNL     1     -10.886  16.948  69.609  1.00  0.00    -0.322 F  
HETATM   20  H   UNL     1      -8.660  19.060  69.149  1.00  0.00     0.000 HD 
BRANCH  14  21
HETATM   21  C   UNL     1      -7.728  15.214  67.397  1.00  0.00    -0.197 C  
HETATM   22  O   UNL     1      -7.436  15.116  68.789  1.00  0.00    -0.116 OA 
HETATM   23  H   UNL     1      -6.977  14.306  68.974  1.00  0.00     0.000 HD 
ENDBRANCH  14  21
ENDBRANCH   8  12
TORSDOF 2
ENDMDL
MODEL       39
REMARK 921   NORMALIZED FREE ENERGY PREDICTED BY IDOCK:   -5.19 KCAL/MOL
REMARK 922        TOTAL FREE ENERGY PREDICTED BY IDOCK:   -5.95 KCAL/MOL
REMARK 923 INTER-LIGAND FREE ENERGY PREDICTED BY IDOCK:   -5.91 KCAL/MOL
REMARK 924 INTRA-LIGAND FREE ENERGY PREDICTED BY IDOCK:   -0.04 KCAL/MOL
REMARK 927      BINDING AFFINITY PREDICTED BY RF-SCORE:    0.00 PKD
ROOT
HETATM    1  N   UNL     1     -12.558  13.904  62.966  1.00  0.00    -0.908 NA 
HETATM    2  H2  UNL     1     -12.936  13.440  62.139  1.00  0.00     0.000 HD 
HETATM    3  C   UNL     1     -11.639  13.290  63.768  1.00  0.00    -0.375 C  
HETATM    4  H1  UNL     1     -12.851  14.845  63.229  1.00  0.00     0.000 HD 
HETATM    5  N   UNL     1     -11.267  12.096  63.433  1.00  0.00    -0.638 N  
HETATM    6  C   UNL     1     -10.344  11.423  64.194  1.00  0.00    -0.344 C  
HETATM    7  H   UNL     1     -11.662  11.653  62.603  1.00  0.00     0.000 HD 
HETATM    8  N   UNL     1      -9.935  11.990  65.419  1.00  0.00    -0.253 N  
HETATM    9  O   UNL     1      -9.903  10.344  63.808  1.00  0.00    -0.310 OA 
HETATM   10  C   UNL     1     -11.117  13.985  64.952  1.00  0.00    -0.378 C  
HETATM   11  C   UNL     1     -10.299  13.280  65.736  1.00  0.00    -0.288 C  
ENDROOT
BRANCH   8  12
HETATM   12  C   UNL     1      -8.985  11.188  66.198  1.00  0.00    -0.195 C  
HETATM   13  O   UNL     1      -9.756  10.297  67.041  1.00  0.00    -0.166 OA 
HETATM   14  C   UNL     1      -9.814  10.838  68.372  1.00  0.00    -0.169 C  
HETATM   15  C   UNL     1      -8.621  11.771  68.543  1.00  0.00    -0.123 C  
HETATM   16  F   UNL     1      -6.845  11.037  67.197  1.00  0.00    -0.075 F  
HETATM   17  C   UNL     1      -7.971  11.813  67.166  1.00  0.00    -0.166 C  
HETATM   18  O   UNL     1      -7.725  11.261  69.546  1.00  0.00    -0.362 OA 
HETATM   19  F   UNL     1      -7.554  13.053  66.854  1.00  0.00    -0.106 F  
HETATM   20  H   UNL     1      -6.981  11.843  69.653  1.00  0.00     0.000 HD 
BRANCH  14  21
HETATM   21  C   UNL     1     -11.150  11.581  68.520  1.00  0.00    -0.236 C  
HETATM   22  O   UNL     1     -12.220  10.653  68.670  1.00  0.00    -0.814 OA 
HETATM   23  H   UNL     1     -13.046  11.113  68.761  1.00  0.00     0.000 HD 
ENDBRANCH  14  21
ENDBRANCH   8  12
TORSDOF 2
ENDMDL
MODEL       40
REMARK 921   NORMALIZED FREE ENERGY PREDICTED BY IDOCK:   -5.16 KCAL/MOL
REMARK 922        TOTAL FREE ENERGY PREDICTED BY IDOCK:   -5.92 KCAL/MOL
REMARK 923 INTER-LIGAND FREE ENERGY PREDICTED BY IDOCK:   -5.87 KCAL/MOL
REMARK 924 INTRA-LIGAND FREE ENERGY PREDICTED BY IDOCK:   -0.05 KCAL/MOL
REMARK 927      BINDING AFFINITY PREDICTED BY RF-SCORE:    0.00 PKD
ROOT
HETATM    1  N   UNL     1     -10.060  12.311  68.611  1.00  0.00    -0.360 NA 
HETATM    2  H2  UNL     1     -10.286  13.295  68.758  1.00  0.00     0.000 HD 
HETATM    3  C   UNL     1     -10.671  11.325  69.331  1.00  0.00    -0.141 C  
HETATM    4  H1  UNL     1      -9.369  12.021  67.919  1.00  0.00     0.000 HD 
HETATM    5  N   UNL     1     -11.548  11.692  70.209  1.00  0.00    -0.510 N  
HETATM    6  C   UNL     1     -12.202  10.752  70.966  1.00  0.00    -0.380 C  
HETATM    7  H   UNL     1     -11.754  12.683  70.339  1.00  0.00     0.000 HD 
HETATM    8  N   UNL     1     -11.786   9.407  70.880  1.00  0.00    -0.294 N  
HETATM    9  O   UNL     1     -13.119  11.094  71.708  1.00  0.00    -0.467 OA 
HETATM   10  C   UNL     1     -10.321   9.918  69.095  1.00  0.00    -0.225 C  
HETATM   11  C   UNL     1     -10.888   9.024  69.907  1.00  0.00    -0.218 C  
ENDROOT
BRANCH   8  12
HETATM   12  C   UNL     1     -12.498   8.470  71.756  1.00  0.00    -0.342 C  
HETATM   13  O   UNL     1     -11.858   8.515  73.055  1.00  0.00    -0.169 OA 
HETATM   14  C   UNL     1     -10.979   7.385  73.187  1.00  0.00    -0.359 C  
HETATM   15  C   UNL     1     -11.467   6.306  72.228  1.00  0.00    -0.306 C  
HETATM   16  F   UNL     1     -13.788   6.494  71.942  1.00  0.00    -0.339 F  
HETATM   17  C   UNL     1     -12.600   6.969  71.456  1.00  0.00    -0.385 C  
HETATM   18  O   UNL     1     -11.916   5.150  72.958  1.00  0.00    -0.484 OA 
HETATM   19  F   UNL     1     -12.576   6.630  70.154  1.00  0.00    -0.303 F  
HETATM   20  H   UNL     1     -12.220   4.478  72.360  1.00  0.00     0.000 HD 
BRANCH  14  21
HETATM   21  C   UNL     1      -9.557   7.854  72.848  1.00  0.00    -0.264 C  
HETATM   22  O   UNL     1      -8.825   8.121  74.042  1.00  0.00    -0.323 OA 
HETATM   23  H   UNL     1      -7.945   8.411  73.832  1.00  0.00     0.000 HD 
ENDBRANCH  14  21
ENDBRANCH   8  12
TORSDOF 2
ENDMDL
MODEL       41
REMARK 921   NORMALIZED FREE ENERGY PREDICTED BY IDOCK:   -5.12 KCAL/MOL
REMARK 922        TOTAL FREE ENERGY PREDICTED BY IDOCK:   -5.87 KCAL/MOL
REMARK 923 INTER-LIGAND FREE ENERGY PREDICTED BY IDOCK:   -6.04 KCAL/MOL
REMARK 924 INTRA-LIGAND FREE ENERGY PREDICTED BY IDOCK:    0.17 KCAL/MOL
REMARK 927      BINDING AFFINITY PREDICTED BY RF-SCORE:    0.00 PKD
ROOT
HETATM    1  N   UNL     1      -8.317   8.496  66.829  1.00  0.00    -0.108 NA 
HETATM    2  H2  UNL     1      -7.353   8.177  66.925  1.00  0.00     0.000 HD 
HETATM    3  C   UNL     1      -9.047   8.897  67.911  1.00  0.00    -0.139 C  
HETATM    4  H1  UNL     1      -8.778   8.529  65.919  1.00  0.00     0.000 HD 
HETATM    5  N   UNL     1      -8.462   8.855  69.065  1.00  0.00    -0.131 N  
HETATM    6  C   UNL     1      -9.137   9.247  70.194  1.00  0.00    -0.222 C  
HETATM    7  H   UNL     1      -7.497   8.530  69.136  1.00  0.00     0.000 HD 
HETATM    8  N   UNL     1     -10.513   9.539  70.093  1.00  0.00    -0.234 N  
HETATM    9  O   UNL     1      -8.542   9.323  71.266  1.00  0.00    -0.310 OA 
HETATM   10  C   UNL     1     -10.434   9.348  67.737  1.00  0.00    -0.310 C  
HETATM   11  C   UNL     1     -11.109   9.628  68.853  1.00  0.00    -0.059 C  
ENDROOT
BRANCH   8  12
HETATM   12  C   UNL     1     -11.175   9.901  71.351  1.00  0.00    -0.209 C  
HETATM   13  O   UNL     1     -10.932   8.829  72.295  1.00  0.00    -0.359 OA 
HETATM   14  C   UNL     1     -12.094   7.986  72.362  1.00  0.00    -0.321 C  
HETATM   15  C   UNL     1     -13.291   8.813  71.906  1.00  0.00    -0.389 C  
HETATM   16  F   UNL     1     -12.930  11.073  72.420  1.00  0.00    -0.487 F  
HETATM   17  C   UNL     1     -12.688  10.136  71.454  1.00  0.00    -0.425 C  
HETATM   18  O   UNL     1     -14.222   8.987  72.990  1.00  0.00    -1.107 OA 
HETATM   19  F   UNL     1     -13.285  10.596  70.339  1.00  0.00    -0.359 F  
HETATM   20  H   UNL     1     -14.968   9.502  72.706  1.00  0.00     0.000 HD 
BRANCH  14  21
HETATM   21  C   UNL     1     -11.851   6.776  71.448  1.00  0.00    -0.338 C  
HETATM   22  O   UNL     1     -12.662   6.867  70.279  1.00  0.00    -0.539 OA 
HETATM   23  H   UNL     1     -12.512   6.119  69.714  1.00  0.00     0.000 HD 
ENDBRANCH  14  21
ENDBRANCH   8  12
TORSDOF 2
ENDMDL
MODEL       42
REMARK 921   NORMALIZED FREE ENERGY PREDICTED BY IDOCK:   -5.11 KCAL/MOL
REMARK 922        TOTAL FREE ENERGY PREDICTED BY IDOCK:   -5.86 KCAL/MOL
REMARK 923 INTER-LIGAND FREE ENERGY PREDICTED BY IDOCK:   -5.76 KCAL/MOL
REMARK 924 INTRA-LIGAND FREE ENERGY PREDICTED BY IDOCK:   -0.10 KCAL/MOL
REMARK 927      BINDING AFFINITY PREDICTED BY RF-SCORE:    0.00 PKD
ROOT
HETATM    1  N   UNL     1      -9.873   8.232  66.175  1.00  0.00    -0.463 NA 
HETATM    2  H2  UNL     1     -10.485   7.444  66.388  1.00  0.00     0.000 HD 
HETATM    3  C   UNL     1     -10.100   9.472  66.701  1.00  0.00    -0.252 C  
HETATM    4  H1  UNL     1      -9.066   8.128  65.559  1.00  0.00     0.000 HD 
HETATM    5  N   UNL     1     -11.124   9.603  67.482  1.00  0.00    -0.421 N  
HETATM    6  C   UNL     1     -11.406  10.822  68.047  1.00  0.00    -0.307 C  
HETATM    7  H   UNL     1     -11.722   8.800  67.678  1.00  0.00     0.000 HD 
HETATM    8  N   UNL     1     -10.662  11.947  67.637  1.00  0.00    -0.208 N  
HETATM    9  O   UNL     1     -12.303  10.915  68.882  1.00  0.00    -0.486 OA 
HETATM   10  C   UNL     1      -9.200  10.585  66.372  1.00  0.00    -0.190 C  
HETATM   11  C   UNL     1      -9.546  11.783  66.846  1.00  0.00    -0.193 C  
ENDROOT
BRANCH   8  12
HETATM   12  C   UNL     1     -11.057  13.221  68.248  1.00  0.00    -0.266 C  
HETATM   13  O   UNL     1     -12.259  13.672  67.577  1.00  0.00    -0.342 OA 
HETATM   14  C   UNL     1     -11.911  14.675  66.608  1.00  0.00    -0.310 C  
HETATM   15  C   UNL     1     -10.582  15.288  67.036  1.00  0.00    -0.306 C  
HETATM   16  F   UNL     1     -10.385  15.192  69.371  1.00  0.00    -0.216 F  
HETATM   17  C   UNL     1     -10.152  14.460  68.240  1.00  0.00    -0.239 C  
HETATM   18  O   UNL     1     -10.756  16.677  67.372  1.00  0.00    -0.316 OA 
HETATM   19  F   UNL     1      -8.829  14.217  68.225  1.00  0.00    -0.158 F  
HETATM   20  H   UNL     1      -9.927  17.059  67.638  1.00  0.00     0.000 HD 
BRANCH  14  21
HETATM   21  C   UNL     1     -11.811  13.991  65.237  1.00  0.00    -0.359 C  
HETATM   22  O   UNL     1     -12.979  13.214  64.984  1.00  0.00    -0.729 OA 
HETATM   23  H   UNL     1     -12.917  12.791  64.136  1.00  0.00     0.000 HD 
ENDBRANCH  14  21
ENDBRANCH   8  12
TORSDOF 2
ENDMDL
MODEL       43
REMARK 921   NORMALIZED FREE ENERGY PREDICTED BY IDOCK:   -5.10 KCAL/MOL
REMARK 922        TOTAL FREE ENERGY PREDICTED BY IDOCK:   -5.85 KCAL/MOL
REMARK 923 INTER-LIGAND FREE ENERGY PREDICTED BY IDOCK:   -5.89 KCAL/MOL
REMARK 924 INTRA-LIGAND FREE ENERGY PREDICTED BY IDOCK:    0.04 KCAL/MOL
REMARK 927      BINDING AFFINITY PREDICTED BY RF-SCORE:    0.00 PKD
ROOT
HETATM    1  N   UNL     1     -11.947  10.023  71.032  1.00  0.00    -0.346 NA 
HETATM    2  H2  UNL     1     -11.680   9.058  71.231  1.00  0.00     0.000 HD 
HETATM    3  C   UNL     1     -11.746  10.577  69.800  1.00  0.00    -0.281 C  
HETATM    4  H1  UNL     1     -12.374  10.615  71.744  1.00  0.00     0.000 HD 
HETATM    5  N   UNL     1     -11.204   9.826  68.896  1.00  0.00    -0.455 N  
HETATM    6  C   UNL     1     -10.978  10.320  67.635  1.00  0.00    -0.294 C  
HETATM    7  H   UNL     1     -10.944   8.865  69.120  1.00  0.00     0.000 HD 
HETATM    8  N   UNL     1     -11.197  11.692  67.397  1.00  0.00    -0.280 N  
HETATM    9  O   UNL     1     -10.578   9.570  66.748  1.00  0.00    -0.212 OA 
HETATM   10  C   UNL     1     -12.140  11.970  69.548  1.00  0.00    -0.273 C  
HETATM   11  C   UNL     1     -11.820  12.466  68.351  1.00  0.00    -0.309 C  
ENDROOT
BRANCH   8  12
HETATM   12  C   UNL     1     -10.884  12.154  66.040  1.00  0.00    -0.282 C  
HETATM   13  O   UNL     1      -9.580  12.784  66.083  1.00  0.00    -0.254 OA 
HETATM   14  C   UNL     1      -9.747  14.211  66.127  1.00  0.00    -0.290 C  
HETATM   15  C   UNL     1     -11.116  14.534  65.540  1.00  0.00    -0.339 C  
HETATM   16  F   UNL     1     -11.696  12.910  63.949  1.00  0.00    -0.384 F  
HETATM   17  C   UNL     1     -11.753  13.173  65.290  1.00  0.00    -0.344 C  
HETATM   18  O   UNL     1     -10.974  15.294  64.325  1.00  0.00    -0.643 OA 
HETATM   19  F   UNL     1     -13.060  13.174  65.609  1.00  0.00    -0.418 F  
HETATM   20  H   UNL     1     -11.828  15.495  63.959  1.00  0.00     0.000 HD 
BRANCH  14  21
HETATM   21  C   UNL     1      -9.632  14.654  67.593  1.00  0.00    -0.212 C  
HETATM   22  O   UNL     1     -10.676  15.567  67.918  1.00  0.00    -0.276 OA 
HETATM   23  H   UNL     1     -10.606  15.841  68.825  1.00  0.00     0.000 HD 
ENDBRANCH  14  21
ENDBRANCH   8  12
TORSDOF 2
ENDMDL
MODEL       44
REMARK 921   NORMALIZED FREE ENERGY PREDICTED BY IDOCK:   -5.09 KCAL/MOL
REMARK 922        TOTAL FREE ENERGY PREDICTED BY IDOCK:   -5.85 KCAL/MOL
REMARK 923 INTER-LIGAND FREE ENERGY PREDICTED BY IDOCK:   -5.79 KCAL/MOL
REMARK 924 INTRA-LIGAND FREE ENERGY PREDICTED BY IDOCK:   -0.05 KCAL/MOL
REMARK 927      BINDING AFFINITY PREDICTED BY RF-SCORE:    0.00 PKD
ROOT
HETATM    1  N   UNL     1     -12.701  13.901  63.331  1.00  0.00    -0.783 NA 
HETATM    2  H2  UNL     1     -13.590  13.415  63.207  1.00  0.00     0.000 HD 
HETATM    3  C   UNL     1     -11.927  13.698  64.438  1.00  0.00    -0.437 C  
HETATM    4  H1  UNL     1     -12.352  14.559  62.634  1.00  0.00     0.000 HD 
HETATM    5  N   UNL     1     -12.370  12.863  65.323  1.00  0.00    -0.474 N  
HETATM    6  C   UNL     1     -11.640  12.610  66.457  1.00  0.00    -0.381 C  
HETATM    7  H   UNL     1     -13.262  12.391  65.176  1.00  0.00     0.000 HD 
HETATM    8  N   UNL     1     -10.493  13.390  66.712  1.00  0.00    -0.272 N  
HETATM    9  O   UNL     1     -12.001  11.728  67.232  1.00  0.00    -0.618 OA 
HETATM   10  C   UNL     1     -10.655  14.416  64.587  1.00  0.00    -0.331 C  
HETATM   11  C   UNL     1     -10.007  14.238  65.740  1.00  0.00    -0.323 C  
ENDROOT
BRANCH   8  12
HETATM   12  C   UNL     1      -9.796  13.095  67.968  1.00  0.00    -0.231 C  
HETATM   13  O   UNL     1     -10.487  13.802  69.027  1.00  0.00    -0.199 OA 
HETATM   14  C   UNL     1      -9.764  15.003  69.344  1.00  0.00    -0.153 C  
HETATM   15  C   UNL     1      -8.318  14.800  68.906  1.00  0.00    -0.163 C  
HETATM   16  F   UNL     1      -7.765  12.524  69.041  1.00  0.00    -0.081 F  
HETATM   17  C   UNL     1      -8.321  13.449  68.201  1.00  0.00    -0.164 C  
HETATM   18  O   UNL     1      -7.442  14.809  70.048  1.00  0.00    -0.379 OA 
HETATM   19  F   UNL     1      -7.543  13.463  67.103  1.00  0.00    -0.158 F  
HETATM   20  H   UNL     1      -6.540  14.683  69.775  1.00  0.00     0.000 HD 
BRANCH  14  21
HETATM   21  C   UNL     1     -10.431  16.166  68.595  1.00  0.00    -0.269 C  
HETATM   22  O   UNL     1     -10.781  17.205  69.505  1.00  0.00    -0.376 OA 
HETATM   23  H   UNL     1     -11.194  17.925  69.042  1.00  0.00     0.000 HD 
ENDBRANCH  14  21
ENDBRANCH   8  12
TORSDOF 2
ENDMDL
MODEL       45
REMARK 921   NORMALIZED FREE ENERGY PREDICTED BY IDOCK:   -5.08 KCAL/MOL
REMARK 922        TOTAL FREE ENERGY PREDICTED BY IDOCK:   -5.83 KCAL/MOL
REMARK 923 INTER-LIGAND FREE ENERGY PREDICTED BY IDOCK:   -5.86 KCAL/MOL
REMARK 924 INTRA-LIGAND FREE ENERGY PREDICTED BY IDOCK:    0.03 KCAL/MOL
REMARK 927      BINDING AFFINITY PREDICTED BY RF-SCORE:    0.00 PKD
ROOT
HETATM    1  N   UNL     1     -11.565  16.439  63.630  1.00  0.00    -1.230 NA 
HETATM    2  H2  UNL     1     -10.999  17.222  63.302  1.00  0.00     0.000 HD 
HETATM    3  C   UNL     1     -11.401  15.914  64.880  1.00  0.00    -0.256 C  
HETATM    4  H1  UNL     1     -12.279  16.014  63.038  1.00  0.00     0.000 HD 
HETATM    5  N   UNL     1     -10.495  16.454  65.631  1.00  0.00    -0.369 N  
HETATM    6  C   UNL     1     -10.280  15.978  66.901  1.00  0.00    -0.280 C  
HETATM    7  H   UNL     1      -9.940  17.235  65.280  1.00  0.00     0.000 HD 
HETATM    8  N   UNL     1     -10.945  14.801  67.304  1.00  0.00    -0.309 N  
HETATM    9  O   UNL     1      -9.509  16.568  67.652  1.00  0.00    -0.222 OA 
HETATM   10  C   UNL     1     -12.231  14.786  65.319  1.00  0.00    -0.158 C  
HETATM   11  C   UNL     1     -11.941  14.269  66.514  1.00  0.00    -0.427 C  
ENDROOT
BRANCH   8  12
HETATM   12  C   UNL     1     -10.625  14.328  68.654  1.00  0.00    -0.250 C  
HETATM   13  O   UNL     1      -9.690  13.229  68.521  1.00  0.00    -0.215 OA 
HETATM   14  C   UNL     1     -10.399  11.986  68.658  1.00  0.00    -0.196 C  
HETATM   15  C   UNL     1     -11.675  12.267  69.443  1.00  0.00    -0.330 C  
HETATM   16  F   UNL     1     -11.324  14.072  70.901  1.00  0.00    -0.188 F  
HETATM   17  C   UNL     1     -11.689  13.781  69.615  1.00  0.00    -0.318 C  
HETATM   18  O   UNL     1     -11.648  11.581  70.708  1.00  0.00    -0.382 OA 
HETATM   19  F   UNL     1     -12.928  14.284  69.463  1.00  0.00    -0.162 F  
HETATM   20  H   UNL     1     -12.443  11.756  71.197  1.00  0.00     0.000 HD 
BRANCH  14  21
HETATM   21  C   UNL     1     -10.698  11.456  67.249  1.00  0.00    -0.241 C  
HETATM   22  O   UNL     1     -11.903  10.697  67.249  1.00  0.00    -0.330 OA 
HETATM   23  H   UNL     1     -12.088  10.369  66.377  1.00  0.00     0.000 HD 
ENDBRANCH  14  21
ENDBRANCH   8  12
TORSDOF 2
ENDMDL
MODEL       46
REMARK 921   NORMALIZED FREE ENERGY PREDICTED BY IDOCK:   -5.07 KCAL/MOL
REMARK 922        TOTAL FREE ENERGY PREDICTED BY IDOCK:   -5.82 KCAL/MOL
REMARK 923 INTER-LIGAND FREE ENERGY PREDICTED BY IDOCK:   -5.74 KCAL/MOL
REMARK 924 INTRA-LIGAND FREE ENERGY PREDICTED BY IDOCK:   -0.09 KCAL/MOL
REMARK 927      BINDING AFFINITY PREDICTED BY RF-SCORE:    0.00 PKD
ROOT
HETATM    1  N   UNL     1     -13.079  13.146  71.577  1.00  0.00    -0.353 NA 
HETATM    2  H2  UNL     1     -13.772  13.458  72.257  1.00  0.00     0.000 HD 
HETATM    3  C   UNL     1     -12.815  11.819  71.387  1.00  0.00    -0.335 C  
HETATM    4  H1  UNL     1     -12.554  13.810  71.008  1.00  0.00     0.000 HD 
HETATM    5  N   UNL     1     -13.482  10.976  72.109  1.00  0.00    -0.529 N  
HETATM    6  C   UNL     1     -13.268   9.628  71.966  1.00  0.00    -0.453 C  
HETATM    7  H   UNL     1     -14.168  11.314  72.784  1.00  0.00     0.000 HD 
HETATM    8  N   UNL     1     -12.206   9.194  71.146  1.00  0.00    -0.298 N  
HETATM    9  O   UNL     1     -13.987   8.829  72.561  1.00  0.00    -0.428 OA 
HETATM   10  C   UNL     1     -11.809  11.404  70.401  1.00  0.00    -0.428 C  
HETATM   11  C   UNL     1     -11.539  10.098  70.347  1.00  0.00    -0.316 C  
ENDROOT
BRANCH   8  12
HETATM   12  C   UNL     1     -12.009   7.742  71.085  1.00  0.00    -0.291 C  
HETATM   13  O   UNL     1     -11.545   7.310  72.387  1.00  0.00    -0.279 OA 
HETATM   14  C   UNL     1     -10.120   7.127  72.344  1.00  0.00    -0.182 C  
HETATM   15  C   UNL     1      -9.730   6.885  70.891  1.00  0.00    -0.178 C  
HETATM   16  F   UNL     1     -11.504   5.847  69.760  1.00  0.00    -0.459 F  
HETATM   17  C   UNL     1     -11.024   7.079  70.112  1.00  0.00    -0.272 C  
HETATM   18  O   UNL     1      -9.197   5.557  70.729  1.00  0.00    -0.145 OA 
HETATM   19  F   UNL     1     -10.813   7.735  68.957  1.00  0.00    -0.218 F  
HETATM   20  H   UNL     1      -8.954   5.406  69.823  1.00  0.00     0.000 HD 
BRANCH  14  21
HETATM   21  C   UNL     1      -9.466   8.397  72.909  1.00  0.00    -0.205 C  
HETATM   22  O   UNL     1      -8.526   8.927  71.978  1.00  0.00    -0.367 OA 
HETATM   23  H   UNL     1      -8.122   9.712  72.328  1.00  0.00     0.000 HD 
ENDBRANCH  14  21
ENDBRANCH   8  12
TORSDOF 2
ENDMDL
MODEL       47
REMARK 921   NORMALIZED FREE ENERGY PREDICTED BY IDOCK:   -5.05 KCAL/MOL
REMARK 922        TOTAL FREE ENERGY PREDICTED BY IDOCK:   -5.80 KCAL/MOL
REMARK 923 INTER-LIGAND FREE ENERGY PREDICTED BY IDOCK:   -5.63 KCAL/MOL
REMARK 924 INTRA-LIGAND FREE ENERGY PREDICTED BY IDOCK:   -0.17 KCAL/MOL
REMARK 927      BINDING AFFINITY PREDICTED BY RF-SCORE:    0.00 PKD
ROOT
HETATM    1  N   UNL     1     -12.305  13.878  63.125  1.00  0.00    -1.106 NA 
HETATM    2  H2  UNL     1     -12.879  14.700  63.315  1.00  0.00     0.000 HD 
HETATM    3  C   UNL     1     -11.905  13.042  64.129  1.00  0.00    -0.416 C  
HETATM    4  H1  UNL     1     -12.004  13.645  62.179  1.00  0.00     0.000 HD 
HETATM    5  N   UNL     1     -12.287  13.337  65.330  1.00  0.00    -0.450 N  
HETATM    6  C   UNL     1     -11.923  12.537  66.384  1.00  0.00    -0.318 C  
HETATM    7  H   UNL     1     -12.859  14.166  65.493  1.00  0.00     0.000 HD 
HETATM    8  N   UNL     1     -11.004  11.493  66.155  1.00  0.00    -0.286 N  
HETATM    9  O   UNL     1     -12.387  12.750  67.501  1.00  0.00    -0.280 OA 
HETATM   10  C   UNL     1     -11.077  11.869  63.821  1.00  0.00    -0.510 C  
HETATM   11  C   UNL     1     -10.647  11.160  64.867  1.00  0.00    -0.289 C  
ENDROOT
BRANCH   8  12
HETATM   12  C   UNL     1     -10.626  10.715  67.340  1.00  0.00    -0.256 C  
HETATM   13  O   UNL     1      -9.675  11.505  68.095  1.00  0.00    -0.179 OA 
HETATM   14  C   UNL     1      -8.345  11.032  67.823  1.00  0.00    -0.118 C  
HETATM   15  C   UNL     1      -8.458   9.588  67.348  1.00  0.00    -0.125 C  
HETATM   16  F   UNL     1     -10.339   8.581  68.322  1.00  0.00    -0.208 F  
HETATM   17  C   UNL     1      -9.957   9.337  67.248  1.00  0.00    -0.207 C  
HETATM   18  O   UNL     1      -7.824   8.700  68.287  1.00  0.00    -0.100 OA 
HETATM   19  F   UNL     1     -10.265   8.609  66.159  1.00  0.00    -0.367 F  
HETATM   20  H   UNL     1      -7.894   7.800  67.990  1.00  0.00     0.000 HD 
BRANCH  14  21
HETATM   21  C   UNL     1      -7.733  11.943  66.749  1.00  0.00    -0.051 C  
HETATM   22  O   UNL     1      -7.225  11.164  65.669  1.00  0.00    -0.367 OA 
HETATM   23  H   UNL     1      -6.846  11.728  65.005  1.00  0.00     0.000 HD 
ENDBRANCH  14  21
ENDBRANCH   8  12
TORSDOF 2
ENDMDL
MODEL       48
REMARK 921   NORMALIZED FREE ENERGY PREDICTED BY IDOCK:   -5.05 KCAL/MOL
REMARK 922        TOTAL FREE ENERGY PREDICTED BY IDOCK:   -5.79 KCAL/MOL
REMARK 923 INTER-LIGAND FREE ENERGY PREDICTED BY IDOCK:   -6.17 KCAL/MOL
REMARK 924 INTRA-LIGAND FREE ENERGY PREDICTED BY IDOCK:    0.37 KCAL/MOL
REMARK 927      BINDING AFFINITY PREDICTED BY RF-SCORE:    0.00 PKD
ROOT
HETATM    1  N   UNL     1     -12.810  12.276  64.032  1.00  0.00    -0.726 NA 
HETATM    2  H2  UNL     1     -12.603  11.306  64.272  1.00  0.00     0.000 HD 
HETATM    3  C   UNL     1     -12.041  13.304  64.499  1.00  0.00    -0.408 C  
HETATM    4  H1  UNL     1     -13.599  12.520  63.434  1.00  0.00     0.000 HD 
HETATM    5  N   UNL     1     -11.039  12.995  65.258  1.00  0.00    -0.283 N  
HETATM    6  C   UNL     1     -10.224  13.979  65.758  1.00  0.00    -0.328 C  
HETATM    7  H   UNL     1     -10.855  12.017  65.485  1.00  0.00     0.000 HD 
HETATM    8  N   UNL     1     -10.593  15.327  65.562  1.00  0.00    -0.344 N  
HETATM    9  O   UNL     1      -9.207  13.676  66.375  1.00  0.00    -0.222 OA 
HETATM   10  C   UNL     1     -12.368  14.689  64.136  1.00  0.00    -0.294 C  
HETATM   11  C   UNL     1     -11.630  15.640  64.711  1.00  0.00    -0.218 C  
ENDROOT
BRANCH   8  12
HETATM   12  C   UNL     1      -9.699  16.319  66.169  1.00  0.00    -0.329 C  
HETATM   13  O   UNL     1      -9.519  15.951  67.559  1.00  0.00    -0.217 OA 
HETATM   14  C   UNL     1     -10.371  16.768  68.379  1.00  0.00    -0.319 C  
HETATM   15  C   UNL     1     -10.676  18.042  67.600  1.00  0.00    -0.344 C  
HETATM   16  F   UNL     1      -8.885  18.541  66.169  1.00  0.00    -0.295 F  
HETATM   17  C   UNL     1     -10.041  17.814  66.234  1.00  0.00    -0.344 C  
HETATM   18  O   UNL     1     -10.116  19.186  68.270  1.00  0.00    -0.374 OA 
HETATM   19  F   UNL     1     -10.823  18.277  65.242  1.00  0.00    -0.453 F  
HETATM   20  H   UNL     1     -10.307  19.981  67.784  1.00  0.00     0.000 HD 
BRANCH  14  21
HETATM   21  C   UNL     1     -11.643  15.964  68.684  1.00  0.00    -0.380 C  
HETATM   22  O   UNL     1     -11.640  15.526  70.040  1.00  0.00    -0.287 OA 
HETATM   23  H   UNL     1     -12.426  15.029  70.229  1.00  0.00     0.000 HD 
ENDBRANCH  14  21
ENDBRANCH   8  12
TORSDOF 2
ENDMDL
MODEL       49
REMARK 921   NORMALIZED FREE ENERGY PREDICTED BY IDOCK:   -5.02 KCAL/MOL
REMARK 922        TOTAL FREE ENERGY PREDICTED BY IDOCK:   -5.77 KCAL/MOL
REMARK 923 INTER-LIGAND FREE ENERGY PREDICTED BY IDOCK:   -5.65 KCAL/MOL
REMARK 924 INTRA-LIGAND FREE ENERGY PREDICTED BY IDOCK:   -0.12 KCAL/MOL
REMARK 927      BINDING AFFINITY PREDICTED BY RF-SCORE:    0.00 PKD
ROOT
HETATM    1  N   UNL     1     -11.837  13.658  67.138  1.00  0.00    -0.380 NA 
HETATM    2  H2  UNL     1     -12.038  13.039  67.924  1.00  0.00     0.000 HD 
HETATM    3  C   UNL     1     -10.917  14.662  67.239  1.00  0.00    -0.317 C  
HETATM    4  H1  UNL     1     -12.314  13.553  66.243  1.00  0.00     0.000 HD 
HETATM    5  N   UNL     1     -10.311  14.795  68.375  1.00  0.00    -0.228 N  
HETATM    6  C   UNL     1      -9.372  15.782  68.544  1.00  0.00    -0.198 C  
HETATM    7  H   UNL     1     -10.531  14.165  69.147  1.00  0.00     0.000 HD 
HETATM    8  N   UNL     1      -9.202  16.736  67.519  1.00  0.00    -0.214 N  
HETATM    9  O   UNL     1      -8.713  15.828  69.579  1.00  0.00    -0.259 OA 
HETATM   10  C   UNL     1     -10.654  15.536  66.088  1.00  0.00    -0.321 C  
HETATM   11  C   UNL     1      -9.815  16.552  66.299  1.00  0.00    -0.316 C  
ENDROOT
BRANCH   8  12
HETATM   12  C   UNL     1      -8.217  17.788  67.794  1.00  0.00    -0.227 C  
HETATM   13  O   UNL     1      -8.908  18.863  68.477  1.00  0.00    -0.333 OA 
HETATM   14  C   UNL     1      -9.204  19.908  67.535  1.00  0.00    -0.346 C  
HETATM   15  C   UNL     1      -8.218  19.780  66.379  1.00  0.00    -0.347 C  
HETATM   16  F   UNL     1      -6.205  18.858  67.157  1.00  0.00    -0.170 F  
HETATM   17  C   UNL     1      -7.439  18.506  66.684  1.00  0.00    -0.231 C  
HETATM   18  O   UNL     1      -7.361  20.934  66.321  1.00  0.00    -0.505 OA 
HETATM   19  F   UNL     1      -7.213  17.787  65.569  1.00  0.00    -0.293 F  
HETATM   20  H   UNL     1      -6.746  20.855  65.600  1.00  0.00     0.000 HD 
BRANCH  14  21
HETATM   21  C   UNL     1     -10.656  19.726  67.072  1.00  0.00    -0.461 C  
HETATM   22  O   UNL     1     -10.726  19.719  65.649  1.00  0.00    -0.505 OA 
HETATM   23  H   UNL     1     -11.625  19.606  65.362  1.00  0.00     0.000 HD 
ENDBRANCH  14  21
ENDBRANCH   8  12
TORSDOF 2
ENDMDL
MODEL       50
REMARK 921   NORMALIZED FREE ENERGY PREDICTED BY IDOCK:   -5.02 KCAL/MOL
REMARK 922        TOTAL FREE ENERGY PREDICTED BY IDOCK:   -5.77 KCAL/MOL
REMARK 923 INTER-LIGAND FREE ENERGY PREDICTED BY IDOCK:   -5.73 KCAL/MOL
REMARK 924 INTRA-LIGAND FREE ENERGY PREDICTED BY IDOCK:   -0.04 KCAL/MOL
REMARK 927      BINDING AFFINITY PREDICTED BY RF-SCORE:    0.00 PKD
ROOT
HETATM    1  N   UNL     1      -8.452   7.560  64.539  1.00  0.00    -0.373 NA 
HETATM    2  H2  UNL     1      -8.664   6.640  64.927  1.00  0.00     0.000 HD 
HETATM    3  C   UNL     1      -8.968   8.700  65.088  1.00  0.00    -0.058 C  
HETATM    4  H1  UNL     1      -7.847   7.669  63.726  1.00  0.00     0.000 HD 
HETATM    5  N   UNL     1      -9.736   8.562  66.121  1.00  0.00    -0.409 N  
HETATM    6  C   UNL     1     -10.285   9.666  66.724  1.00  0.00    -0.239 C  
HETATM    7  H   UNL     1      -9.934   7.630  66.488  1.00  0.00     0.000 HD 
HETATM    8  N   UNL     1     -10.127  10.923  66.105  1.00  0.00    -0.232 N  
HETATM    9  O   UNL     1     -10.911   9.542  67.773  1.00  0.00    -0.244 OA 
HETATM   10  C   UNL     1      -8.645  10.008  64.504  1.00  0.00    -0.197 C  
HETATM   11  C   UNL     1      -9.267  11.062  65.037  1.00  0.00    -0.197 C  
ENDROOT
BRANCH   8  12
HETATM   12  C   UNL     1     -10.785  12.046  66.782  1.00  0.00    -0.243 C  
HETATM   13  O   UNL     1     -12.116  12.172  66.224  1.00  0.00    -0.626 OA 
HETATM   14  C   UNL     1     -12.125  13.237  65.258  1.00  0.00    -0.418 C  
HETATM   15  C   UNL     1     -10.969  14.173  65.593  1.00  0.00    -0.308 C  
HETATM   16  F   UNL     1     -10.553  14.118  67.901  1.00  0.00    -0.234 F  
HETATM   17  C   UNL     1     -10.237  13.479  66.734  1.00  0.00    -0.264 C  
HETATM   18  O   UNL     1     -11.468  15.466  65.981  1.00  0.00    -0.180 OA 
HETATM   19  F   UNL     1      -8.902  13.590  66.604  1.00  0.00    -0.228 F  
HETATM   20  H   UNL     1     -10.747  16.050  66.189  1.00  0.00     0.000 HD 
BRANCH  14  21
HETATM   21  C   UNL     1     -11.969  12.610  63.865  1.00  0.00    -0.479 C  
HETATM   22  O   UNL     1     -12.087  13.609  62.856  1.00  0.00    -0.795 OA 
HETATM   23  H   UNL     1     -11.991  13.221  61.994  1.00  0.00     0.000 HD 
ENDBRANCH  14  21
ENDBRANCH   8  12
TORSDOF 2
ENDMDL
MODEL       51
REMARK 921   NORMALIZED FREE ENERGY PREDICTED BY IDOCK:   -5.02 KCAL/MOL
REMARK 922        TOTAL FREE ENERGY PREDICTED BY IDOCK:   -5.76 KCAL/MOL
REMARK 923 INTER-LIGAND FREE ENERGY PREDICTED BY IDOCK:   -5.73 KCAL/MOL
REMARK 924 INTRA-LIGAND FREE ENERGY PREDICTED BY IDOCK:   -0.04 KCAL/MOL
REMARK 927      BINDING AFFINITY PREDICTED BY RF-SCORE:    0.00 PKD
ROOT
HETATM    1  N   UNL     1      -8.996  11.998  68.511  1.00  0.00    -0.327 NA 
HETATM    2  H2  UNL     1      -9.679  11.404  68.984  1.00  0.00     0.000 HD 
HETATM    3  C   UNL     1      -9.153  13.353  68.449  1.00  0.00    -0.142 C  
HETATM    4  H1  UNL     1      -8.168  11.604  68.066  1.00  0.00     0.000 HD 
HETATM    5  N   UNL     1     -10.205  13.852  69.015  1.00  0.00    -0.422 N  
HETATM    6  C   UNL     1     -10.422  15.207  68.993  1.00  0.00    -0.248 C  
HETATM    7  H   UNL     1     -10.874  13.237  69.479  1.00  0.00     0.000 HD 
HETATM    8  N   UNL     1      -9.571  16.015  68.211  1.00  0.00    -0.208 N  
HETATM    9  O   UNL     1     -11.353  15.688  69.634  1.00  0.00    -0.279 OA 
HETATM   10  C   UNL     1      -8.153  14.177  67.759  1.00  0.00    -0.170 C  
HETATM   11  C   UNL     1      -8.429  15.479  67.657  1.00  0.00    -0.166 C  
ENDROOT
BRANCH   8  12
HETATM   12  C   UNL     1      -9.898  17.445  68.198  1.00  0.00    -0.301 C  
HETATM   13  O   UNL     1     -11.033  17.625  67.316  1.00  0.00    -0.206 OA 
HETATM   14  C   UNL     1     -10.571  18.101  66.041  1.00  0.00    -0.264 C  
HETATM   15  C   UNL     1      -9.221  18.774  66.262  1.00  0.00    -0.247 C  
HETATM   16  F   UNL     1      -9.132  19.673  68.427  1.00  0.00    -0.369 F  
HETATM   17  C   UNL     1      -8.905  18.518  67.730  1.00  0.00    -0.275 C  
HETATM   18  O   UNL     1      -9.307  20.180  65.966  1.00  0.00    -0.565 OA 
HETATM   19  F   UNL     1      -7.604  18.229  67.912  1.00  0.00    -0.223 F  
HETATM   20  H   UNL     1      -8.465  20.599  66.104  1.00  0.00     0.000 HD 
BRANCH  14  21
HETATM   21  C   UNL     1     -10.463  16.894  65.099  1.00  0.00     0.006 C  
HETATM   22  O   UNL     1     -11.489  16.941  64.111  1.00  0.00    -1.323 OA 
HETATM   23  H   UNL     1     -11.422  16.195  63.529  1.00  0.00     0.000 HD 
ENDBRANCH  14  21
ENDBRANCH   8  12
TORSDOF 2
ENDMDL
MODEL       52
REMARK 921   NORMALIZED FREE ENERGY PREDICTED BY IDOCK:   -4.98 KCAL/MOL
REMARK 922        TOTAL FREE ENERGY PREDICTED BY IDOCK:   -5.72 KCAL/MOL
REMARK 923 INTER-LIGAND FREE ENERGY PREDICTED BY IDOCK:   -6.46 KCAL/MOL
REMARK 924 INTRA-LIGAND FREE ENERGY PREDICTED BY IDOCK:    0.74 KCAL/MOL
REMARK 927      BINDING AFFINITY PREDICTED BY RF-SCORE:    0.00 PKD
ROOT
HETATM    1  N   UNL     1     -12.996   9.012  72.123  1.00  0.00    -0.396 NA 
HETATM    2  H2  UNL     1     -13.626   8.780  72.892  1.00  0.00     0.000 HD 
HETATM    3  C   UNL     1     -12.836  10.300  71.698  1.00  0.00    -0.463 C  
HETATM    4  H1  UNL     1     -12.460   8.292  71.639  1.00  0.00     0.000 HD 
HETATM    5  N   UNL     1     -13.517  11.213  72.314  1.00  0.00    -0.527 N  
HETATM    6  C   UNL     1     -13.400  12.529  71.939  1.00  0.00    -0.368 C  
HETATM    7  H   UNL     1     -14.140  10.955  73.078  1.00  0.00     0.000 HD 
HETATM    8  N   UNL     1     -12.657  12.839  70.781  1.00  0.00    -0.276 N  
HETATM    9  O   UNL     1     -13.950  13.404  72.602  1.00  0.00    -0.755 OA 
HETATM   10  C   UNL     1     -11.924  10.599  70.586  1.00  0.00    -0.466 C  
HETATM   11  C   UNL     1     -11.899  11.865  70.168  1.00  0.00    -0.308 C  
ENDROOT
BRANCH   8  12
HETATM   12  C   UNL     1     -12.621  14.260  70.418  1.00  0.00    -0.343 C  
HETATM   13  O   UNL     1     -12.398  14.339  68.988  1.00  0.00    -0.274 OA 
HETATM   14  C   UNL     1     -11.011  14.625  68.742  1.00  0.00    -0.258 C  
HETATM   15  C   UNL     1     -10.449  15.295  69.991  1.00  0.00    -0.247 C  
HETATM   16  F   UNL     1     -12.152  16.482  71.084  1.00  0.00    -0.340 F  
HETATM   17  C   UNL     1     -11.590  15.238  70.998  1.00  0.00    -0.356 C  
HETATM   18  O   UNL     1     -10.055  16.648  69.700  1.00  0.00    -0.190 OA 
HETATM   19  F   UNL     1     -11.144  14.951  72.234  1.00  0.00    -0.408 F  
HETATM   20  H   UNL     1      -9.704  17.066  70.478  1.00  0.00     0.000 HD 
BRANCH  14  21
HETATM   21  C   UNL     1     -10.303  13.298  68.435  1.00  0.00    -0.251 C  
HETATM   22  O   UNL     1     -10.476  12.948  67.065  1.00  0.00    -0.237 OA 
HETATM   23  H   UNL     1     -10.038  12.127  66.876  1.00  0.00     0.000 HD 
ENDBRANCH  14  21
ENDBRANCH   8  12
TORSDOF 2
ENDMDL
MODEL       53
REMARK 921   NORMALIZED FREE ENERGY PREDICTED BY IDOCK:   -4.95 KCAL/MOL
REMARK 922        TOTAL FREE ENERGY PREDICTED BY IDOCK:   -5.69 KCAL/MOL
REMARK 923 INTER-LIGAND FREE ENERGY PREDICTED BY IDOCK:   -5.51 KCAL/MOL
REMARK 924 INTRA-LIGAND FREE ENERGY PREDICTED BY IDOCK:   -0.18 KCAL/MOL
REMARK 927      BINDING AFFINITY PREDICTED BY RF-SCORE:    0.00 PKD
ROOT
HETATM    1  N   UNL     1      -8.932   7.981  65.432  1.00  0.00    -0.392 NA 
HETATM    2  H2  UNL     1      -8.634   7.596  64.535  1.00  0.00     0.000 HD 
HETATM    3  C   UNL     1      -9.511   9.216  65.519  1.00  0.00    -0.206 C  
HETATM    4  H1  UNL     1      -8.811   7.462  66.301  1.00  0.00     0.000 HD 
HETATM    5  N   UNL     1      -9.665   9.875  64.415  1.00  0.00    -0.408 N  
HETATM    6  C   UNL     1     -10.243  11.119  64.431  1.00  0.00    -0.330 C  
HETATM    7  H   UNL     1      -9.356   9.468  63.532  1.00  0.00     0.000 HD 
HETATM    8  N   UNL     1     -10.513  11.724  65.677  1.00  0.00    -0.255 N  
HETATM    9  O   UNL     1     -10.499  11.688  63.373  1.00  0.00    -0.388 OA 
HETATM   10  C   UNL     1      -9.926   9.741  66.826  1.00  0.00    -0.278 C  
HETATM   11  C   UNL     1     -10.392  10.992  66.838  1.00  0.00    -0.235 C  
ENDROOT
BRANCH   8  12
HETATM   12  C   UNL     1     -11.083  13.074  65.611  1.00  0.00    -0.276 C  
HETATM   13  O   UNL     1      -9.990  13.998  65.387  1.00  0.00    -0.316 OA 
HETATM   14  C   UNL     1      -9.631  14.616  66.635  1.00  0.00    -0.278 C  
HETATM   15  C   UNL     1     -10.842  14.533  67.556  1.00  0.00    -0.289 C  
HETATM   16  F   UNL     1     -12.809  14.549  66.278  1.00  0.00    -0.365 F  
HETATM   17  C   UNL     1     -11.856  13.705  66.777  1.00  0.00    -0.413 C  
HETATM   18  O   UNL     1     -11.337  15.851  67.854  1.00  0.00    -0.330 OA 
HETATM   19  F   UNL     1     -12.511  12.844  67.578  1.00  0.00    -0.260 F  
HETATM   20  H   UNL     1     -12.092  15.799  68.429  1.00  0.00     0.000 HD 
BRANCH  14  21
HETATM   21  C   UNL     1      -8.423  13.858  67.205  1.00  0.00    -0.180 C  
HETATM   22  O   UNL     1      -8.629  13.562  68.583  1.00  0.00    -0.311 OA 
HETATM   23  H   UNL     1      -7.882  13.093  68.936  1.00  0.00     0.000 HD 
ENDBRANCH  14  21
ENDBRANCH   8  12
TORSDOF 2
ENDMDL
MODEL       54
REMARK 921   NORMALIZED FREE ENERGY PREDICTED BY IDOCK:   -4.88 KCAL/MOL
REMARK 922        TOTAL FREE ENERGY PREDICTED BY IDOCK:   -5.61 KCAL/MOL
REMARK 923 INTER-LIGAND FREE ENERGY PREDICTED BY IDOCK:   -6.10 KCAL/MOL
REMARK 924 INTRA-LIGAND FREE ENERGY PREDICTED BY IDOCK:    0.48 KCAL/MOL
REMARK 927      BINDING AFFINITY PREDICTED BY RF-SCORE:    0.00 PKD
ROOT
HETATM    1  N   UNL     1     -11.777  16.457  63.782  1.00  0.00    -1.498 NA 
HETATM    2  H2  UNL     1     -12.696  16.534  63.346  1.00  0.00     0.000 HD 
HETATM    3  C   UNL     1     -11.413  15.345  64.485  1.00  0.00    -0.311 C  
HETATM    4  H1  UNL     1     -11.090  17.208  63.711  1.00  0.00     0.000 HD 
HETATM    5  N   UNL     1     -12.284  14.392  64.575  1.00  0.00    -0.533 N  
HETATM    6  C   UNL     1     -11.982  13.244  65.265  1.00  0.00    -0.388 C  
HETATM    7  H   UNL     1     -13.198  14.493  64.132  1.00  0.00     0.000 HD 
HETATM    8  N   UNL     1     -10.779  13.194  65.999  1.00  0.00    -0.274 N  
HETATM    9  O   UNL     1     -12.761  12.295  65.244  1.00  0.00    -0.543 OA 
HETATM   10  C   UNL     1     -10.082  15.268  65.102  1.00  0.00    -0.323 C  
HETATM   11  C   UNL     1      -9.840  14.193  65.853  1.00  0.00    -0.289 C  
ENDROOT
BRANCH   8  12
HETATM   12  C   UNL     1     -10.550  11.955  66.750  1.00  0.00    -0.229 C  
HETATM   13  O   UNL     1     -10.338  12.318  68.137  1.00  0.00    -0.203 OA 
HETATM   14  C   UNL     1      -8.928  12.306  68.418  1.00  0.00    -0.141 C  
HETATM   15  C   UNL     1      -8.262  11.392  67.396  1.00  0.00    -0.145 C  
HETATM   16  F   UNL     1      -9.769   9.721  66.731  1.00  0.00    -0.193 F  
HETATM   17  C   UNL     1      -9.386  11.003  66.445  1.00  0.00    -0.183 C  
HETATM   18  O   UNL     1      -7.687  10.245  68.049  1.00  0.00    -0.088 OA 
HETATM   19  F   UNL     1      -8.967  10.983  65.166  1.00  0.00    -0.193 F  
HETATM   20  H   UNL     1      -7.272   9.675  67.412  1.00  0.00     0.000 HD 
BRANCH  14  21
HETATM   21  C   UNL     1      -8.416  13.750  68.315  1.00  0.00    -0.173 C  
HETATM   22  O   UNL     1      -8.920  14.533  69.394  1.00  0.00    -0.390 OA 
HETATM   23  H   UNL     1      -8.603  15.426  69.330  1.00  0.00     0.000 HD 
ENDBRANCH  14  21
ENDBRANCH   8  12
TORSDOF 2
ENDMDL
MODEL       55
REMARK 921   NORMALIZED FREE ENERGY PREDICTED BY IDOCK:   -4.85 KCAL/MOL
REMARK 922        TOTAL FREE ENERGY PREDICTED BY IDOCK:   -5.57 KCAL/MOL
REMARK 923 INTER-LIGAND FREE ENERGY PREDICTED BY IDOCK:   -5.59 KCAL/MOL
REMARK 924 INTRA-LIGAND FREE ENERGY PREDICTED BY IDOCK:    0.01 KCAL/MOL
REMARK 927      BINDING AFFINITY PREDICTED BY RF-SCORE:    0.00 PKD
ROOT
HETATM    1  N   UNL     1      -7.074   9.957  68.543  1.00  0.00    -0.071 NA 
HETATM    2  H2  UNL     1      -6.109   9.783  68.822  1.00  0.00     0.000 HD 
HETATM    3  C   UNL     1      -8.115   9.728  69.397  1.00  0.00    -0.129 C  
HETATM    4  H1  UNL     1      -7.304  10.310  67.614  1.00  0.00     0.000 HD 
HETATM    5  N   UNL     1      -7.823   9.280  70.576  1.00  0.00    -0.138 N  
HETATM    6  C   UNL     1      -8.822   9.032  71.485  1.00  0.00    -0.097 C  
HETATM    7  H   UNL     1      -6.850   9.112  70.830  1.00  0.00     0.000 HD 
HETATM    8  N   UNL     1     -10.163   9.119  71.057  1.00  0.00    -0.276 N  
HETATM    9  O   UNL     1      -8.535   8.726  72.639  1.00  0.00    -0.413 OA 
HETATM   10  C   UNL     1      -9.494   9.987  68.961  1.00  0.00    -0.190 C  
HETATM   11  C   UNL     1     -10.458   9.644  69.818  1.00  0.00    -0.238 C  
ENDROOT
BRANCH   8  12
HETATM   12  C   UNL     1     -11.170   8.790  72.072  1.00  0.00    -0.373 C  
HETATM   13  O   UNL     1     -10.963   7.409  72.459  1.00  0.00    -0.254 OA 
HETATM   14  C   UNL     1     -11.920   6.579  71.779  1.00  0.00    -0.344 C  
HETATM   15  C   UNL     1     -13.105   7.459  71.398  1.00  0.00    -0.350 C  
HETATM   16  F   UNL     1     -13.327   9.201  72.953  1.00  0.00    -0.489 F  
HETATM   17  C   UNL     1     -12.678   8.865  71.797  1.00  0.00    -0.364 C  
HETATM   18  O   UNL     1     -14.289   7.036  72.099  1.00  0.00    -0.613 OA 
HETATM   19  F   UNL     1     -13.061   9.776  70.884  1.00  0.00    -0.378 F  
HETATM   20  H   UNL     1     -15.028   7.584  71.861  1.00  0.00     0.000 HD 
BRANCH  14  21
HETATM   21  C   UNL     1     -11.231   5.980  70.545  1.00  0.00    -0.292 C  
HETATM   22  O   UNL     1     -11.892   6.400  69.354  1.00  0.00    -0.577 OA 
HETATM   23  H   UNL     1     -11.466   6.029  68.591  1.00  0.00     0.000 HD 
ENDBRANCH  14  21
ENDBRANCH   8  12
TORSDOF 2
ENDMDL
MODEL       56
REMARK 921   NORMALIZED FREE ENERGY PREDICTED BY IDOCK:   -4.84 KCAL/MOL
REMARK 922        TOTAL FREE ENERGY PREDICTED BY IDOCK:   -5.56 KCAL/MOL
REMARK 923 INTER-LIGAND FREE ENERGY PREDICTED BY IDOCK:   -5.65 KCAL/MOL
REMARK 924 INTRA-LIGAND FREE ENERGY PREDICTED BY IDOCK:    0.09 KCAL/MOL
REMARK 927      BINDING AFFINITY PREDICTED BY RF-SCORE:    0.00 PKD
ROOT
HETATM    1  N   UNL     1     -10.404  10.737  62.807  1.00  0.00    -0.764 NA 
HETATM    2  H2  UNL     1      -9.598  10.170  62.541  1.00  0.00     0.000 HD 
HETATM    3  C   UNL     1     -10.410  11.467  63.962  1.00  0.00    -0.355 C  
HETATM    4  H1  UNL     1     -11.238  10.784  62.223  1.00  0.00     0.000 HD 
HETATM    5  N   UNL     1      -9.350  11.408  64.703  1.00  0.00    -0.385 N  
HETATM    6  C   UNL     1      -9.288  12.119  65.875  1.00  0.00    -0.130 C  
HETATM    7  H   UNL     1      -8.559  10.831  64.415  1.00  0.00     0.000 HD 
HETATM    8  N   UNL     1     -10.450  12.778  66.328  1.00  0.00    -0.253 N  
HETATM    9  O   UNL     1      -8.239  12.159  66.512  1.00  0.00    -0.081 OA 
HETATM   10  C   UNL     1     -11.586  12.271  64.316  1.00  0.00    -0.442 C  
HETATM   11  C   UNL     1     -11.552  12.875  65.506  1.00  0.00    -0.358 C  
ENDROOT
BRANCH   8  12
HETATM   12  C   UNL     1     -10.319  13.474  67.612  1.00  0.00    -0.239 C  
HETATM   13  O   UNL     1     -10.080  12.471  68.630  1.00  0.00    -0.210 OA 
HETATM   14  C   UNL     1     -11.308  12.202  69.327  1.00  0.00    -0.266 C  
HETATM   15  C   UNL     1     -12.208  13.421  69.161  1.00  0.00    -0.165 C  
HETATM   16  F   UNL     1     -10.893  15.350  68.937  1.00  0.00    -0.221 F  
HETATM   17  C   UNL     1     -11.444  14.331  68.209  1.00  0.00    -0.304 C  
HETATM   18  O   UNL     1     -12.443  14.048  70.435  1.00  0.00    -0.336 OA 
HETATM   19  F   UNL     1     -12.266  14.919  67.321  1.00  0.00    -0.345 F  
HETATM   20  H   UNL     1     -13.004  14.807  70.332  1.00  0.00     0.000 HD 
BRANCH  14  21
HETATM   21  C   UNL     1     -11.931  10.940  68.712  1.00  0.00    -0.160 C  
HETATM   22  O   UNL     1     -12.894  10.379  69.600  1.00  0.00    -0.633 OA 
HETATM   23  H   UNL     1     -13.279   9.599  69.220  1.00  0.00     0.000 HD 
ENDBRANCH  14  21
ENDBRANCH   8  12
TORSDOF 2
ENDMDL
MODEL       57
REMARK 921   NORMALIZED FREE ENERGY PREDICTED BY IDOCK:   -4.82 KCAL/MOL
REMARK 922        TOTAL FREE ENERGY PREDICTED BY IDOCK:   -5.54 KCAL/MOL
REMARK 923 INTER-LIGAND FREE ENERGY PREDICTED BY IDOCK:   -6.37 KCAL/MOL
REMARK 924 INTRA-LIGAND FREE ENERGY PREDICTED BY IDOCK:    0.83 KCAL/MOL
REMARK 927      BINDING AFFINITY PREDICTED BY RF-SCORE:    0.00 PKD
ROOT
HETATM    1  N   UNL     1     -14.164   8.955  73.307  1.00  0.00    -1.237 NA 
HETATM    2  H2  UNL     1     -14.396   8.214  73.969  1.00  0.00     0.000 HD 
HETATM    3  C   UNL     1     -13.220   8.774  72.337  1.00  0.00    -0.394 C  
HETATM    4  H1  UNL     1     -14.629   9.863  73.340  1.00  0.00     0.000 HD 
HETATM    5  N   UNL     1     -12.630   7.623  72.295  1.00  0.00    -0.510 N  
HETATM    6  C   UNL     1     -11.673   7.373  71.344  1.00  0.00    -0.288 C  
HETATM    7  H   UNL     1     -12.878   6.899  72.970  1.00  0.00     0.000 HD 
HETATM    8  N   UNL     1     -11.237   8.438  70.528  1.00  0.00    -0.254 N  
HETATM    9  O   UNL     1     -11.206   6.243  71.228  1.00  0.00    -0.276 OA 
HETATM   10  C   UNL     1     -12.910   9.863  71.402  1.00  0.00    -0.505 C  
HETATM   11  C   UNL     1     -11.907   9.641  70.549  1.00  0.00    -0.215 C  
ENDROOT
BRANCH   8  12
HETATM   12  C   UNL     1     -10.176   8.104  69.571  1.00  0.00    -0.213 C  
HETATM   13  O   UNL     1      -9.568   9.347  69.143  1.00  0.00    -0.156 OA 
HETATM   14  C   UNL     1     -10.096   9.715  67.858  1.00  0.00    -0.181 C  
HETATM   15  C   UNL     1     -10.610   8.445  67.190  1.00  0.00    -0.256 C  
HETATM   16  F   UNL     1      -9.363   6.602  67.932  1.00  0.00    -0.116 F  
HETATM   17  C   UNL     1     -10.451   7.366  68.253  1.00  0.00    -0.189 C  
HETATM   18  O   UNL     1      -9.843   8.154  66.008  1.00  0.00    -0.456 OA 
HETATM   19  F   UNL     1     -11.500   6.524  68.263  1.00  0.00    -0.328 F  
HETATM   20  H   UNL     1     -10.164   7.363  65.591  1.00  0.00     0.000 HD 
BRANCH  14  21
HETATM   21  C   UNL     1     -11.218  10.738  68.086  1.00  0.00    -0.302 C  
HETATM   22  O   UNL     1     -11.596  11.343  66.852  1.00  0.00    -0.492 OA 
HETATM   23  H   UNL     1     -12.290  11.976  66.993  1.00  0.00     0.000 HD 
ENDBRANCH  14  21
ENDBRANCH   8  12
TORSDOF 2
ENDMDL
MODEL       58
REMARK 921   NORMALIZED FREE ENERGY PREDICTED BY IDOCK:   -4.81 KCAL/MOL
REMARK 922        TOTAL FREE ENERGY PREDICTED BY IDOCK:   -5.53 KCAL/MOL
REMARK 923 INTER-LIGAND FREE ENERGY PREDICTED BY IDOCK:   -5.42 KCAL/MOL
REMARK 924 INTRA-LIGAND FREE ENERGY PREDICTED BY IDOCK:   -0.11 KCAL/MOL
REMARK 927      BINDING AFFINITY PREDICTED BY RF-SCORE:    0.00 PKD
ROOT
HETATM    1  N   UNL     1      -9.590  21.138  67.103  1.00  0.00    -0.592 NA 
HETATM    2  H2  UNL     1      -9.183  21.694  66.350  1.00  0.00     0.000 HD 
HETATM    3  C   UNL     1      -9.321  19.805  67.228  1.00  0.00    -0.346 C  
HETATM    4  H1  UNL     1     -10.215  21.553  67.794  1.00  0.00     0.000 HD 
HETATM    5  N   UNL     1      -8.528  19.278  66.351  1.00  0.00    -0.324 N  
HETATM    6  C   UNL     1      -8.213  17.944  66.421  1.00  0.00    -0.255 C  
HETATM    7  H   UNL     1      -8.136  19.855  65.607  1.00  0.00     0.000 HD 
HETATM    8  N   UNL     1      -8.890  17.137  67.359  1.00  0.00    -0.210 N  
HETATM    9  O   UNL     1      -7.366  17.475  65.664  1.00  0.00    -0.436 OA 
HETATM   10  C   UNL     1      -9.925  19.033  68.322  1.00  0.00    -0.459 C  
HETATM   11  C   UNL     1      -9.691  17.719  68.316  1.00  0.00    -0.320 C  
ENDROOT
BRANCH   8  12
HETATM   12  C   UNL     1      -8.535  15.714  67.338  1.00  0.00    -0.172 C  
HETATM   13  O   UNL     1      -9.466  15.046  66.451  1.00  0.00    -0.260 OA 
HETATM   14  C   UNL     1     -10.482  14.397  67.234  1.00  0.00    -0.269 C  
HETATM   15  C   UNL     1      -9.908  14.155  68.625  1.00  0.00    -0.206 C  
HETATM   16  F   UNL     1      -7.583  13.874  68.482  1.00  0.00    -0.108 F  
HETATM   17  C   UNL     1      -8.546  14.838  68.598  1.00  0.00    -0.169 C  
HETATM   18  O   UNL     1      -9.797  12.744  68.884  1.00  0.00    -0.417 OA 
HETATM   19  F   UNL     1      -8.290  15.476  69.755  1.00  0.00    -0.245 F  
HETATM   20  H   UNL     1      -9.440  12.593  69.752  1.00  0.00     0.000 HD 
BRANCH  14  21
HETATM   21  C   UNL     1     -11.708  15.319  67.271  1.00  0.00    -0.078 C  
HETATM   22  O   UNL     1     -12.314  15.287  68.561  1.00  0.00    -0.557 OA 
HETATM   23  H   UNL     1     -13.073  15.858  68.584  1.00  0.00     0.000 HD 
ENDBRANCH  14  21
ENDBRANCH   8  12
TORSDOF 2
ENDMDL
MODEL       59
REMARK 921   NORMALIZED FREE ENERGY PREDICTED BY IDOCK:   -4.79 KCAL/MOL
REMARK 922        TOTAL FREE ENERGY PREDICTED BY IDOCK:   -5.51 KCAL/MOL
REMARK 923 INTER-LIGAND FREE ENERGY PREDICTED BY IDOCK:   -5.36 KCAL/MOL
REMARK 924 INTRA-LIGAND FREE ENERGY PREDICTED BY IDOCK:   -0.15 KCAL/MOL
REMARK 927      BINDING AFFINITY PREDICTED BY RF-SCORE:    0.00 PKD
ROOT
HETATM    1  N   UNL     1     -11.425  10.768  66.984  1.00  0.00    -0.297 NA 
HETATM    2  H2  UNL     1     -10.818   9.959  67.119  1.00  0.00     0.000 HD 
HETATM    3  C   UNL     1     -10.927  12.040  66.981  1.00  0.00    -0.274 C  
HETATM    4  H1  UNL     1     -12.430  10.662  66.845  1.00  0.00     0.000 HD 
HETATM    5  N   UNL     1      -9.651  12.174  67.157  1.00  0.00    -0.191 N  
HETATM    6  C   UNL     1      -9.084  13.424  67.162  1.00  0.00    -0.235 C  
HETATM    7  H   UNL     1      -9.066  11.349  67.292  1.00  0.00     0.000 HD 
HETATM    8  N   UNL     1      -9.932  14.551  67.133  1.00  0.00    -0.249 N  
HETATM    9  O   UNL     1      -7.863  13.541  67.206  1.00  0.00    -0.156 OA 
HETATM   10  C   UNL     1     -11.829  13.182  66.786  1.00  0.00    -0.444 C  
HETATM   11  C   UNL     1     -11.280  14.393  66.895  1.00  0.00    -0.334 C  
ENDROOT
BRANCH   8  12
HETATM   12  C   UNL     1      -9.254  15.851  67.192  1.00  0.00    -0.209 C  
HETATM   13  O   UNL     1      -8.985  16.139  68.587  1.00  0.00    -0.200 OA 
HETATM   14  C   UNL     1      -9.977  17.055  69.080  1.00  0.00    -0.269 C  
HETATM   15  C   UNL     1     -10.547  17.806  67.882  1.00  0.00    -0.382 C  
HETATM   16  F   UNL     1      -8.915  17.975  66.206  1.00  0.00    -0.275 F  
HETATM   17  C   UNL     1      -9.896  17.145  66.674  1.00  0.00    -0.289 C  
HETATM   18  O   UNL     1     -10.226  19.206  67.968  1.00  0.00    -0.363 OA 
HETATM   19  F   UNL     1     -10.768  16.999  65.660  1.00  0.00    -0.349 F  
HETATM   20  H   UNL     1     -10.582  19.674  67.222  1.00  0.00     0.000 HD 
BRANCH  14  21
HETATM   21  C   UNL     1     -11.052  16.237  69.809  1.00  0.00    -0.337 C  
HETATM   22  O   UNL     1     -10.461  15.125  70.477  1.00  0.00    -0.504 OA 
HETATM   23  H   UNL     1     -11.127  14.619  70.928  1.00  0.00     0.000 HD 
ENDBRANCH  14  21
ENDBRANCH   8  12
TORSDOF 2
ENDMDL
MODEL       60
REMARK 921   NORMALIZED FREE ENERGY PREDICTED BY IDOCK:   -4.76 KCAL/MOL
REMARK 922        TOTAL FREE ENERGY PREDICTED BY IDOCK:   -5.48 KCAL/MOL
REMARK 923 INTER-LIGAND FREE ENERGY PREDICTED BY IDOCK:   -5.41 KCAL/MOL
REMARK 924 INTRA-LIGAND FREE ENERGY PREDICTED BY IDOCK:   -0.06 KCAL/MOL
REMARK 927      BINDING AFFINITY PREDICTED BY RF-SCORE:    0.00 PKD
ROOT
HETATM    1  N   UNL     1     -12.409  13.977  63.372  1.00  0.00    -1.154 NA 
HETATM    2  H2  UNL     1     -12.844  13.860  62.457  1.00  0.00     0.000 HD 
HETATM    3  C   UNL     1     -11.454  13.111  63.823  1.00  0.00    -0.373 C  
HETATM    4  H1  UNL     1     -12.670  14.745  63.991  1.00  0.00     0.000 HD 
HETATM    5  N   UNL     1     -11.124  12.136  63.037  1.00  0.00    -0.645 N  
HETATM    6  C   UNL     1     -10.167  11.232  63.427  1.00  0.00    -0.403 C  
HETATM    7  H   UNL     1     -11.574  12.040  62.127  1.00  0.00     0.000 HD 
HETATM    8  N   UNL     1      -9.677  11.293  64.748  1.00  0.00    -0.248 N  
HETATM    9  O   UNL     1      -9.769  10.384  62.633  1.00  0.00    -0.298 OA 
HETATM   10  C   UNL     1     -10.851  13.307  65.147  1.00  0.00    -0.323 C  
HETATM   11  C   UNL     1      -9.999  12.363  65.553  1.00  0.00    -0.243 C  
ENDROOT
BRANCH   8  12
HETATM   12  C   UNL     1      -8.696  10.262  65.103  1.00  0.00    -0.175 C  
HETATM   13  O   UNL     1      -9.431   9.097  65.552  1.00  0.00    -0.250 OA 
HETATM   14  C   UNL     1      -9.430   9.062  66.989  1.00  0.00    -0.163 C  
HETATM   15  C   UNL     1      -8.229   9.869  67.469  1.00  0.00    -0.114 C  
HETATM   16  F   UNL     1      -6.515   9.759  65.871  1.00  0.00    -0.070 F  
HETATM   17  C   UNL     1      -7.639  10.465  66.198  1.00  0.00    -0.130 C  
HETATM   18  O   UNL     1      -7.291   9.015  68.149  1.00  0.00    -0.081 OA 
HETATM   19  F   UNL     1      -7.233  11.734  66.389  1.00  0.00    -0.083 F  
HETATM   20  H   UNL     1      -6.542   9.518  68.449  1.00  0.00     0.000 HD 
BRANCH  14  21
HETATM   21  C   UNL     1     -10.756   9.665  67.475  1.00  0.00    -0.256 C  
HETATM   22  O   UNL     1     -10.982   9.329  68.842  1.00  0.00    -0.405 OA 
HETATM   23  H   UNL     1     -11.803   9.702  69.142  1.00  0.00     0.000 HD 
ENDBRANCH  14  21
ENDBRANCH   8  12
TORSDOF 2
ENDMDL
MODEL       61
REMARK 921   NORMALIZED FREE ENERGY PREDICTED BY IDOCK:   -4.76 KCAL/MOL
REMARK 922        TOTAL FREE ENERGY PREDICTED BY IDOCK:   -5.47 KCAL/MOL
REMARK 923 INTER-LIGAND FREE ENERGY PREDICTED BY IDOCK:   -5.40 KCAL/MOL
REMARK 924 INTRA-LIGAND FREE ENERGY PREDICTED BY IDOCK:   -0.08 KCAL/MOL
REMARK 927      BINDING AFFINITY PREDICTED BY RF-SCORE:    0.00 PKD
ROOT
HETATM    1  N   UNL     1     -11.288   7.728  73.136  1.00  0.00    -0.558 NA 
HETATM    2  H2  UNL     1     -12.166   7.699  73.656  1.00  0.00     0.000 HD 
HETATM    3  C   UNL     1     -11.093   8.617  72.118  1.00  0.00    -0.364 C  
HETATM    4  H1  UNL     1     -10.518   7.095  73.355  1.00  0.00     0.000 HD 
HETATM    5  N   UNL     1     -12.069   9.420  71.840  1.00  0.00    -0.371 N  
HETATM    6  C   UNL     1     -11.938  10.340  70.830  1.00  0.00    -0.375 C  
HETATM    7  H   UNL     1     -12.938   9.370  72.373  1.00  0.00     0.000 HD 
HETATM    8  N   UNL     1     -10.794  10.284  70.007  1.00  0.00    -0.292 N  
HETATM    9  O   UNL     1     -12.816  11.180  70.651  1.00  0.00    -0.274 OA 
HETATM   10  C   UNL     1      -9.818   8.630  71.389  1.00  0.00    -0.327 C  
HETATM   11  C   UNL     1      -9.743   9.459  70.345  1.00  0.00    -0.261 C  
ENDROOT
BRANCH   8  12
HETATM   12  C   UNL     1     -10.751  11.267  68.920  1.00  0.00    -0.207 C  
HETATM   13  O   UNL     1     -11.539  10.740  67.824  1.00  0.00    -0.521 OA 
HETATM   14  C   UNL     1     -10.659  10.170  66.840  1.00  0.00    -0.200 C  
HETATM   15  C   UNL     1      -9.293  10.824  67.010  1.00  0.00    -0.156 C  
HETATM   16  F   UNL     1      -9.558  13.002  67.840  1.00  0.00    -0.188 F  
HETATM   17  C   UNL     1      -9.442  11.701  68.246  1.00  0.00    -0.191 C  
HETATM   18  O   UNL     1      -8.956  11.593  65.841  1.00  0.00    -0.306 OA 
HETATM   19  F   UNL     1      -8.343  11.655  69.021  1.00  0.00    -0.115 F  
HETATM   20  H   UNL     1      -8.104  12.001  65.946  1.00  0.00     0.000 HD 
BRANCH  14  21
HETATM   21  C   UNL     1     -10.603   8.654  67.081  1.00  0.00    -0.234 C  
HETATM   22  O   UNL     1      -9.910   8.008  66.016  1.00  0.00    -0.459 OA 
HETATM   23  H   UNL     1      -9.875   7.071  66.165  1.00  0.00     0.000 HD 
ENDBRANCH  14  21
ENDBRANCH   8  12
TORSDOF 2
ENDMDL
MODEL       62
REMARK 921   NORMALIZED FREE ENERGY PREDICTED BY IDOCK:   -4.75 KCAL/MOL
REMARK 922        TOTAL FREE ENERGY PREDICTED BY IDOCK:   -5.46 KCAL/MOL
REMARK 923 INTER-LIGAND FREE ENERGY PREDICTED BY IDOCK:   -5.36 KCAL/MOL
REMARK 924 INTRA-LIGAND FREE ENERGY PREDICTED BY IDOCK:   -0.10 KCAL/MOL
REMARK 927      BINDING AFFINITY PREDICTED BY RF-SCORE:    0.00 PKD
ROOT
HETATM    1  N   UNL     1     -11.658   9.115  71.929  1.00  0.00    -0.370 NA 
HETATM    2  H2  UNL     1     -10.942   8.561  72.400  1.00  0.00     0.000 HD 
HETATM    3  C   UNL     1     -11.357   9.899  70.851  1.00  0.00    -0.370 C  
HETATM    4  H1  UNL     1     -12.628   9.109  72.242  1.00  0.00     0.000 HD 
HETATM    5  N   UNL     1     -10.125   9.907  70.454  1.00  0.00    -0.363 N  
HETATM    6  C   UNL     1      -9.755  10.670  69.374  1.00  0.00    -0.116 C  
HETATM    7  H   UNL     1      -9.428   9.345  70.943  1.00  0.00     0.000 HD 
HETATM    8  N   UNL     1     -10.699  11.557  68.817  1.00  0.00    -0.204 N  
HETATM    9  O   UNL     1      -8.615  10.581  68.925  1.00  0.00    -0.137 OA 
HETATM   10  C   UNL     1     -12.410  10.687  70.199  1.00  0.00    -0.370 C  
HETATM   11  C   UNL     1     -12.017  11.501  69.217  1.00  0.00    -0.330 C  
ENDROOT
BRANCH   8  12
HETATM   12  C   UNL     1     -10.213  12.374  67.700  1.00  0.00    -0.207 C  
HETATM   13  O   UNL     1      -9.735  13.626  68.251  1.00  0.00    -0.223 OA 
HETATM   14  C   UNL     1     -10.739  14.638  68.066  1.00  0.00    -0.246 C  
HETATM   15  C   UNL     1     -11.621  14.204  66.901  1.00  0.00    -0.391 C  
HETATM   16  F   UNL     1     -10.367  12.909  65.400  1.00  0.00    -0.275 F  
HETATM   17  C   UNL     1     -11.117  12.813  66.540  1.00  0.00    -0.286 C  
HETATM   18  O   UNL     1     -11.492  15.126  65.803  1.00  0.00    -0.292 OA 
HETATM   19  F   UNL     1     -12.132  11.982  66.243  1.00  0.00    -0.401 F  
HETATM   20  H   UNL     1     -12.043  14.856  65.077  1.00  0.00     0.000 HD 
BRANCH  14  21
HETATM   21  C   UNL     1     -11.534  14.759  69.374  1.00  0.00    -0.301 C  
HETATM   22  O   UNL     1     -10.664  14.633  70.496  1.00  0.00    -0.481 OA 
HETATM   23  H   UNL     1     -11.156  14.708  71.305  1.00  0.00     0.000 HD 
ENDBRANCH  14  21
ENDBRANCH   8  12
TORSDOF 2
ENDMDL
MODEL       63
REMARK 921   NORMALIZED FREE ENERGY PREDICTED BY IDOCK:   -4.74 KCAL/MOL
REMARK 922        TOTAL FREE ENERGY PREDICTED BY IDOCK:   -5.46 KCAL/MOL
REMARK 923 INTER-LIGAND FREE ENERGY PREDICTED BY IDOCK:   -5.50 KCAL/MOL
REMARK 924 INTRA-LIGAND FREE ENERGY PREDICTED BY IDOCK:    0.05 KCAL/MOL
REMARK 927      BINDING AFFINITY PREDICTED BY RF-SCORE:    0.00 PKD
ROOT
HETATM    1  N   UNL     1      -7.413  10.311  70.267  1.00  0.00    -0.405 NA 
HETATM    2  H2  UNL     1      -6.710  10.777  70.841  1.00  0.00     0.000 HD 
HETATM    3  C   UNL     1      -7.969  10.927  69.183  1.00  0.00    -0.112 C  
HETATM    4  H1  UNL     1      -7.731   9.364  70.478  1.00  0.00     0.000 HD 
HETATM    5  N   UNL     1      -7.566  12.128  68.915  1.00  0.00    -0.292 N  
HETATM    6  C   UNL     1      -8.082  12.803  67.838  1.00  0.00    -0.159 C  
HETATM    7  H   UNL     1      -6.863  12.573  69.506  1.00  0.00     0.000 HD 
HETATM    8  N   UNL     1      -9.163  12.231  67.134  1.00  0.00    -0.190 N  
HETATM    9  O   UNL     1      -7.610  13.890  67.515  1.00  0.00    -0.165 OA 
HETATM   10  C   UNL     1      -8.981  10.228  68.379  1.00  0.00    -0.132 C  
HETATM   11  C   UNL     1      -9.546  10.934  67.398  1.00  0.00    -0.163 C  
ENDROOT
BRANCH   8  12
HETATM   12  C   UNL     1      -9.691  13.036  66.028  1.00  0.00    -0.216 C  
HETATM   13  O   UNL     1     -10.334  14.200  66.604  1.00  0.00    -0.270 OA 
HETATM   14  C   UNL     1     -11.755  13.989  66.634  1.00  0.00    -0.399 C  
HETATM   15  C   UNL     1     -12.090  12.950  65.570  1.00  0.00    -0.458 C  
HETATM   16  F   UNL     1     -10.536  13.086  63.818  1.00  0.00    -0.405 F  
HETATM   17  C   UNL     1     -10.735  12.501  65.038  1.00  0.00    -0.294 C  
HETATM   18  O   UNL     1     -12.907  13.533  64.539  1.00  0.00    -0.645 OA 
HETATM   19  F   UNL     1     -10.705  11.174  64.818  1.00  0.00    -0.357 F  
HETATM   20  H   UNL     1     -13.116  12.885  63.876  1.00  0.00     0.000 HD 
BRANCH  14  21
HETATM   21  C   UNL     1     -12.129  13.507  68.044  1.00  0.00    -0.262 C  
HETATM   22  O   UNL     1     -12.416  14.619  68.888  1.00  0.00    -0.576 OA 
HETATM   23  H   UNL     1     -12.647  14.321  69.759  1.00  0.00     0.000 HD 
ENDBRANCH  14  21
ENDBRANCH   8  12
TORSDOF 2
ENDMDL
MODEL       64
REMARK 921   NORMALIZED FREE ENERGY PREDICTED BY IDOCK:   -4.74 KCAL/MOL
REMARK 922        TOTAL FREE ENERGY PREDICTED BY IDOCK:   -5.45 KCAL/MOL
REMARK 923 INTER-LIGAND FREE ENERGY PREDICTED BY IDOCK:   -5.39 KCAL/MOL
REMARK 924 INTRA-LIGAND FREE ENERGY PREDICTED BY IDOCK:   -0.06 KCAL/MOL
REMARK 927      BINDING AFFINITY PREDICTED BY RF-SCORE:    0.00 PKD
ROOT
HETATM    1  N   UNL     1      -6.855  18.360  65.422  1.00  0.00    -0.524 NA 
HETATM    2  H2  UNL     1      -5.936  18.046  65.108  1.00  0.00     0.000 HD 
HETATM    3  C   UNL     1      -7.540  17.693  66.397  1.00  0.00    -0.287 C  
HETATM    4  H1  UNL     1      -7.301  19.185  65.020  1.00  0.00     0.000 HD 
HETATM    5  N   UNL     1      -6.974  16.647  66.906  1.00  0.00    -0.208 N  
HETATM    6  C   UNL     1      -7.607  15.932  67.893  1.00  0.00    -0.133 C  
HETATM    7  H   UNL     1      -6.056  16.352  66.574  1.00  0.00     0.000 HD 
HETATM    8  N   UNL     1      -8.938  16.265  68.220  1.00  0.00    -0.188 N  
HETATM    9  O   UNL     1      -7.017  15.016  68.458  1.00  0.00    -0.099 OA 
HETATM   10  C   UNL     1      -8.862  18.171  66.823  1.00  0.00    -0.273 C  
HETATM   11  C   UNL     1      -9.508  17.410  67.708  1.00  0.00    -0.261 C  
ENDROOT
BRANCH   8  12
HETATM   12  C   UNL     1      -9.562  15.424  69.248  1.00  0.00    -0.268 C  
HETATM   13  O   UNL     1     -10.011  14.207  68.602  1.00  0.00    -0.232 OA 
HETATM   14  C   UNL     1     -11.423  14.298  68.350  1.00  0.00    -0.301 C  
HETATM   15  C   UNL     1     -12.002  15.311  69.332  1.00  0.00    -0.315 C  
HETATM   16  F   UNL     1     -10.730  15.316  71.303  1.00  0.00    -0.362 F  
HETATM   17  C   UNL     1     -10.786  15.875  70.056  1.00  0.00    -0.353 C  
HETATM   18  O   UNL     1     -12.917  14.667  70.236  1.00  0.00    -0.549 OA 
HETATM   19  F   UNL     1     -10.900  17.201  70.254  1.00  0.00    -0.222 F  
HETATM   20  H   UNL     1     -13.278  15.298  70.848  1.00  0.00     0.000 HD 
BRANCH  14  21
HETATM   21  C   UNL     1     -11.614  14.739  66.892  1.00  0.00    -0.327 C  
HETATM   22  O   UNL     1     -12.820  14.194  66.363  1.00  0.00    -0.490 OA 
HETATM   23  H   UNL     1     -12.938  14.467  65.461  1.00  0.00     0.000 HD 
ENDBRANCH  14  21
ENDBRANCH   8  12
TORSDOF 2
ENDMDL
MODEL       65
REMARK 921   NORMALIZED FREE ENERGY PREDICTED BY IDOCK:   -4.72 KCAL/MOL
REMARK 922        TOTAL FREE ENERGY PREDICTED BY IDOCK:   -5.43 KCAL/MOL
REMARK 923 INTER-LIGAND FREE ENERGY PREDICTED BY IDOCK:   -5.37 KCAL/MOL
REMARK 924 INTRA-LIGAND FREE ENERGY PREDICTED BY IDOCK:   -0.06 KCAL/MOL
REMARK 927      BINDING AFFINITY PREDICTED BY RF-SCORE:    0.00 PKD
ROOT
HETATM    1  N   UNL     1     -11.302  16.690  69.467  1.00  0.00    -0.287 NA 
HETATM    2  H2  UNL     1     -12.133  17.273  69.365  1.00  0.00     0.000 HD 
HETATM    3  C   UNL     1     -11.099  15.596  68.675  1.00  0.00    -0.317 C  
HETATM    4  H1  UNL     1     -10.587  16.898  70.165  1.00  0.00     0.000 HD 
HETATM    5  N   UNL     1     -12.006  15.332  67.789  1.00  0.00    -0.383 N  
HETATM    6  C   UNL     1     -11.863  14.249  66.958  1.00  0.00    -0.428 C  
HETATM    7  H   UNL     1     -12.829  15.930  67.709  1.00  0.00     0.000 HD 
HETATM    8  N   UNL     1     -10.802  13.351  67.194  1.00  0.00    -0.274 N  
HETATM    9  O   UNL     1     -12.661  14.073  66.041  1.00  0.00    -0.481 OA 
HETATM   10  C   UNL     1      -9.894  14.776  68.849  1.00  0.00    -0.222 C  
HETATM   11  C   UNL     1      -9.819  13.670  68.105  1.00  0.00    -0.236 C  
ENDROOT
BRANCH   8  12
HETATM   12  C   UNL     1     -10.746  12.192  66.296  1.00  0.00    -0.261 C  
HETATM   13  O   UNL     1     -11.753  11.249  66.738  1.00  0.00    -0.418 OA 
HETATM   14  C   UNL     1     -11.123  10.211  67.507  1.00  0.00    -0.181 C  
HETATM   15  C   UNL     1      -9.657  10.155  67.093  1.00  0.00    -0.169 C  
HETATM   16  F   UNL     1      -9.441  10.839  64.860  1.00  0.00    -0.208 F  
HETATM   17  C   UNL     1      -9.488  11.328  66.136  1.00  0.00    -0.208 C  
HETATM   18  O   UNL     1      -9.361   8.897  66.461  1.00  0.00    -0.165 OA 
HETATM   19  F   UNL     1      -8.316  11.960  66.331  1.00  0.00    -0.173 F  
HETATM   20  H   UNL     1      -8.447   8.862  66.204  1.00  0.00     0.000 HD 
BRANCH  14  21
HETATM   21  C   UNL     1     -11.287  10.560  68.993  1.00  0.00    -0.257 C  
HETATM   22  O   UNL     1     -12.657  10.471  69.375  1.00  0.00    -0.701 OA 
HETATM   23  H   UNL     1     -12.758  10.687  70.295  1.00  0.00     0.000 HD 
ENDBRANCH  14  21
ENDBRANCH   8  12
TORSDOF 2
ENDMDL
MODEL       66
REMARK 921   NORMALIZED FREE ENERGY PREDICTED BY IDOCK:   -4.69 KCAL/MOL
REMARK 922        TOTAL FREE ENERGY PREDICTED BY IDOCK:   -5.40 KCAL/MOL
REMARK 923 INTER-LIGAND FREE ENERGY PREDICTED BY IDOCK:   -5.25 KCAL/MOL
REMARK 924 INTRA-LIGAND FREE ENERGY PREDICTED BY IDOCK:   -0.15 KCAL/MOL
REMARK 927      BINDING AFFINITY PREDICTED BY RF-SCORE:    0.00 PKD
ROOT
HETATM    1  N   UNL     1     -13.802   9.040  73.208  1.00  0.00    -1.163 NA 
HETATM    2  H2  UNL     1     -14.194   8.298  73.789  1.00  0.00     0.000 HD 
HETATM    3  C   UNL     1     -12.954   8.762  72.174  1.00  0.00    -0.406 C  
HETATM    4  H1  UNL     1     -14.027  10.021  73.375  1.00  0.00     0.000 HD 
HETATM    5  N   UNL     1     -12.670   7.517  71.963  1.00  0.00    -0.463 N  
HETATM    6  C   UNL     1     -11.827   7.168  70.938  1.00  0.00    -0.339 C  
HETATM    7  H   UNL     1     -13.073   6.794  72.559  1.00  0.00     0.000 HD 
HETATM    8  N   UNL     1     -11.159   8.191  70.232  1.00  0.00    -0.248 N  
HETATM    9  O   UNL     1     -11.656   5.983  70.663  1.00  0.00    -0.261 OA 
HETATM   10  C   UNL     1     -12.406   9.855  71.360  1.00  0.00    -0.498 C  
HETATM   11  C   UNL     1     -11.510   9.508  70.434  1.00  0.00    -0.242 C  
ENDROOT
BRANCH   8  12
HETATM   12  C   UNL     1     -10.237   7.736  69.186  1.00  0.00    -0.208 C  
HETATM   13  O   UNL     1      -8.960   7.472  69.815  1.00  0.00    -0.141 OA 
HETATM   14  C   UNL     1      -8.079   8.584  69.585  1.00  0.00    -0.113 C  
HETATM   15  C   UNL     1      -8.572   9.312  68.340  1.00  0.00    -0.124 C  
HETATM   16  F   UNL     1      -9.626   7.788  66.900  1.00  0.00    -0.181 F  
HETATM   17  C   UNL     1      -9.869   8.601  67.973  1.00  0.00    -0.169 C  
HETATM   18  O   UNL     1      -7.594   9.225  67.287  1.00  0.00    -0.091 OA 
HETATM   19  F   UNL     1     -10.812   9.472  67.568  1.00  0.00    -0.320 F  
HETATM   20  H   UNL     1      -7.901   9.679  66.511  1.00  0.00     0.000 HD 
BRANCH  14  21
HETATM   21  C   UNL     1      -8.121   9.483  70.829  1.00  0.00    -0.035 C  
HETATM   22  O   UNL     1      -8.250   8.693  72.008  1.00  0.00    -0.250 OA 
HETATM   23  H   UNL     1      -8.276   9.250  72.777  1.00  0.00     0.000 HD 
ENDBRANCH  14  21
ENDBRANCH   8  12
TORSDOF 2
ENDMDL
MODEL       67
REMARK 921   NORMALIZED FREE ENERGY PREDICTED BY IDOCK:   -4.68 KCAL/MOL
REMARK 922        TOTAL FREE ENERGY PREDICTED BY IDOCK:   -5.38 KCAL/MOL
REMARK 923 INTER-LIGAND FREE ENERGY PREDICTED BY IDOCK:   -5.47 KCAL/MOL
REMARK 924 INTRA-LIGAND FREE ENERGY PREDICTED BY IDOCK:    0.09 KCAL/MOL
REMARK 927      BINDING AFFINITY PREDICTED BY RF-SCORE:    0.00 PKD
ROOT
HETATM    1  N   UNL     1      -9.937   9.415  65.603  1.00  0.00    -0.410 NA 
HETATM    2  H2  UNL     1     -10.135   8.918  64.733  1.00  0.00     0.000 HD 
HETATM    3  C   UNL     1     -10.102   8.814  66.818  1.00  0.00    -0.288 C  
HETATM    4  H1  UNL     1      -9.609  10.380  65.601  1.00  0.00     0.000 HD 
HETATM    5  N   UNL     1     -10.518   7.588  66.820  1.00  0.00    -0.476 N  
HETATM    6  C   UNL     1     -10.701   6.925  68.007  1.00  0.00    -0.218 C  
HETATM    7  H   UNL     1     -10.710   7.115  65.937  1.00  0.00     0.000 HD 
HETATM    8  N   UNL     1     -10.583   7.648  69.212  1.00  0.00    -0.220 N  
HETATM    9  O   UNL     1     -10.977   5.728  68.002  1.00  0.00    -0.230 OA 
HETATM   10  C   UNL     1      -9.811   9.559  68.050  1.00  0.00    -0.181 C  
HETATM   11  C   UNL     1     -10.091   8.935  69.197  1.00  0.00    -0.197 C  
ENDROOT
BRANCH   8  12
HETATM   12  C   UNL     1     -10.843   6.882  70.435  1.00  0.00    -0.261 C  
HETATM   13  O   UNL     1     -12.173   7.229  70.893  1.00  0.00    -0.320 OA 
HETATM   14  C   UNL     1     -12.069   8.186  71.962  1.00  0.00    -0.340 C  
HETATM   15  C   UNL     1     -10.686   8.034  72.584  1.00  0.00    -0.358 C  
HETATM   16  F   UNL     1      -9.955   5.817  72.353  1.00  0.00    -0.176 F  
HETATM   17  C   UNL     1      -9.980   7.017  71.697  1.00  0.00    -0.178 C  
HETATM   18  O   UNL     1     -10.795   7.579  73.945  1.00  0.00    -0.534 OA 
HETATM   19  F   UNL     1      -8.692   7.350  71.492  1.00  0.00    -0.116 F  
HETATM   20  H   UNL     1      -9.933   7.485  74.333  1.00  0.00     0.000 HD 
BRANCH  14  21
HETATM   21  C   UNL     1     -12.279   9.584  71.364  1.00  0.00    -0.371 C  
HETATM   22  O   UNL     1     -13.564   9.675  70.753  1.00  0.00    -0.596 OA 
HETATM   23  H   UNL     1     -13.694  10.540  70.383  1.00  0.00     0.000 HD 
ENDBRANCH  14  21
ENDBRANCH   8  12
TORSDOF 2
ENDMDL
MODEL       68
REMARK 921   NORMALIZED FREE ENERGY PREDICTED BY IDOCK:   -4.58 KCAL/MOL
REMARK 922        TOTAL FREE ENERGY PREDICTED BY IDOCK:   -5.27 KCAL/MOL
REMARK 923 INTER-LIGAND FREE ENERGY PREDICTED BY IDOCK:   -5.37 KCAL/MOL
REMARK 924 INTRA-LIGAND FREE ENERGY PREDICTED BY IDOCK:    0.10 KCAL/MOL
REMARK 927      BINDING AFFINITY PREDICTED BY RF-SCORE:    0.00 PKD
ROOT
HETATM    1  N   UNL     1      -8.114   8.920  69.545  1.00  0.00    -0.098 NA 
HETATM    2  H2  UNL     1      -8.516   8.232  70.182  1.00  0.00     0.000 HD 
HETATM    3  C   UNL     1      -8.892   9.855  68.924  1.00  0.00    -0.145 C  
HETATM    4  H1  UNL     1      -7.114   8.940  69.344  1.00  0.00     0.000 HD 
HETATM    5  N   UNL     1     -10.161   9.830  69.178  1.00  0.00    -0.188 N  
HETATM    6  C   UNL     1     -11.000  10.743  68.590  1.00  0.00    -0.239 C  
HETATM    7  H   UNL     1     -10.539   9.130  69.818  1.00  0.00     0.000 HD 
HETATM    8  N   UNL     1     -10.481  11.594  67.592  1.00  0.00    -0.187 N  
HETATM    9  O   UNL     1     -12.180  10.795  68.928  1.00  0.00    -0.447 OA 
HETATM   10  C   UNL     1      -8.282  10.829  68.010  1.00  0.00    -0.115 C  
HETATM   11  C   UNL     1      -9.122  11.644  67.369  1.00  0.00    -0.169 C  
ENDROOT
BRANCH   8  12
HETATM   12  C   UNL     1     -11.450  12.507  66.976  1.00  0.00    -0.356 C  
HETATM   13  O   UNL     1     -11.829  11.941  65.697  1.00  0.00    -0.398 OA 
HETATM   14  C   UNL     1     -11.101  12.608  64.652  1.00  0.00    -0.313 C  
HETATM   15  C   UNL     1     -10.683  13.975  65.180  1.00  0.00    -0.382 C  
HETATM   16  F   UNL     1     -12.249  14.723  66.758  1.00  0.00    -0.360 F  
HETATM   17  C   UNL     1     -11.116  13.966  66.640  1.00  0.00    -0.306 C  
HETATM   18  O   UNL     1     -11.331  15.021  64.432  1.00  0.00    -0.615 OA 
HETATM   19  F   UNL     1     -10.199  14.553  67.431  1.00  0.00    -0.235 F  
HETATM   20  H   UNL     1     -11.070  15.873  64.761  1.00  0.00     0.000 HD 
BRANCH  14  21
HETATM   21  C   UNL     1      -9.888  11.736  64.293  1.00  0.00    -0.206 C  
HETATM   22  O   UNL     1      -9.424  12.047  62.983  1.00  0.00    -0.610 OA 
HETATM   23  H   UNL     1      -8.674  11.508  62.761  1.00  0.00     0.000 HD 
ENDBRANCH  14  21
ENDBRANCH   8  12
TORSDOF 2
ENDMDL
MODEL       69
REMARK 921   NORMALIZED FREE ENERGY PREDICTED BY IDOCK:   -4.56 KCAL/MOL
REMARK 922        TOTAL FREE ENERGY PREDICTED BY IDOCK:   -5.26 KCAL/MOL
REMARK 923 INTER-LIGAND FREE ENERGY PREDICTED BY IDOCK:   -5.13 KCAL/MOL
REMARK 924 INTRA-LIGAND FREE ENERGY PREDICTED BY IDOCK:   -0.13 KCAL/MOL
REMARK 927      BINDING AFFINITY PREDICTED BY RF-SCORE:    0.00 PKD
ROOT
HETATM    1  N   UNL     1      -7.776   3.464  69.644  1.00  0.00    -0.050 NA 
HETATM    2  H2  UNL     1      -7.379   3.366  68.709  1.00  0.00     0.000 HD 
HETATM    3  C   UNL     1      -8.848   4.275  69.881  1.00  0.00    -0.081 C  
HETATM    4  H1  UNL     1      -7.389   2.959  70.442  1.00  0.00     0.000 HD 
HETATM    5  N   UNL     1      -9.339   4.915  68.869  1.00  0.00    -0.120 N  
HETATM    6  C   UNL     1     -10.419   5.745  69.037  1.00  0.00    -0.266 C  
HETATM    7  H   UNL     1      -8.923   4.802  67.944  1.00  0.00     0.000 HD 
HETATM    8  N   UNL     1     -10.874   6.008  70.346  1.00  0.00    -0.295 N  
HETATM    9  O   UNL     1     -10.958   6.253  68.057  1.00  0.00    -0.307 OA 
HETATM   10  C   UNL     1      -9.393   4.395  71.240  1.00  0.00    -0.210 C  
HETATM   11  C   UNL     1     -10.375   5.282  71.406  1.00  0.00    -0.221 C  
ENDROOT
BRANCH   8  12
HETATM   12  C   UNL     1     -11.999   6.944  70.446  1.00  0.00    -0.258 C  
HETATM   13  O   UNL     1     -11.465   8.283  70.308  1.00  0.00    -0.201 OA 
HETATM   14  C   UNL     1     -11.340   8.879  71.610  1.00  0.00    -0.337 C  
HETATM   15  C   UNL     1     -12.312   8.164  72.540  1.00  0.00    -0.242 C  
HETATM   16  F   UNL     1     -14.155   7.391  71.312  1.00  0.00    -0.467 F  
HETATM   17  C   UNL     1     -12.890   7.038  71.692  1.00  0.00    -0.364 C  
HETATM   18  O   UNL     1     -13.331   9.072  72.996  1.00  0.00    -0.847 OA 
HETATM   19  F   UNL     1     -13.023   5.903  72.403  1.00  0.00    -0.249 F  
HETATM   20  H   UNL     1     -13.937   8.626  73.577  1.00  0.00     0.000 HD 
BRANCH  14  21
HETATM   21  C   UNL     1      -9.883   8.713  72.065  1.00  0.00    -0.325 C  
HETATM   22  O   UNL     1      -9.825   7.972  73.281  1.00  0.00    -0.291 OA 
HETATM   23  H   UNL     1      -8.923   7.869  73.563  1.00  0.00     0.000 HD 
ENDBRANCH  14  21
ENDBRANCH   8  12
TORSDOF 2
ENDMDL
MODEL       70
REMARK 921   NORMALIZED FREE ENERGY PREDICTED BY IDOCK:   -4.53 KCAL/MOL
REMARK 922        TOTAL FREE ENERGY PREDICTED BY IDOCK:   -5.22 KCAL/MOL
REMARK 923 INTER-LIGAND FREE ENERGY PREDICTED BY IDOCK:   -5.41 KCAL/MOL
REMARK 924 INTRA-LIGAND FREE ENERGY PREDICTED BY IDOCK:    0.19 KCAL/MOL
REMARK 927      BINDING AFFINITY PREDICTED BY RF-SCORE:    0.00 PKD
ROOT
HETATM    1  N   UNL     1     -12.029  12.235  67.854  1.00  0.00    -0.480 NA 
HETATM    2  H2  UNL     1     -11.372  12.486  67.115  1.00  0.00     0.000 HD 
HETATM    3  C   UNL     1     -11.683  11.365  68.848  1.00  0.00    -0.343 C  
HETATM    4  H1  UNL     1     -12.972  12.623  67.883  1.00  0.00     0.000 HD 
HETATM    5  N   UNL     1     -10.487  10.872  68.812  1.00  0.00    -0.190 N  
HETATM    6  C   UNL     1     -10.074   9.994  69.783  1.00  0.00    -0.248 C  
HETATM    7  H   UNL     1      -9.849  11.137  68.061  1.00  0.00     0.000 HD 
HETATM    8  N   UNL     1     -11.021   9.523  70.716  1.00  0.00    -0.292 N  
HETATM    9  O   UNL     1      -8.902   9.625  69.815  1.00  0.00    -0.176 OA 
HETATM   10  C   UNL     1     -12.654  11.024  69.896  1.00  0.00    -0.202 C  
HETATM   11  C   UNL     1     -12.274  10.093  70.773  1.00  0.00    -0.338 C  
ENDROOT
BRANCH   8  12
HETATM   12  C   UNL     1     -10.515   8.549  71.689  1.00  0.00    -0.275 C  
HETATM   13  O   UNL     1      -9.949   7.442  70.946  1.00  0.00    -0.185 OA 
HETATM   14  C   UNL     1     -10.894   6.360  70.917  1.00  0.00    -0.263 C  
HETATM   15  C   UNL     1     -11.830   6.533  72.107  1.00  0.00    -0.305 C  
HETATM   16  F   UNL     1     -10.694   7.610  73.854  1.00  0.00    -0.346 F  
HETATM   17  C   UNL     1     -11.419   7.864  72.723  1.00  0.00    -0.368 C  
HETATM   18  O   UNL     1     -11.673   5.440  73.032  1.00  0.00    -0.503 OA 
HETATM   19  F   UNL     1     -12.489   8.574  73.125  1.00  0.00    -0.302 F  
HETATM   20  H   UNL     1     -12.257   5.548  73.774  1.00  0.00     0.000 HD 
BRANCH  14  21
HETATM   21  C   UNL     1     -11.648   6.428  69.580  1.00  0.00    -0.282 C  
HETATM   22  O   UNL     1     -10.796   6.935  68.556  1.00  0.00    -0.309 OA 
HETATM   23  H   UNL     1     -11.262   6.977  67.730  1.00  0.00     0.000 HD 
ENDBRANCH  14  21
ENDBRANCH   8  12
TORSDOF 2
ENDMDL
MODEL       71
REMARK 921   NORMALIZED FREE ENERGY PREDICTED BY IDOCK:   -4.51 KCAL/MOL
REMARK 922        TOTAL FREE ENERGY PREDICTED BY IDOCK:   -5.20 KCAL/MOL
REMARK 923 INTER-LIGAND FREE ENERGY PREDICTED BY IDOCK:   -5.09 KCAL/MOL
REMARK 924 INTRA-LIGAND FREE ENERGY PREDICTED BY IDOCK:   -0.11 KCAL/MOL
REMARK 927      BINDING AFFINITY PREDICTED BY RF-SCORE:    0.00 PKD
ROOT
HETATM    1  N   UNL     1      -5.488  16.752  69.479  1.00  0.00    -0.149 NA 
HETATM    2  H2  UNL     1      -5.311  17.555  70.084  1.00  0.00     0.000 HD 
HETATM    3  C   UNL     1      -6.657  16.628  68.785  1.00  0.00    -0.169 C  
HETATM    4  H1  UNL     1      -4.799  16.009  69.366  1.00  0.00     0.000 HD 
HETATM    5  N   UNL     1      -7.531  17.573  68.928  1.00  0.00    -0.257 N  
HETATM    6  C   UNL     1      -8.727  17.512  68.257  1.00  0.00    -0.270 C  
HETATM    7  H   UNL     1      -7.331  18.363  69.541  1.00  0.00     0.000 HD 
HETATM    8  N   UNL     1      -9.044  16.337  67.545  1.00  0.00    -0.192 N  
HETATM    9  O   UNL     1      -9.500  18.465  68.298  1.00  0.00    -0.299 OA 
HETATM   10  C   UNL     1      -6.881  15.459  67.925  1.00  0.00    -0.166 C  
HETATM   11  C   UNL     1      -8.086  15.364  67.360  1.00  0.00    -0.180 C  
ENDROOT
BRANCH   8  12
HETATM   12  C   UNL     1     -10.360  16.329  66.897  1.00  0.00    -0.299 C  
HETATM   13  O   UNL     1     -11.354  16.126  67.931  1.00  0.00    -0.294 OA 
HETATM   14  C   UNL     1     -11.762  14.747  67.931  1.00  0.00    -0.341 C  
HETATM   15  C   UNL     1     -11.470  14.180  66.546  1.00  0.00    -0.358 C  
HETATM   16  F   UNL     1     -11.624  15.888  64.945  1.00  0.00    -0.282 F  
HETATM   17  C   UNL     1     -10.747  15.307  65.819  1.00  0.00    -0.348 C  
HETATM   18  O   UNL     1     -12.695  13.811  65.886  1.00  0.00    -0.467 OA 
HETATM   19  F   UNL     1      -9.734  14.839  65.066  1.00  0.00    -0.336 F  
HETATM   20  H   UNL     1     -12.513  13.458  65.023  1.00  0.00     0.000 HD 
BRANCH  14  21
HETATM   21  C   UNL     1     -10.968  14.021  69.026  1.00  0.00    -0.259 C  
HETATM   22  O   UNL     1     -10.917  14.814  70.209  1.00  0.00    -0.421 OA 
HETATM   23  H   UNL     1     -10.426  14.366  70.887  1.00  0.00     0.000 HD 
ENDBRANCH  14  21
ENDBRANCH   8  12
TORSDOF 2
ENDMDL
MODEL       72
REMARK 921   NORMALIZED FREE ENERGY PREDICTED BY IDOCK:   -4.51 KCAL/MOL
REMARK 922        TOTAL FREE ENERGY PREDICTED BY IDOCK:   -5.19 KCAL/MOL
REMARK 923 INTER-LIGAND FREE ENERGY PREDICTED BY IDOCK:   -5.10 KCAL/MOL
REMARK 924 INTRA-LIGAND FREE ENERGY PREDICTED BY IDOCK:   -0.09 KCAL/MOL
REMARK 927      BINDING AFFINITY PREDICTED BY RF-SCORE:    0.00 PKD
ROOT
HETATM    1  N   UNL     1     -13.251  14.583  70.857  1.00  0.00    -0.420 NA 
HETATM    2  H2  UNL     1     -13.891  13.873  70.499  1.00  0.00     0.000 HD 
HETATM    3  C   UNL     1     -12.344  15.199  70.043  1.00  0.00    -0.315 C  
HETATM    4  H1  UNL     1     -13.261  14.862  71.838  1.00  0.00     0.000 HD 
HETATM    5  N   UNL     1     -12.332  14.845  68.798  1.00  0.00    -0.594 N  
HETATM    6  C   UNL     1     -11.448  15.427  67.925  1.00  0.00    -0.299 C  
HETATM    7  H   UNL     1     -12.982  14.132  68.465  1.00  0.00     0.000 HD 
HETATM    8  N   UNL     1     -10.458  16.290  68.439  1.00  0.00    -0.268 N  
HETATM    9  O   UNL     1     -11.522  15.179  66.724  1.00  0.00    -0.303 OA 
HETATM   10  C   UNL     1     -11.435  16.214  70.592  1.00  0.00    -0.386 C  
HETATM   11  C   UNL     1     -10.514  16.696  69.755  1.00  0.00    -0.182 C  
ENDROOT
BRANCH   8  12
HETATM   12  C   UNL     1      -9.520  16.832  67.451  1.00  0.00    -0.236 C  
HETATM   13  O   UNL     1      -8.388  15.931  67.384  1.00  0.00    -0.155 OA 
HETATM   14  C   UNL     1      -7.304  16.474  68.157  1.00  0.00    -0.160 C  
HETATM   15  C   UNL     1      -7.518  17.980  68.256  1.00  0.00    -0.266 C  
HETATM   16  F   UNL     1      -8.657  18.743  66.352  1.00  0.00    -0.277 F  
HETATM   17  C   UNL     1      -8.870  18.216  67.596  1.00  0.00    -0.252 C  
HETATM   18  O   UNL     1      -6.459  18.683  67.581  1.00  0.00    -0.201 OA 
HETATM   19  F   UNL     1      -9.593  19.133  68.264  1.00  0.00    -0.327 F  
HETATM   20  H   UNL     1      -6.592  19.622  67.643  1.00  0.00     0.000 HD 
BRANCH  14  21
HETATM   21  C   UNL     1      -7.326  15.799  69.536  1.00  0.00    -0.186 C  
HETATM   22  O   UNL     1      -7.450  14.387  69.395  1.00  0.00    -0.276 OA 
HETATM   23  H   UNL     1      -7.463  13.970  70.248  1.00  0.00     0.000 HD 
ENDBRANCH  14  21
ENDBRANCH   8  12
TORSDOF 2
ENDMDL
MODEL       73
REMARK 921   NORMALIZED FREE ENERGY PREDICTED BY IDOCK:   -4.50 KCAL/MOL
REMARK 922        TOTAL FREE ENERGY PREDICTED BY IDOCK:   -5.19 KCAL/MOL
REMARK 923 INTER-LIGAND FREE ENERGY PREDICTED BY IDOCK:   -5.08 KCAL/MOL
REMARK 924 INTRA-LIGAND FREE ENERGY PREDICTED BY IDOCK:   -0.10 KCAL/MOL
REMARK 927      BINDING AFFINITY PREDICTED BY RF-SCORE:    0.00 PKD
ROOT
HETATM    1  N   UNL     1      -5.181  19.445  62.523  1.00  0.00    -0.293 NA 
HETATM    2  H2  UNL     1      -4.634  18.694  62.104  1.00  0.00     0.000 HD 
HETATM    3  C   UNL     1      -5.697  19.333  63.783  1.00  0.00    -0.263 C  
HETATM    4  H1  UNL     1      -5.368  20.313  62.020  1.00  0.00     0.000 HD 
HETATM    5  N   UNL     1      -5.460  18.232  64.422  1.00  0.00     0.041 N  
HETATM    6  C   UNL     1      -5.946  18.056  65.693  1.00  0.00    -0.191 C  
HETATM    7  H   UNL     1      -4.912  17.495  63.979  1.00  0.00     0.000 HD 
HETATM    8  N   UNL     1      -6.832  19.019  66.219  1.00  0.00    -0.209 N  
HETATM    9  O   UNL     1      -5.618  17.065  66.341  1.00  0.00    -0.305 OA 
HETATM   10  C   UNL     1      -6.483  20.434  64.356  1.00  0.00    -0.282 C  
HETATM   11  C   UNL     1      -7.034  20.207  65.550  1.00  0.00    -0.304 C  
ENDROOT
BRANCH   8  12
HETATM   12  C   UNL     1      -7.347  18.735  67.562  1.00  0.00    -0.223 C  
HETATM   13  O   UNL     1      -8.455  17.813  67.418  1.00  0.00    -0.222 OA 
HETATM   14  C   UNL     1      -9.691  18.542  67.506  1.00  0.00    -0.300 C  
HETATM   15  C   UNL     1      -9.413  19.830  68.271  1.00  0.00    -0.346 C  
HETATM   16  F   UNL     1      -7.655  19.485  69.785  1.00  0.00    -0.263 F  
HETATM   17  C   UNL     1      -7.905  19.827  68.485  1.00  0.00    -0.275 C  
HETATM   18  O   UNL     1     -10.134  19.840  69.517  1.00  0.00    -0.577 OA 
HETATM   19  F   UNL     1      -7.380  21.055  68.321  1.00  0.00    -0.124 F  
HETATM   20  H   UNL     1      -9.961  20.643  69.994  1.00  0.00     0.000 HD 
BRANCH  14  21
HETATM   21  C   UNL     1     -10.178  18.818  66.076  1.00  0.00    -0.372 C  
HETATM   22  O   UNL     1     -10.250  17.603  65.334  1.00  0.00    -0.576 OA 
HETATM   23  H   UNL     1     -10.551  17.774  64.449  1.00  0.00     0.000 HD 
ENDBRANCH  14  21
ENDBRANCH   8  12
TORSDOF 2
ENDMDL
MODEL       74
REMARK 921   NORMALIZED FREE ENERGY PREDICTED BY IDOCK:   -4.46 KCAL/MOL
REMARK 922        TOTAL FREE ENERGY PREDICTED BY IDOCK:   -5.14 KCAL/MOL
REMARK 923 INTER-LIGAND FREE ENERGY PREDICTED BY IDOCK:   -4.97 KCAL/MOL
REMARK 924 INTRA-LIGAND FREE ENERGY PREDICTED BY IDOCK:   -0.17 KCAL/MOL
REMARK 927      BINDING AFFINITY PREDICTED BY RF-SCORE:    0.00 PKD
ROOT
HETATM    1  N   UNL     1     -11.191   6.580  67.392  1.00  0.00    -0.702 NA 
HETATM    2  H2  UNL     1     -11.718   6.128  68.140  1.00  0.00     0.000 HD 
HETATM    3  C   UNL     1     -10.737   7.862  67.516  1.00  0.00    -0.181 C  
HETATM    4  H1  UNL     1     -10.982   6.095  66.520  1.00  0.00     0.000 HD 
HETATM    5  N   UNL     1     -11.003   8.478  68.623  1.00  0.00    -0.435 N  
HETATM    6  C   UNL     1     -10.572   9.767  68.815  1.00  0.00    -0.219 C  
HETATM    7  H   UNL     1     -11.533   8.004  69.355  1.00  0.00     0.000 HD 
HETATM    8  N   UNL     1      -9.983  10.452  67.732  1.00  0.00    -0.171 N  
HETATM    9  O   UNL     1     -10.719  10.304  69.910  1.00  0.00    -0.262 OA 
HETATM   10  C   UNL     1      -9.984   8.484  66.419  1.00  0.00    -0.314 C  
HETATM   11  C   UNL     1      -9.661   9.769  66.579  1.00  0.00    -0.209 C  
ENDROOT
BRANCH   8  12
HETATM   12  C   UNL     1      -9.596  11.841  68.000  1.00  0.00    -0.187 C  
HETATM   13  O   UNL     1     -10.798  12.648  67.941  1.00  0.00    -0.209 OA 
HETATM   14  C   UNL     1     -10.864  13.306  66.665  1.00  0.00    -0.281 C  
HETATM   15  C   UNL     1      -9.444  13.389  66.116  1.00  0.00    -0.140 C  
HETATM   16  F   UNL     1      -7.915  13.504  67.891  1.00  0.00    -0.115 F  
HETATM   17  C   UNL     1      -8.603  12.610  67.118  1.00  0.00    -0.199 C  
HETATM   18  O   UNL     1      -9.025  14.762  66.013  1.00  0.00    -0.492 OA 
HETATM   19  F   UNL     1      -7.668  11.862  66.502  1.00  0.00    -0.129 F  
HETATM   20  H   UNL     1      -8.141  14.814  65.671  1.00  0.00     0.000 HD 
BRANCH  14  21
HETATM   21  C   UNL     1     -11.783  12.479  65.755  1.00  0.00    -0.426 C  
HETATM   22  O   UNL     1     -11.133  12.194  64.520  1.00  0.00    -0.300 OA 
HETATM   23  H   UNL     1     -11.702  11.682  63.957  1.00  0.00     0.000 HD 
ENDBRANCH  14  21
ENDBRANCH   8  12
TORSDOF 2
ENDMDL
MODEL       75
REMARK 921   NORMALIZED FREE ENERGY PREDICTED BY IDOCK:   -4.46 KCAL/MOL
REMARK 922        TOTAL FREE ENERGY PREDICTED BY IDOCK:   -5.14 KCAL/MOL
REMARK 923 INTER-LIGAND FREE ENERGY PREDICTED BY IDOCK:   -5.10 KCAL/MOL
REMARK 924 INTRA-LIGAND FREE ENERGY PREDICTED BY IDOCK:   -0.04 KCAL/MOL
REMARK 927      BINDING AFFINITY PREDICTED BY RF-SCORE:    0.00 PKD
ROOT
HETATM    1  N   UNL     1      -9.086   8.504  71.050  1.00  0.00    -0.163 NA 
HETATM    2  H2  UNL     1      -9.614   7.872  71.652  1.00  0.00     0.000 HD 
HETATM    3  C   UNL     1      -9.685   9.565  70.433  1.00  0.00    -0.271 C  
HETATM    4  H1  UNL     1      -8.088   8.371  70.884  1.00  0.00     0.000 HD 
HETATM    5  N   UNL     1     -10.951   9.733  70.644  1.00  0.00    -0.307 N  
HETATM    6  C   UNL     1     -11.614  10.782  70.057  1.00  0.00    -0.334 C  
HETATM    7  H   UNL     1     -11.457   9.086  71.249  1.00  0.00     0.000 HD 
HETATM    8  N   UNL     1     -10.931  11.565  69.103  1.00  0.00    -0.228 N  
HETATM    9  O   UNL     1     -12.783  11.011  70.356  1.00  0.00    -0.288 OA 
HETATM   10  C   UNL     1      -8.896  10.454  69.571  1.00  0.00    -0.111 C  
HETATM   11  C   UNL     1      -9.573  11.407  68.927  1.00  0.00    -0.073 C  
ENDROOT
BRANCH   8  12
HETATM   12  C   UNL     1     -11.721  12.634  68.483  1.00  0.00    -0.330 C  
HETATM   13  O   UNL     1     -12.255  12.117  67.240  1.00  0.00    -0.496 OA 
HETATM   14  C   UNL     1     -11.450  12.590  66.147  1.00  0.00    -0.377 C  
HETATM   15  C   UNL     1     -10.747  13.862  66.609  1.00  0.00    -0.281 C  
HETATM   16  F   UNL     1     -12.070  14.958  68.206  1.00  0.00    -0.327 F  
HETATM   17  C   UNL     1     -11.116  13.986  68.081  1.00  0.00    -0.260 C  
HETATM   18  O   UNL     1     -11.201  14.992  65.842  1.00  0.00    -0.341 OA 
HETATM   19  F   UNL     1     -10.070  14.401  68.819  1.00  0.00    -0.221 F  
HETATM   20  H   UNL     1     -10.763  15.785  66.130  1.00  0.00     0.000 HD 
BRANCH  14  21
HETATM   21  C   UNL     1     -10.450  11.483  65.784  1.00  0.00    -0.259 C  
HETATM   22  O   UNL     1      -9.350  12.025  65.058  1.00  0.00    -0.433 OA 
HETATM   23  H   UNL     1      -8.732  11.340  64.834  1.00  0.00     0.000 HD 
ENDBRANCH  14  21
ENDBRANCH   8  12
TORSDOF 2
ENDMDL
MODEL       76
REMARK 921   NORMALIZED FREE ENERGY PREDICTED BY IDOCK:   -4.46 KCAL/MOL
REMARK 922        TOTAL FREE ENERGY PREDICTED BY IDOCK:   -5.14 KCAL/MOL
REMARK 923 INTER-LIGAND FREE ENERGY PREDICTED BY IDOCK:   -5.09 KCAL/MOL
REMARK 924 INTRA-LIGAND FREE ENERGY PREDICTED BY IDOCK:   -0.05 KCAL/MOL
REMARK 927      BINDING AFFINITY PREDICTED BY RF-SCORE:    0.00 PKD
ROOT
HETATM    1  N   UNL     1      -9.222   8.762  65.250  1.00  0.00    -0.433 NA 
HETATM    2  H2  UNL     1      -9.184   9.607  64.680  1.00  0.00     0.000 HD 
HETATM    3  C   UNL     1      -9.816   8.759  66.480  1.00  0.00    -0.279 C  
HETATM    4  H1  UNL     1      -8.819   7.883  64.926  1.00  0.00     0.000 HD 
HETATM    5  N   UNL     1     -10.328   9.874  66.891  1.00  0.00    -0.239 N  
HETATM    6  C   UNL     1     -10.944   9.940  68.116  1.00  0.00    -0.207 C  
HETATM    7  H   UNL     1     -10.275  10.707  66.303  1.00  0.00     0.000 HD 
HETATM    8  N   UNL     1     -10.864   8.823  68.974  1.00  0.00    -0.099 N  
HETATM    9  O   UNL     1     -11.534  10.964  68.450  1.00  0.00    -0.278 OA 
HETATM   10  C   UNL     1      -9.852   7.524  67.275  1.00  0.00    -0.236 C  
HETATM   11  C   UNL     1     -10.361   7.629  68.504  1.00  0.00    -0.198 C  
ENDROOT
BRANCH   8  12
HETATM   12  C   UNL     1     -11.502   8.988  70.284  1.00  0.00    -0.124 C  
HETATM   13  O   UNL     1     -10.566   9.690  71.139  1.00  0.00    -0.321 OA 
HETATM   14  C   UNL     1      -9.907   8.743  71.997  1.00  0.00    -0.306 C  
HETATM   15  C   UNL     1     -10.808   7.518  72.108  1.00  0.00    -0.240 C  
HETATM   16  F   UNL     1     -13.051   8.162  71.871  1.00  0.00    -0.309 F  
HETATM   17  C   UNL     1     -11.952   7.798  71.143  1.00  0.00    -0.291 C  
HETATM   18  O   UNL     1     -11.271   7.357  73.461  1.00  0.00    -0.590 OA 
HETATM   19  F   UNL     1     -12.310   6.692  70.466  1.00  0.00    -0.445 F  
HETATM   20  H   UNL     1     -11.832   6.593  73.531  1.00  0.00     0.000 HD 
BRANCH  14  21
HETATM   21  C   UNL     1      -8.550   8.401  71.366  1.00  0.00    -0.164 C  
HETATM   22  O   UNL     1      -7.489   8.947  72.145  1.00  0.00    -0.328 OA 
HETATM   23  H   UNL     1      -6.649   8.736  71.755  1.00  0.00     0.000 HD 
ENDBRANCH  14  21
ENDBRANCH   8  12
TORSDOF 2
ENDMDL
MODEL       77
REMARK 921   NORMALIZED FREE ENERGY PREDICTED BY IDOCK:   -4.46 KCAL/MOL
REMARK 922        TOTAL FREE ENERGY PREDICTED BY IDOCK:   -5.14 KCAL/MOL
REMARK 923 INTER-LIGAND FREE ENERGY PREDICTED BY IDOCK:   -4.97 KCAL/MOL
REMARK 924 INTRA-LIGAND FREE ENERGY PREDICTED BY IDOCK:   -0.16 KCAL/MOL
REMARK 927      BINDING AFFINITY PREDICTED BY RF-SCORE:    0.00 PKD
ROOT
HETATM    1  N   UNL     1      -7.833   7.912  65.377  1.00  0.00    -0.104 NA 
HETATM    2  H2  UNL     1      -6.879   7.624  65.595  1.00  0.00     0.000 HD 
HETATM    3  C   UNL     1      -8.277   9.173  65.659  1.00  0.00    -0.120 C  
HETATM    4  H1  UNL     1      -8.495   7.272  64.939  1.00  0.00     0.000 HD 
HETATM    5  N   UNL     1      -7.437   9.985  66.215  1.00  0.00    -0.103 N  
HETATM    6  C   UNL     1      -7.817  11.267  66.522  1.00  0.00    -0.133 C  
HETATM    7  H   UNL     1      -6.489   9.671  66.425  1.00  0.00     0.000 HD 
HETATM    8  N   UNL     1      -9.173  11.625  66.368  1.00  0.00    -0.208 N  
HETATM    9  O   UNL     1      -6.985  12.070  66.934  1.00  0.00    -0.122 OA 
HETATM   10  C   UNL     1      -9.658   9.554  65.333  1.00  0.00    -0.342 C  
HETATM   11  C   UNL     1     -10.044  10.769  65.730  1.00  0.00    -0.261 C  
ENDROOT
BRANCH   8  12
HETATM   12  C   UNL     1      -9.511  12.996  66.765  1.00  0.00    -0.250 C  
HETATM   13  O   UNL     1      -9.546  13.036  68.213  1.00  0.00    -0.219 OA 
HETATM   14  C   UNL     1     -10.912  12.970  68.655  1.00  0.00    -0.265 C  
HETATM   15  C   UNL     1     -11.791  13.462  67.511  1.00  0.00    -0.366 C  
HETATM   16  F   UNL     1     -10.607  15.022  66.219  1.00  0.00    -0.279 F  
HETATM   17  C   UNL     1     -10.823  13.678  66.354  1.00  0.00    -0.290 C  
HETATM   18  O   UNL     1     -12.466  14.677  67.883  1.00  0.00    -0.586 OA 
HETATM   19  F   UNL     1     -11.352  13.272  65.185  1.00  0.00    -0.301 F  
HETATM   20  H   UNL     1     -13.014  14.983  67.170  1.00  0.00     0.000 HD 
BRANCH  14  21
HETATM   21  C   UNL     1     -11.217  11.512  69.027  1.00  0.00    -0.262 C  
HETATM   22  O   UNL     1     -12.390  11.064  68.354  1.00  0.00    -0.762 OA 
HETATM   23  H   UNL     1     -12.579  10.161  68.584  1.00  0.00     0.000 HD 
ENDBRANCH  14  21
ENDBRANCH   8  12
TORSDOF 2
ENDMDL
MODEL       78
REMARK 921   NORMALIZED FREE ENERGY PREDICTED BY IDOCK:   -4.43 KCAL/MOL
REMARK 922        TOTAL FREE ENERGY PREDICTED BY IDOCK:   -5.11 KCAL/MOL
REMARK 923 INTER-LIGAND FREE ENERGY PREDICTED BY IDOCK:   -6.14 KCAL/MOL
REMARK 924 INTRA-LIGAND FREE ENERGY PREDICTED BY IDOCK:    1.03 KCAL/MOL
REMARK 927      BINDING AFFINITY PREDICTED BY RF-SCORE:    0.00 PKD
ROOT
HETATM    1  N   UNL     1     -12.714  15.922  71.269  1.00  0.00    -0.545 NA 
HETATM    2  H2  UNL     1     -12.880  15.459  72.162  1.00  0.00     0.000 HD 
HETATM    3  C   UNL     1     -12.136  15.262  70.222  1.00  0.00    -0.350 C  
HETATM    4  H1  UNL     1     -12.972  16.897  71.118  1.00  0.00     0.000 HD 
HETATM    5  N   UNL     1     -11.808  14.024  70.412  1.00  0.00    -0.420 N  
HETATM    6  C   UNL     1     -11.227  13.302  69.401  1.00  0.00    -0.158 C  
HETATM    7  H   UNL     1     -11.983  13.585  71.316  1.00  0.00     0.000 HD 
HETATM    8  N   UNL     1     -10.851  13.974  68.219  1.00  0.00    -0.248 N  
HETATM    9  O   UNL     1     -11.031  12.098  69.544  1.00  0.00    -0.119 OA 
HETATM   10  C   UNL     1     -11.909  15.960  68.949  1.00  0.00    -0.314 C  
HETATM   11  C   UNL     1     -11.251  15.276  68.011  1.00  0.00    -0.326 C  
ENDROOT
BRANCH   8  12
HETATM   12  C   UNL     1     -10.190  13.145  67.205  1.00  0.00    -0.243 C  
HETATM   13  O   UNL     1      -9.682  14.033  66.180  1.00  0.00    -0.293 OA 
HETATM   14  C   UNL     1     -10.582  14.025  65.059  1.00  0.00    -0.410 C  
HETATM   15  C   UNL     1     -11.365  12.718  65.106  1.00  0.00    -0.311 C  
HETATM   16  F   UNL     1     -10.058  11.050  66.113  1.00  0.00    -0.239 F  
HETATM   17  C   UNL     1     -10.930  12.061  66.410  1.00  0.00    -0.296 C  
HETATM   18  O   UNL     1     -11.052  11.903  63.962  1.00  0.00    -0.333 OA 
HETATM   19  F   UNL     1     -11.966  11.478  67.040  1.00  0.00    -0.290 F  
HETATM   20  H   UNL     1     -11.540  11.089  63.991  1.00  0.00     0.000 HD 
BRANCH  14  21
HETATM   21  C   UNL     1     -11.501  15.248  65.184  1.00  0.00    -0.260 C  
HETATM   22  O   UNL     1     -12.114  15.539  63.931  1.00  0.00    -0.981 OA 
HETATM   23  H   UNL     1     -12.682  16.296  64.009  1.00  0.00     0.000 HD 
ENDBRANCH  14  21
ENDBRANCH   8  12
TORSDOF 2
ENDMDL
MODEL       79
REMARK 921   NORMALIZED FREE ENERGY PREDICTED BY IDOCK:   -4.42 KCAL/MOL
REMARK 922        TOTAL FREE ENERGY PREDICTED BY IDOCK:   -5.10 KCAL/MOL
REMARK 923 INTER-LIGAND FREE ENERGY PREDICTED BY IDOCK:   -5.10 KCAL/MOL
REMARK 924 INTRA-LIGAND FREE ENERGY PREDICTED BY IDOCK:    0.01 KCAL/MOL
REMARK 927      BINDING AFFINITY PREDICTED BY RF-SCORE:    0.00 PKD
ROOT
HETATM    1  N   UNL     1     -13.218  13.829  72.321  1.00  0.00    -0.443 NA 
HETATM    2  H2  UNL     1     -13.239  12.911  72.765  1.00  0.00     0.000 HD 
HETATM    3  C   UNL     1     -12.629  14.017  71.103  1.00  0.00    -0.371 C  
HETATM    4  H1  UNL     1     -13.635  14.646  72.767  1.00  0.00     0.000 HD 
HETATM    5  N   UNL     1     -12.100  12.980  70.537  1.00  0.00    -0.493 N  
HETATM    6  C   UNL     1     -11.494  13.098  69.311  1.00  0.00    -0.291 C  
HETATM    7  H   UNL     1     -12.132  12.073  71.004  1.00  0.00     0.000 HD 
HETATM    8  N   UNL     1     -11.322  14.386  68.763  1.00  0.00    -0.257 N  
HETATM    9  O   UNL     1     -11.103  12.093  68.723  1.00  0.00    -0.223 OA 
HETATM   10  C   UNL     1     -12.614  15.353  70.493  1.00  0.00    -0.471 C  
HETATM   11  C   UNL     1     -11.934  15.472  69.351  1.00  0.00    -0.336 C  
ENDROOT
BRANCH   8  12
HETATM   12  C   UNL     1     -10.622  14.434  67.475  1.00  0.00    -0.265 C  
HETATM   13  O   UNL     1      -9.229  14.121  67.723  1.00  0.00    -0.181 OA 
HETATM   14  C   UNL     1      -8.470  15.341  67.757  1.00  0.00    -0.152 C  
HETATM   15  C   UNL     1      -9.247  16.390  66.971  1.00  0.00    -0.221 C  
HETATM   16  F   UNL     1     -10.510  15.345  65.294  1.00  0.00    -0.324 F  
HETATM   17  C   UNL     1     -10.558  15.702  66.613  1.00  0.00    -0.307 C  
HETATM   18  O   UNL     1      -8.511  16.789  65.801  1.00  0.00    -0.472 OA 
HETATM   19  F   UNL     1     -11.604  16.541  66.728  1.00  0.00     0.264 F  
HETATM   20  H   UNL     1      -8.995  17.444  65.311  1.00  0.00     0.000 HD 
BRANCH  14  21
HETATM   21  C   UNL     1      -8.289  15.743  69.228  1.00  0.00    -0.249 C  
HETATM   22  O   UNL     1      -7.310  14.916  69.851  1.00  0.00    -0.312 OA 
HETATM   23  H   UNL     1      -7.199  15.165  70.761  1.00  0.00     0.000 HD 
ENDBRANCH  14  21
ENDBRANCH   8  12
TORSDOF 2
ENDMDL
MODEL       80
REMARK 921   NORMALIZED FREE ENERGY PREDICTED BY IDOCK:   -4.40 KCAL/MOL
REMARK 922        TOTAL FREE ENERGY PREDICTED BY IDOCK:   -5.08 KCAL/MOL
REMARK 923 INTER-LIGAND FREE ENERGY PREDICTED BY IDOCK:   -5.49 KCAL/MOL
REMARK 924 INTRA-LIGAND FREE ENERGY PREDICTED BY IDOCK:    0.41 KCAL/MOL
REMARK 927      BINDING AFFINITY PREDICTED BY RF-SCORE:    0.00 PKD
ROOT
HETATM    1  N   UNL     1     -12.164   9.038  70.542  1.00  0.00    -0.476 NA 
HETATM    2  H2  UNL     1     -12.058   8.208  69.957  1.00  0.00     0.000 HD 
HETATM    3  C   UNL     1     -12.127  10.294  70.008  1.00  0.00    -0.156 C  
HETATM    4  H1  UNL     1     -12.302   8.964  71.550  1.00  0.00     0.000 HD 
HETATM    5  N   UNL     1     -11.952  10.387  68.729  1.00  0.00    -0.474 N  
HETATM    6  C   UNL     1     -11.908  11.620  68.128  1.00  0.00    -0.244 C  
HETATM    7  H   UNL     1     -11.846   9.543  68.167  1.00  0.00     0.000 HD 
HETATM    8  N   UNL     1     -11.896  12.771  68.944  1.00  0.00    -0.316 N  
HETATM    9  O   UNL     1     -11.865  11.702  66.903  1.00  0.00    -0.577 OA 
HETATM   10  C   UNL     1     -12.280  11.467  70.879  1.00  0.00    -0.447 C  
HETATM   11  C   UNL     1     -12.133  12.658  70.297  1.00  0.00    -0.294 C  
ENDROOT
BRANCH   8  12
HETATM   12  C   UNL     1     -11.797  14.048  68.230  1.00  0.00    -0.371 C  
HETATM   13  O   UNL     1     -10.736  13.920  67.252  1.00  0.00    -0.280 OA 
HETATM   14  C   UNL     1      -9.544  14.541  67.763  1.00  0.00    -0.215 C  
HETATM   15  C   UNL     1      -9.970  15.565  68.809  1.00  0.00    -0.214 C  
HETATM   16  F   UNL     1     -12.099  16.395  68.281  1.00  0.00    -0.127 F  
HETATM   17  C   UNL     1     -11.475  15.371  68.939  1.00  0.00    -0.342 C  
HETATM   18  O   UNL     1      -9.633  16.895  68.376  1.00  0.00    -0.238 OA 
HETATM   19  F   UNL     1     -11.876  15.460  70.220  1.00  0.00    -0.254 F  
HETATM   20  H   UNL     1      -9.898  17.533  69.029  1.00  0.00     0.000 HD 
BRANCH  14  21
HETATM   21  C   UNL     1      -8.660  13.440  68.364  1.00  0.00    -0.134 C  
HETATM   22  O   UNL     1      -7.756  13.994  69.316  1.00  0.00    -0.330 OA 
HETATM   23  H   UNL     1      -7.209  13.312  69.688  1.00  0.00     0.000 HD 
ENDBRANCH  14  21
ENDBRANCH   8  12
TORSDOF 2
ENDMDL
MODEL       81
REMARK 921   NORMALIZED FREE ENERGY PREDICTED BY IDOCK:   -4.37 KCAL/MOL
REMARK 922        TOTAL FREE ENERGY PREDICTED BY IDOCK:   -5.04 KCAL/MOL
REMARK 923 INTER-LIGAND FREE ENERGY PREDICTED BY IDOCK:   -5.30 KCAL/MOL
REMARK 924 INTRA-LIGAND FREE ENERGY PREDICTED BY IDOCK:    0.26 KCAL/MOL
REMARK 927      BINDING AFFINITY PREDICTED BY RF-SCORE:    0.00 PKD
ROOT
HETATM    1  N   UNL     1      -5.841  14.475  70.493  1.00  0.00    -0.161 NA 
HETATM    2  H2  UNL     1      -6.059  13.492  70.663  1.00  0.00     0.000 HD 
HETATM    3  C   UNL     1      -6.700  15.287  69.808  1.00  0.00    -0.176 C  
HETATM    4  H1  UNL     1      -4.972  14.892  70.827  1.00  0.00     0.000 HD 
HETATM    5  N   UNL     1      -7.802  14.756  69.385  1.00  0.00    -0.331 N  
HETATM    6  C   UNL     1      -8.711  15.517  68.693  1.00  0.00    -0.188 C  
HETATM    7  H   UNL     1      -7.996  13.771  69.566  1.00  0.00     0.000 HD 
HETATM    8  N   UNL     1      -8.350  16.828  68.318  1.00  0.00    -0.205 N  
HETATM    9  O   UNL     1      -9.807  15.045  68.401  1.00  0.00    -0.212 OA 
HETATM   10  C   UNL     1      -6.353  16.695  69.579  1.00  0.00    -0.227 C  
HETATM   11  C   UNL     1      -7.197  17.394  68.818  1.00  0.00    -0.249 C  
ENDROOT
BRANCH   8  12
HETATM   12  C   UNL     1      -9.354  17.559  67.538  1.00  0.00    -0.246 C  
HETATM   13  O   UNL     1      -8.820  17.742  66.203  1.00  0.00    -0.451 OA 
HETATM   14  C   UNL     1      -8.299  19.076  66.082  1.00  0.00    -0.217 C  
HETATM   15  C   UNL     1      -8.997  19.941  67.125  1.00  0.00    -0.338 C  
HETATM   16  F   UNL     1     -11.149  19.102  67.535  1.00  0.00    -0.526 F  
HETATM   17  C   UNL     1      -9.845  18.961  67.925  1.00  0.00    -0.345 C  
HETATM   18  O   UNL     1      -9.798  20.951  66.486  1.00  0.00    -0.559 OA 
HETATM   19  F   UNL     1      -9.822  19.246  69.240  1.00  0.00    -0.435 F  
HETATM   20  H   UNL     1     -10.233  21.490  67.137  1.00  0.00     0.000 HD 
BRANCH  14  21
HETATM   21  C   UNL     1      -6.782  19.012  66.311  1.00  0.00    -0.212 C  
HETATM   22  O   UNL     1      -6.156  18.252  65.281  1.00  0.00    -0.224 OA 
HETATM   23  H   UNL     1      -5.218  18.212  65.423  1.00  0.00     0.000 HD 
ENDBRANCH  14  21
ENDBRANCH   8  12
TORSDOF 2
ENDMDL
MODEL       82
REMARK 921   NORMALIZED FREE ENERGY PREDICTED BY IDOCK:   -4.37 KCAL/MOL
REMARK 922        TOTAL FREE ENERGY PREDICTED BY IDOCK:   -5.03 KCAL/MOL
REMARK 923 INTER-LIGAND FREE ENERGY PREDICTED BY IDOCK:   -4.99 KCAL/MOL
REMARK 924 INTRA-LIGAND FREE ENERGY PREDICTED BY IDOCK:   -0.05 KCAL/MOL
REMARK 927      BINDING AFFINITY PREDICTED BY RF-SCORE:    0.00 PKD
ROOT
HETATM    1  N   UNL     1     -11.176   9.663  71.377  1.00  0.00    -0.374 NA 
HETATM    2  H2  UNL     1     -10.546   9.481  72.158  1.00  0.00     0.000 HD 
HETATM    3  C   UNL     1     -10.703  10.060  70.158  1.00  0.00    -0.307 C  
HETATM    4  H1  UNL     1     -12.186   9.558  71.471  1.00  0.00     0.000 HD 
HETATM    5  N   UNL     1      -9.421  10.193  70.038  1.00  0.00    -0.401 N  
HETATM    6  C   UNL     1      -8.878  10.585  68.840  1.00  0.00    -0.165 C  
HETATM    7  H   UNL     1      -8.812  10.007  70.836  1.00  0.00     0.000 HD 
HETATM    8  N   UNL     1      -9.746  10.990  67.805  1.00  0.00    -0.168 N  
HETATM    9  O   UNL     1      -7.659  10.592  68.694  1.00  0.00    -0.089 OA 
HETATM   10  C   UNL     1     -11.637  10.316  69.055  1.00  0.00    -0.148 C  
HETATM   11  C   UNL     1     -11.104  10.795  67.929  1.00  0.00    -0.308 C  
ENDROOT
BRANCH   8  12
HETATM   12  C   UNL     1      -9.090  11.443  66.574  1.00  0.00    -0.186 C  
HETATM   13  O   UNL     1      -8.906  12.876  66.679  1.00  0.00    -0.188 OA 
HETATM   14  C   UNL     1      -9.937  13.542  65.930  1.00  0.00    -0.283 C  
HETATM   15  C   UNL     1     -10.446  12.563  64.878  1.00  0.00    -0.303 C  
HETATM   16  F   UNL     1      -8.722  11.098  64.262  1.00  0.00    -0.119 F  
HETATM   17  C   UNL     1      -9.717  11.262  65.185  1.00  0.00    -0.244 C  
HETATM   18  O   UNL     1     -10.149  13.049  63.556  1.00  0.00    -0.645 OA 
HETATM   19  F   UNL     1     -10.527  10.197  65.044  1.00  0.00    -0.382 F  
HETATM   20  H   UNL     1     -10.467  12.439  62.900  1.00  0.00     0.000 HD 
BRANCH  14  21
HETATM   21  C   UNL     1     -11.042  13.953  66.913  1.00  0.00    -0.301 C  
HETATM   22  O   UNL     1     -12.147  14.514  66.211  1.00  0.00    -0.377 OA 
HETATM   23  H   UNL     1     -12.831  14.769  66.819  1.00  0.00     0.000 HD 
ENDBRANCH  14  21
ENDBRANCH   8  12
TORSDOF 2
ENDMDL
MODEL       83
REMARK 921   NORMALIZED FREE ENERGY PREDICTED BY IDOCK:   -4.28 KCAL/MOL
REMARK 922        TOTAL FREE ENERGY PREDICTED BY IDOCK:   -4.94 KCAL/MOL
REMARK 923 INTER-LIGAND FREE ENERGY PREDICTED BY IDOCK:   -5.64 KCAL/MOL
REMARK 924 INTRA-LIGAND FREE ENERGY PREDICTED BY IDOCK:    0.70 KCAL/MOL
REMARK 927      BINDING AFFINITY PREDICTED BY RF-SCORE:    0.00 PKD
ROOT
HETATM    1  N   UNL     1     -12.301  12.047  62.932  1.00  0.00    -0.600 NA 
HETATM    2  H2  UNL     1     -12.590  11.069  62.907  1.00  0.00     0.000 HD 
HETATM    3  C   UNL     1     -12.007  12.674  64.109  1.00  0.00    -0.426 C  
HETATM    4  H1  UNL     1     -12.219  12.599  62.078  1.00  0.00     0.000 HD 
HETATM    5  N   UNL     1     -12.112  11.973  65.193  1.00  0.00    -0.209 N  
HETATM    6  C   UNL     1     -11.828  12.540  66.410  1.00  0.00    -0.381 C  
HETATM    7  H   UNL     1     -12.405  10.997  65.142  1.00  0.00     0.000 HD 
HETATM    8  N   UNL     1     -11.581  13.927  66.469  1.00  0.00    -0.352 N  
HETATM    9  O   UNL     1     -11.809  11.841  67.420  1.00  0.00    -0.590 OA 
HETATM   10  C   UNL     1     -11.596  14.084  64.109  1.00  0.00    -0.289 C  
HETATM   11  C   UNL     1     -11.423  14.649  65.305  1.00  0.00    -0.361 C  
ENDROOT
BRANCH   8  12
HETATM   12  C   UNL     1     -11.336  14.467  67.810  1.00  0.00    -0.317 C  
HETATM   13  O   UNL     1     -11.747  15.857  67.803  1.00  0.00    -0.141 OA 
HETATM   14  C   UNL     1     -10.585  16.692  67.662  1.00  0.00    -0.321 C  
HETATM   15  C   UNL     1      -9.382  15.894  68.150  1.00  0.00    -0.198 C  
HETATM   16  F   UNL     1     -10.060  14.372  69.801  1.00  0.00    -0.047 F  
HETATM   17  C   UNL     1      -9.940  14.508  68.446  1.00  0.00    -0.241 C  
HETATM   18  O   UNL     1      -8.814  16.507  69.322  1.00  0.00    -0.202 OA 
HETATM   19  F   UNL     1      -9.091  13.540  68.054  1.00  0.00    -0.170 F  
HETATM   20  H   UNL     1      -8.064  16.010  69.626  1.00  0.00     0.000 HD 
BRANCH  14  21
HETATM   21  C   UNL     1     -10.457  17.075  66.181  1.00  0.00    -0.271 C  
HETATM   22  O   UNL     1      -9.087  17.101  65.792  1.00  0.00    -0.525 OA 
HETATM   23  H   UNL     1      -9.008  17.338  64.876  1.00  0.00     0.000 HD 
ENDBRANCH  14  21
ENDBRANCH   8  12
TORSDOF 2
ENDMDL
MODEL       84
REMARK 921   NORMALIZED FREE ENERGY PREDICTED BY IDOCK:   -4.28 KCAL/MOL
REMARK 922        TOTAL FREE ENERGY PREDICTED BY IDOCK:   -4.94 KCAL/MOL
REMARK 923 INTER-LIGAND FREE ENERGY PREDICTED BY IDOCK:   -4.90 KCAL/MOL
REMARK 924 INTRA-LIGAND FREE ENERGY PREDICTED BY IDOCK:   -0.04 KCAL/MOL
REMARK 927      BINDING AFFINITY PREDICTED BY RF-SCORE:    0.00 PKD
ROOT
HETATM    1  N   UNL     1      -8.771   7.064  65.571  1.00  0.00    -0.334 NA 
HETATM    2  H2  UNL     1      -7.794   7.089  65.277  1.00  0.00     0.000 HD 
HETATM    3  C   UNL     1      -9.233   7.871  66.572  1.00  0.00    -0.191 C  
HETATM    4  H1  UNL     1      -9.444   6.437  65.131  1.00  0.00     0.000 HD 
HETATM    5  N   UNL     1      -8.379   8.668  67.130  1.00  0.00    -0.107 N  
HETATM    6  C   UNL     1      -8.778   9.507  68.139  1.00  0.00    -0.120 C  
HETATM    7  H   UNL     1      -7.407   8.671  66.819  1.00  0.00     0.000 HD 
HETATM    8  N   UNL     1     -10.083   9.370  68.658  1.00  0.00    -0.184 N  
HETATM    9  O   UNL     1      -7.997  10.346  68.581  1.00  0.00    -0.102 OA 
HETATM   10  C   UNL     1     -10.645   7.809  66.972  1.00  0.00    -0.396 C  
HETATM   11  C   UNL     1     -10.994   8.556  68.022  1.00  0.00     0.174 C  
ENDROOT
BRANCH   8  12
HETATM   12  C   UNL     1     -10.417  10.268  69.768  1.00  0.00    -0.259 C  
HETATM   13  O   UNL     1     -10.224   9.530  70.999  1.00  0.00    -0.297 OA 
HETATM   14  C   UNL     1     -11.499   9.071  71.480  1.00  0.00    -0.337 C  
HETATM   15  C   UNL     1     -12.569   9.980  70.888  1.00  0.00    -0.332 C  
HETATM   16  F   UNL     1     -11.678  12.120  70.530  1.00  0.00    -0.378 F  
HETATM   17  C   UNL     1     -11.808  10.895  69.938  1.00  0.00    -0.349 C  
HETATM   18  O   UNL     1     -13.233  10.718  71.931  1.00  0.00    -0.469 OA 
HETATM   19  F   UNL     1     -12.495  11.108  68.801  1.00  0.00    -0.331 F  
HETATM   20  H   UNL     1     -13.901  11.285  71.562  1.00  0.00     0.000 HD 
BRANCH  14  21
HETATM   21  C   UNL     1     -11.673   7.612  71.032  1.00  0.00    -0.286 C  
HETATM   22  O   UNL     1     -13.048   7.328  70.793  1.00  0.00    -0.603 OA 
HETATM   23  H   UNL     1     -13.156   6.426  70.516  1.00  0.00     0.000 HD 
ENDBRANCH  14  21
ENDBRANCH   8  12
TORSDOF 2
ENDMDL
MODEL       85
REMARK 921   NORMALIZED FREE ENERGY PREDICTED BY IDOCK:   -4.27 KCAL/MOL
REMARK 922        TOTAL FREE ENERGY PREDICTED BY IDOCK:   -4.93 KCAL/MOL
REMARK 923 INTER-LIGAND FREE ENERGY PREDICTED BY IDOCK:   -5.60 KCAL/MOL
REMARK 924 INTRA-LIGAND FREE ENERGY PREDICTED BY IDOCK:    0.67 KCAL/MOL
REMARK 927      BINDING AFFINITY PREDICTED BY RF-SCORE:    0.00 PKD
ROOT
HETATM    1  N   UNL     1     -12.502  13.961  63.954  1.00  0.00    -0.763 NA 
HETATM    2  H2  UNL     1     -13.215  14.320  63.319  1.00  0.00     0.000 HD 
HETATM    3  C   UNL     1     -11.606  14.793  64.563  1.00  0.00    -0.361 C  
HETATM    4  H1  UNL     1     -12.426  12.965  64.162  1.00  0.00     0.000 HD 
HETATM    5  N   UNL     1     -11.702  16.057  64.299  1.00  0.00    -0.721 N  
HETATM    6  C   UNL     1     -10.836  16.950  64.879  1.00  0.00     0.003 C  
HETATM    7  H   UNL     1     -12.423  16.391  63.659  1.00  0.00     0.000 HD 
HETATM    8  N   UNL     1      -9.752  16.449  65.631  1.00  0.00    -0.216 N  
HETATM    9  O   UNL     1     -11.006  18.156  64.725  1.00  0.00    -0.634 OA 
HETATM   10  C   UNL     1     -10.590  14.243  65.469  1.00  0.00    -0.351 C  
HETATM   11  C   UNL     1      -9.692  15.109  65.944  1.00  0.00    -0.350 C  
ENDROOT
BRANCH   8  12
HETATM   12  C   UNL     1      -8.843  17.463  66.176  1.00  0.00    -0.145 C  
HETATM   13  O   UNL     1      -7.501  16.920  66.119  1.00  0.00    -0.283 OA 
HETATM   14  C   UNL     1      -7.133  16.430  67.420  1.00  0.00    -0.159 C  
HETATM   15  C   UNL     1      -7.991  17.159  68.447  1.00  0.00    -0.250 C  
HETATM   16  F   UNL     1      -8.540  19.294  67.644  1.00  0.00    -0.299 F  
HETATM   17  C   UNL     1      -8.956  17.992  67.613  1.00  0.00    -0.251 C  
HETATM   18  O   UNL     1      -7.169  17.979  69.297  1.00  0.00    -0.197 OA 
HETATM   19  F   UNL     1     -10.194  17.990  68.140  1.00  0.00    -0.309 F  
HETATM   20  H   UNL     1      -7.704  18.433  69.938  1.00  0.00     0.000 HD 
BRANCH  14  21
HETATM   21  C   UNL     1      -7.379  14.914  67.439  1.00  0.00    -0.193 C  
HETATM   22  O   UNL     1      -7.420  14.435  68.780  1.00  0.00    -0.122 OA 
HETATM   23  H   UNL     1      -7.573  13.498  68.792  1.00  0.00     0.000 HD 
ENDBRANCH  14  21
ENDBRANCH   8  12
TORSDOF 2
ENDMDL
MODEL       86
REMARK 921   NORMALIZED FREE ENERGY PREDICTED BY IDOCK:   -4.26 KCAL/MOL
REMARK 922        TOTAL FREE ENERGY PREDICTED BY IDOCK:   -4.91 KCAL/MOL
REMARK 923 INTER-LIGAND FREE ENERGY PREDICTED BY IDOCK:   -4.84 KCAL/MOL
REMARK 924 INTRA-LIGAND FREE ENERGY PREDICTED BY IDOCK:   -0.07 KCAL/MOL
REMARK 927      BINDING AFFINITY PREDICTED BY RF-SCORE:    0.00 PKD
ROOT
HETATM    1  N   UNL     1     -12.306  15.545  69.039  1.00  0.00    -0.611 NA 
HETATM    2  H2  UNL     1     -12.663  14.630  68.763  1.00  0.00     0.000 HD 
HETATM    3  C   UNL     1     -11.262  16.130  68.382  1.00  0.00    -0.358 C  
HETATM    4  H1  UNL     1     -12.714  16.062  69.818  1.00  0.00     0.000 HD 
HETATM    5  N   UNL     1     -10.744  15.474  67.393  1.00  0.00    -0.297 N  
HETATM    6  C   UNL     1      -9.694  16.006  66.687  1.00  0.00    -0.244 C  
HETATM    7  H   UNL     1     -11.118  14.559  67.138  1.00  0.00     0.000 HD 
HETATM    8  N   UNL     1      -9.095  17.193  67.158  1.00  0.00    -0.224 N  
HETATM    9  O   UNL     1      -9.287  15.439  65.677  1.00  0.00    -0.296 OA 
HETATM   10  C   UNL     1     -10.772  17.448  68.807  1.00  0.00    -0.197 C  
HETATM   11  C   UNL     1      -9.687  17.906  68.178  1.00  0.00    -0.320 C  
ENDROOT
BRANCH   8  12
HETATM   12  C   UNL     1      -7.948  17.672  66.379  1.00  0.00    -0.274 C  
HETATM   13  O   UNL     1      -6.753  17.105  66.971  1.00  0.00    -0.156 OA 
HETATM   14  C   UNL     1      -6.123  18.093  67.804  1.00  0.00    -0.164 C  
HETATM   15  C   UNL     1      -6.575  19.464  67.314  1.00  0.00    -0.189 C  
HETATM   16  F   UNL     1      -7.028  19.371  65.014  1.00  0.00    -0.280 F  
HETATM   17  C   UNL     1      -7.607  19.161  66.235  1.00  0.00    -0.274 C  
HETATM   18  O   UNL     1      -5.456  20.206  66.796  1.00  0.00    -0.173 OA 
HETATM   19  F   UNL     1      -8.650  20.008  66.297  1.00  0.00    -0.338 F  
HETATM   20  H   UNL     1      -5.738  21.061  66.492  1.00  0.00     0.000 HD 
BRANCH  14  21
HETATM   21  C   UNL     1      -6.554  17.831  69.254  1.00  0.00    -0.239 C  
HETATM   22  O   UNL     1      -6.806  16.442  69.453  1.00  0.00    -0.210 OA 
HETATM   23  H   UNL     1      -7.073  16.280  70.350  1.00  0.00     0.000 HD 
ENDBRANCH  14  21
ENDBRANCH   8  12
TORSDOF 2
ENDMDL
MODEL       87
REMARK 921   NORMALIZED FREE ENERGY PREDICTED BY IDOCK:   -4.26 KCAL/MOL
REMARK 922        TOTAL FREE ENERGY PREDICTED BY IDOCK:   -4.91 KCAL/MOL
REMARK 923 INTER-LIGAND FREE ENERGY PREDICTED BY IDOCK:   -5.04 KCAL/MOL
REMARK 924 INTRA-LIGAND FREE ENERGY PREDICTED BY IDOCK:    0.13 KCAL/MOL
REMARK 927      BINDING AFFINITY PREDICTED BY RF-SCORE:    0.00 PKD
ROOT
HETATM    1  N   UNL     1      -8.356   4.517  74.092  1.00  0.00    -0.102 NA 
HETATM    2  H2  UNL     1      -7.893   3.732  73.634  1.00  0.00     0.000 HD 
HETATM    3  C   UNL     1      -9.301   5.262  73.447  1.00  0.00    -0.134 C  
HETATM    4  H1  UNL     1      -8.134   4.779  75.053  1.00  0.00     0.000 HD 
HETATM    5  N   UNL     1      -9.584   4.930  72.228  1.00  0.00    -0.149 N  
HETATM    6  C   UNL     1     -10.527   5.635  71.523  1.00  0.00    -0.239 C  
HETATM    7  H   UNL     1      -9.105   4.142  71.791  1.00  0.00     0.000 HD 
HETATM    8  N   UNL     1     -11.056   6.812  72.091  1.00  0.00    -0.241 N  
HETATM    9  O   UNL     1     -10.880   5.242  70.414  1.00  0.00    -0.213 OA 
HETATM   10  C   UNL     1      -9.947   6.387  74.136  1.00  0.00    -0.326 C  
HETATM   11  C   UNL     1     -10.785   7.124  73.405  1.00  0.00    -0.368 C  
ENDROOT
BRANCH   8  12
HETATM   12  C   UNL     1     -12.020   7.536  71.255  1.00  0.00    -0.307 C  
HETATM   13  O   UNL     1     -11.319   7.983  70.069  1.00  0.00    -0.161 OA 
HETATM   14  C   UNL     1     -10.974   9.371  70.219  1.00  0.00    -0.262 C  
HETATM   15  C   UNL     1     -11.935   9.978  71.234  1.00  0.00    -0.394 C  
HETATM   16  F   UNL     1     -13.988   8.846  71.153  1.00  0.00    -0.383 F  
HETATM   17  C   UNL     1     -12.753   8.796  71.737  1.00  0.00    -0.359 C  
HETATM   18  O   UNL     1     -12.761  10.977  70.608  1.00  0.00    -0.324 OA 
HETATM   19  F   UNL     1     -12.971   8.874  73.063  1.00  0.00    -0.433 F  
HETATM   20  H   UNL     1     -13.360  11.356  71.241  1.00  0.00     0.000 HD 
BRANCH  14  21
HETATM   21  C   UNL     1      -9.516   9.444  70.694  1.00  0.00    -0.262 C  
HETATM   22  O   UNL     1      -8.784  10.380  69.906  1.00  0.00    -0.381 OA 
HETATM   23  H   UNL     1      -7.882  10.425  70.201  1.00  0.00     0.000 HD 
ENDBRANCH  14  21
ENDBRANCH   8  12
TORSDOF 2
ENDMDL
MODEL       88
REMARK 921   NORMALIZED FREE ENERGY PREDICTED BY IDOCK:   -4.22 KCAL/MOL
REMARK 922        TOTAL FREE ENERGY PREDICTED BY IDOCK:   -4.87 KCAL/MOL
REMARK 923 INTER-LIGAND FREE ENERGY PREDICTED BY IDOCK:   -4.70 KCAL/MOL
REMARK 924 INTRA-LIGAND FREE ENERGY PREDICTED BY IDOCK:   -0.17 KCAL/MOL
REMARK 927      BINDING AFFINITY PREDICTED BY RF-SCORE:    0.00 PKD
ROOT
HETATM    1  N   UNL     1     -11.127   6.010  73.500  1.00  0.00    -0.445 NA 
HETATM    2  H2  UNL     1     -11.228   4.996  73.454  1.00  0.00     0.000 HD 
HETATM    3  C   UNL     1     -11.084   6.773  72.368  1.00  0.00    -0.257 C  
HETATM    4  H1  UNL     1     -11.054   6.498  74.393  1.00  0.00     0.000 HD 
HETATM    5  N   UNL     1     -11.176   6.154  71.235  1.00  0.00    -0.292 N  
HETATM    6  C   UNL     1     -11.143   6.860  70.059  1.00  0.00    -0.299 C  
HETATM    7  H   UNL     1     -11.274   5.138  71.216  1.00  0.00     0.000 HD 
HETATM    8  N   UNL     1     -10.847   8.239  70.106  1.00  0.00    -0.241 N  
HETATM    9  O   UNL     1     -11.354   6.286  68.994  1.00  0.00    -0.390 OA 
HETATM   10  C   UNL     1     -10.935   8.231  72.470  1.00  0.00    -0.424 C  
HETATM   11  C   UNL     1     -10.802   8.892  71.318  1.00  0.00    -0.290 C  
ENDROOT
BRANCH   8  12
HETATM   12  C   UNL     1     -10.780   8.914  68.805  1.00  0.00    -0.090 C  
HETATM   13  O   UNL     1      -9.487   8.614  68.225  1.00  0.00    -0.140 OA 
HETATM   14  C   UNL     1      -8.607   9.732  68.430  1.00  0.00    -0.119 C  
HETATM   15  C   UNL     1      -9.473  10.970  68.629  1.00  0.00    -0.195 C  
HETATM   16  F   UNL     1     -11.487  10.722  67.453  1.00  0.00    -0.378 F  
HETATM   17  C   UNL     1     -10.899  10.436  68.654  1.00  0.00    -0.232 C  
HETATM   18  O   UNL     1      -9.266  11.906  67.555  1.00  0.00    -0.170 OA 
HETATM   19  F   UNL     1     -11.644  11.059  69.585  1.00  0.00    -0.262 F  
HETATM   20  H   UNL     1      -9.806  12.678  67.679  1.00  0.00     0.000 HD 
BRANCH  14  21
HETATM   21  C   UNL     1      -7.743   9.432  69.664  1.00  0.00    -0.098 C  
HETATM   22  O   UNL     1      -7.695  10.567  70.524  1.00  0.00    -0.379 OA 
HETATM   23  H   UNL     1      -7.161  10.381  71.287  1.00  0.00     0.000 HD 
ENDBRANCH  14  21
ENDBRANCH   8  12
TORSDOF 2
ENDMDL
MODEL       89
REMARK 921   NORMALIZED FREE ENERGY PREDICTED BY IDOCK:   -4.22 KCAL/MOL
REMARK 922        TOTAL FREE ENERGY PREDICTED BY IDOCK:   -4.87 KCAL/MOL
REMARK 923 INTER-LIGAND FREE ENERGY PREDICTED BY IDOCK:   -4.76 KCAL/MOL
REMARK 924 INTRA-LIGAND FREE ENERGY PREDICTED BY IDOCK:   -0.11 KCAL/MOL
REMARK 927      BINDING AFFINITY PREDICTED BY RF-SCORE:    0.00 PKD
ROOT
HETATM    1  N   UNL     1     -10.707   6.543  74.129  1.00  0.00    -0.417 NA 
HETATM    2  H2  UNL     1     -11.602   6.381  74.592  1.00  0.00     0.000 HD 
HETATM    3  C   UNL     1     -10.586   7.438  73.105  1.00  0.00    -0.374 C  
HETATM    4  H1  UNL     1      -9.864   6.042  74.411  1.00  0.00     0.000 HD 
HETATM    5  N   UNL     1     -11.656   8.073  72.747  1.00  0.00    -0.527 N  
HETATM    6  C   UNL     1     -11.604   8.990  71.727  1.00  0.00    -0.374 C  
HETATM    7  H   UNL     1     -12.539   7.892  73.225  1.00  0.00     0.000 HD 
HETATM    8  N   UNL     1     -10.413   9.105  70.981  1.00  0.00    -0.271 N  
HETATM    9  O   UNL     1     -12.589   9.678  71.473  1.00  0.00    -0.337 OA 
HETATM   10  C   UNL     1      -9.283   7.644  72.459  1.00  0.00    -0.208 C  
HETATM   11  C   UNL     1      -9.270   8.461  71.404  1.00  0.00    -0.186 C  
ENDROOT
BRANCH   8  12
HETATM   12  C   UNL     1     -10.452  10.069  69.876  1.00  0.00    -0.274 C  
HETATM   13  O   UNL     1     -11.257   9.489  68.820  1.00  0.00    -0.063 OA 
HETATM   14  C   UNL     1     -10.391   8.938  67.813  1.00  0.00    -0.242 C  
HETATM   15  C   UNL     1      -9.048   9.652  67.920  1.00  0.00    -0.125 C  
HETATM   16  F   UNL     1      -9.374  11.832  68.723  1.00  0.00    -0.183 F  
HETATM   17  C   UNL     1      -9.188  10.544  69.146  1.00  0.00    -0.171 C  
HETATM   18  O   UNL     1      -8.788  10.413  66.726  1.00  0.00    -0.130 OA 
HETATM   19  F   UNL     1      -8.060  10.558  69.879  1.00  0.00    -0.158 F  
HETATM   20  H   UNL     1      -7.951  10.857  66.792  1.00  0.00     0.000 HD 
BRANCH  14  21
HETATM   21  C   UNL     1     -10.262   7.431  68.077  1.00  0.00    -0.191 C  
HETATM   22  O   UNL     1     -11.508   6.896  68.514  1.00  0.00    -0.525 OA 
HETATM   23  H   UNL     1     -11.428   5.963  68.677  1.00  0.00     0.000 HD 
ENDBRANCH  14  21
ENDBRANCH   8  12
TORSDOF 2
ENDMDL
MODEL       90
REMARK 921   NORMALIZED FREE ENERGY PREDICTED BY IDOCK:   -4.19 KCAL/MOL
REMARK 922        TOTAL FREE ENERGY PREDICTED BY IDOCK:   -4.84 KCAL/MOL
REMARK 923 INTER-LIGAND FREE ENERGY PREDICTED BY IDOCK:   -4.77 KCAL/MOL
REMARK 924 INTRA-LIGAND FREE ENERGY PREDICTED BY IDOCK:   -0.07 KCAL/MOL
REMARK 927      BINDING AFFINITY PREDICTED BY RF-SCORE:    0.00 PKD
ROOT
HETATM    1  N   UNL     1     -12.157  10.574  70.607  1.00  0.00    -0.325 NA 
HETATM    2  H2  UNL     1     -12.010   9.564  70.639  1.00  0.00     0.000 HD 
HETATM    3  C   UNL     1     -11.611  11.342  69.619  1.00  0.00    -0.330 C  
HETATM    4  H1  UNL     1     -12.717  11.052  71.312  1.00  0.00     0.000 HD 
HETATM    5  N   UNL     1     -10.899  10.734  68.724  1.00  0.00    -0.204 N  
HETATM    6  C   UNL     1     -10.325  11.446  67.701  1.00  0.00    -0.183 C  
HETATM    7  H   UNL     1     -10.766   9.724  68.779  1.00  0.00     0.000 HD 
HETATM    8  N   UNL     1     -10.390  12.854  67.736  1.00  0.00    -0.218 N  
HETATM    9  O   UNL     1      -9.755  10.853  66.788  1.00  0.00    -0.183 OA 
HETATM   10  C   UNL     1     -11.840  12.792  69.605  1.00  0.00    -0.384 C  
HETATM   11  C   UNL     1     -11.192  13.483  68.664  1.00  0.00    -0.278 C  
ENDROOT
BRANCH   8  12
HETATM   12  C   UNL     1      -9.710  13.545  66.636  1.00  0.00    -0.280 C  
HETATM   13  O   UNL     1      -8.307  13.647  66.986  1.00  0.00    -0.172 OA 
HETATM   14  C   UNL     1      -8.040  14.969  67.484  1.00  0.00    -0.181 C  
HETATM   15  C   UNL     1      -9.116  15.897  66.929  1.00  0.00    -0.231 C  
HETATM   16  F   UNL     1      -9.857  15.095  64.853  1.00  0.00    -0.319 F  
HETATM   17  C   UNL     1     -10.076  14.969  66.197  1.00  0.00    -0.294 C  
HETATM   18  O   UNL     1      -8.531  16.872  66.047  1.00  0.00    -0.460 OA 
HETATM   19  F   UNL     1     -11.358  15.329  66.394  1.00  0.00    -0.336 F  
HETATM   20  H   UNL     1      -9.201  17.451  65.702  1.00  0.00     0.000 HD 
BRANCH  14  21
HETATM   21  C   UNL     1      -8.069  14.910  69.017  1.00  0.00    -0.165 C  
HETATM   22  O   UNL     1      -7.436  16.060  69.571  1.00  0.00    -0.222 OA 
HETATM   23  H   UNL     1      -7.454  16.023  70.519  1.00  0.00     0.000 HD 
ENDBRANCH  14  21
ENDBRANCH   8  12
TORSDOF 2
ENDMDL
MODEL       91
REMARK 921   NORMALIZED FREE ENERGY PREDICTED BY IDOCK:   -4.18 KCAL/MOL
REMARK 922        TOTAL FREE ENERGY PREDICTED BY IDOCK:   -4.83 KCAL/MOL
REMARK 923 INTER-LIGAND FREE ENERGY PREDICTED BY IDOCK:   -4.68 KCAL/MOL
REMARK 924 INTRA-LIGAND FREE ENERGY PREDICTED BY IDOCK:   -0.15 KCAL/MOL
REMARK 927      BINDING AFFINITY PREDICTED BY RF-SCORE:    0.00 PKD
ROOT
HETATM    1  N   UNL     1      -6.031  11.314  65.534  1.00  0.00    -0.453 NA 
HETATM    2  H2  UNL     1      -5.942  11.055  64.551  1.00  0.00     0.000 HD 
HETATM    3  C   UNL     1      -7.129  10.963  66.266  1.00  0.00    -0.119 C  
HETATM    4  H1  UNL     1      -5.303  11.845  66.012  1.00  0.00     0.000 HD 
HETATM    5  N   UNL     1      -8.052  10.289  65.659  1.00  0.00    -0.149 N  
HETATM    6  C   UNL     1      -9.181   9.902  66.338  1.00  0.00    -0.158 C  
HETATM    7  H   UNL     1      -7.941  10.045  64.675  1.00  0.00     0.000 HD 
HETATM    8  N   UNL     1      -9.383  10.387  67.646  1.00  0.00    -0.148 N  
HETATM    9  O   UNL     1      -9.996   9.159  65.796  1.00  0.00    -0.277 OA 
HETATM   10  C   UNL     1      -7.225  11.354  67.678  1.00  0.00    -0.097 C  
HETATM   11  C   UNL     1      -8.371  11.060  68.296  1.00  0.00    -0.133 C  
ENDROOT
BRANCH   8  12
HETATM   12  C   UNL     1     -10.636   9.970  68.286  1.00  0.00    -0.226 C  
HETATM   13  O   UNL     1     -11.699  10.786  67.736  1.00  0.00    -0.547 OA 
HETATM   14  C   UNL     1     -12.014  11.840  68.662  1.00  0.00    -0.239 C  
HETATM   15  C   UNL     1     -11.568  11.385  70.047  1.00  0.00    -0.299 C  
HETATM   16  F   UNL     1     -11.697   9.047  70.189  1.00  0.00    -0.209 F  
HETATM   17  C   UNL     1     -10.862  10.058  69.802  1.00  0.00    -0.273 C  
HETATM   18  O   UNL     1     -12.706  11.237  70.916  1.00  0.00    -0.347 OA 
HETATM   19  F   UNL     1      -9.760   9.936  70.565  1.00  0.00    -0.297 F  
HETATM   20  H   UNL     1     -12.428  10.954  71.780  1.00  0.00     0.000 HD 
BRANCH  14  21
HETATM   21  C   UNL     1     -11.270  13.104  68.207  1.00  0.00    -0.274 C  
HETATM   22  O   UNL     1     -10.442  13.597  69.256  1.00  0.00    -0.434 OA 
HETATM   23  H   UNL     1      -9.982  14.378  68.975  1.00  0.00     0.000 HD 
ENDBRANCH  14  21
ENDBRANCH   8  12
TORSDOF 2
ENDMDL
MODEL       92
REMARK 921   NORMALIZED FREE ENERGY PREDICTED BY IDOCK:   -4.18 KCAL/MOL
REMARK 922        TOTAL FREE ENERGY PREDICTED BY IDOCK:   -4.83 KCAL/MOL
REMARK 923 INTER-LIGAND FREE ENERGY PREDICTED BY IDOCK:   -4.85 KCAL/MOL
REMARK 924 INTRA-LIGAND FREE ENERGY PREDICTED BY IDOCK:    0.03 KCAL/MOL
REMARK 927      BINDING AFFINITY PREDICTED BY RF-SCORE:    0.00 PKD
ROOT
HETATM    1  N   UNL     1      -6.588  16.751  66.603  1.00  0.00    -0.211 NA 
HETATM    2  H2  UNL     1      -6.658  17.528  65.946  1.00  0.00     0.000 HD 
HETATM    3  C   UNL     1      -7.666  15.963  66.891  1.00  0.00    -0.233 C  
HETATM    4  H1  UNL     1      -5.710  16.529  67.073  1.00  0.00     0.000 HD 
HETATM    5  N   UNL     1      -8.779  16.245  66.293  1.00  0.00    -0.317 N  
HETATM    6  C   UNL     1      -9.900  15.490  66.535  1.00  0.00    -0.264 C  
HETATM    7  H   UNL     1      -8.823  17.029  65.642  1.00  0.00     0.000 HD 
HETATM    8  N   UNL     1      -9.854  14.517  67.554  1.00  0.00    -0.221 N  
HETATM    9  O   UNL     1     -10.919  15.682  65.877  1.00  0.00    -0.308 OA 
HETATM   10  C   UNL     1      -7.531  14.854  67.844  1.00  0.00    -0.153 C  
HETATM   11  C   UNL     1      -8.652  14.195  68.145  1.00  0.00    -0.175 C  
ENDROOT
BRANCH   8  12
HETATM   12  C   UNL     1     -11.106  13.788  67.786  1.00  0.00    -0.268 C  
HETATM   13  O   UNL     1     -12.071  14.734  68.309  1.00  0.00    -0.258 OA 
HETATM   14  C   UNL     1     -12.156  14.583  69.736  1.00  0.00    -0.331 C  
HETATM   15  C   UNL     1     -11.685  13.174  70.079  1.00  0.00    -0.221 C  
HETATM   16  F   UNL     1     -12.154  11.728  68.293  1.00  0.00    -0.376 F  
HETATM   17  C   UNL     1     -11.206  12.600  68.752  1.00  0.00    -0.280 C  
HETATM   18  O   UNL     1     -12.766  12.407  70.639  1.00  0.00    -0.180 OA 
HETATM   19  F   UNL     1     -10.083  11.874  68.905  1.00  0.00    -0.208 F  
HETATM   20  H   UNL     1     -12.473  11.529  70.854  1.00  0.00     0.000 HD 
BRANCH  14  21
HETATM   21  C   UNL     1     -11.265  15.657  70.377  1.00  0.00    -0.357 C  
HETATM   22  O   UNL     1     -10.920  15.285  71.708  1.00  0.00    -0.490 OA 
HETATM   23  H   UNL     1     -10.369  15.950  72.104  1.00  0.00     0.000 HD 
ENDBRANCH  14  21
ENDBRANCH   8  12
TORSDOF 2
ENDMDL
MODEL       93
REMARK 921   NORMALIZED FREE ENERGY PREDICTED BY IDOCK:   -4.15 KCAL/MOL
REMARK 922        TOTAL FREE ENERGY PREDICTED BY IDOCK:   -4.79 KCAL/MOL
REMARK 923 INTER-LIGAND FREE ENERGY PREDICTED BY IDOCK:   -5.65 KCAL/MOL
REMARK 924 INTRA-LIGAND FREE ENERGY PREDICTED BY IDOCK:    0.86 KCAL/MOL
REMARK 927      BINDING AFFINITY PREDICTED BY RF-SCORE:    0.00 PKD
ROOT
HETATM    1  N   UNL     1     -12.285  15.809  72.431  1.00  0.00    -0.423 NA 
HETATM    2  H2  UNL     1     -12.705  15.110  73.043  1.00  0.00     0.000 HD 
HETATM    3  C   UNL     1     -11.858  15.490  71.173  1.00  0.00    -0.387 C  
HETATM    4  H1  UNL     1     -12.164  16.776  72.731  1.00  0.00     0.000 HD 
HETATM    5  N   UNL     1     -12.011  14.262  70.792  1.00  0.00    -0.373 N  
HETATM    6  C   UNL     1     -11.608  13.874  69.539  1.00  0.00    -0.301 C  
HETATM    7  H   UNL     1     -12.433  13.581  71.424  1.00  0.00     0.000 HD 
HETATM    8  N   UNL     1     -10.886  14.791  68.747  1.00  0.00    -0.246 N  
HETATM    9  O   UNL     1     -11.865  12.743  69.136  1.00  0.00    -0.298 OA 
HETATM   10  C   UNL     1     -11.255  16.520  70.318  1.00  0.00    -0.140 C  
HETATM   11  C   UNL     1     -10.775  16.106  69.144  1.00  0.00    -0.292 C  
ENDROOT
BRANCH   8  12
HETATM   12  C   UNL     1     -10.445  14.287  67.442  1.00  0.00    -0.264 C  
HETATM   13  O   UNL     1      -9.413  15.179  66.955  1.00  0.00    -0.219 OA 
HETATM   14  C   UNL     1      -9.984  16.083  65.994  1.00  0.00    -0.339 C  
HETATM   15  C   UNL     1     -11.237  15.423  65.429  1.00  0.00    -0.272 C  
HETATM   16  F   UNL     1     -10.991  13.091  65.474  1.00  0.00    -0.280 F  
HETATM   17  C   UNL     1     -11.395  14.146  66.244  1.00  0.00    -0.338 C  
HETATM   18  O   UNL     1     -11.072  15.150  64.026  1.00  0.00    -0.430 OA 
HETATM   19  F   UNL     1     -12.684  13.908  66.545  1.00  0.00    -0.432 F  
HETATM   20  H   UNL     1     -11.853  14.739  63.674  1.00  0.00     0.000 HD 
BRANCH  14  21
HETATM   21  C   UNL     1     -10.305  17.398  66.717  1.00  0.00    -0.305 C  
HETATM   22  O   UNL     1      -9.351  18.399  66.372  1.00  0.00    -0.307 OA 
HETATM   23  H   UNL     1      -9.549  19.213  66.819  1.00  0.00     0.000 HD 
ENDBRANCH  14  21
ENDBRANCH   8  12
TORSDOF 2
ENDMDL
MODEL       94
REMARK 921   NORMALIZED FREE ENERGY PREDICTED BY IDOCK:   -4.14 KCAL/MOL
REMARK 922        TOTAL FREE ENERGY PREDICTED BY IDOCK:   -4.78 KCAL/MOL
REMARK 923 INTER-LIGAND FREE ENERGY PREDICTED BY IDOCK:   -4.93 KCAL/MOL
REMARK 924 INTRA-LIGAND FREE ENERGY PREDICTED BY IDOCK:    0.15 KCAL/MOL
REMARK 927      BINDING AFFINITY PREDICTED BY RF-SCORE:    0.00 PKD
ROOT
HETATM    1  N   UNL     1     -10.758  18.158  68.106  1.00  0.00    -0.292 NA 
HETATM    2  H2  UNL     1     -10.148  18.777  67.570  1.00  0.00     0.000 HD 
HETATM    3  C   UNL     1     -10.486  16.826  68.231  1.00  0.00    -0.341 C  
HETATM    4  H1  UNL     1     -11.596  18.508  68.570  1.00  0.00     0.000 HD 
HETATM    5  N   UNL     1      -9.422  16.382  67.641  1.00  0.00    -0.224 N  
HETATM    6  C   UNL     1      -9.088  15.054  67.730  1.00  0.00    -0.180 C  
HETATM    7  H   UNL     1      -8.830  17.021  67.110  1.00  0.00     0.000 HD 
HETATM    8  N   UNL     1     -10.002  14.165  68.333  1.00  0.00    -0.231 N  
HETATM    9  O   UNL     1      -8.017  14.661  67.275  1.00  0.00    -0.189 OA 
HETATM   10  C   UNL     1     -11.385  15.962  69.007  1.00  0.00    -0.371 C  
HETATM   11  C   UNL     1     -11.104  14.658  68.999  1.00  0.00    -0.259 C  
ENDROOT
BRANCH   8  12
HETATM   12  C   UNL     1      -9.597  12.756  68.345  1.00  0.00    -0.175 C  
HETATM   13  O   UNL     1      -9.314  12.373  66.976  1.00  0.00    -0.192 OA 
HETATM   14  C   UNL     1     -10.440  11.656  66.443  1.00  0.00    -0.244 C  
HETATM   15  C   UNL     1     -11.215  11.075  67.620  1.00  0.00    -0.305 C  
HETATM   16  F   UNL     1      -9.747  10.641  69.397  1.00  0.00    -0.215 F  
HETATM   17  C   UNL     1     -10.513  11.634  68.851  1.00  0.00    -0.175 C  
HETATM   18  O   UNL     1     -11.178   9.637  67.585  1.00  0.00    -0.476 OA 
HETATM   19  F   UNL     1     -11.394  11.984  69.806  1.00  0.00    -0.311 F  
HETATM   20  H   UNL     1     -11.662   9.274  68.318  1.00  0.00     0.000 HD 
BRANCH  14  21
HETATM   21  C   UNL     1     -11.287  12.647  65.632  1.00  0.00    -0.322 C  
HETATM   22  O   UNL     1     -12.605  12.726  66.166  1.00  0.00    -0.428 OA 
HETATM   23  H   UNL     1     -13.129  13.339  65.664  1.00  0.00     0.000 HD 
ENDBRANCH  14  21
ENDBRANCH   8  12
TORSDOF 2
ENDMDL
MODEL       95
REMARK 921   NORMALIZED FREE ENERGY PREDICTED BY IDOCK:   -4.12 KCAL/MOL
REMARK 922        TOTAL FREE ENERGY PREDICTED BY IDOCK:   -4.76 KCAL/MOL
REMARK 923 INTER-LIGAND FREE ENERGY PREDICTED BY IDOCK:   -5.54 KCAL/MOL
REMARK 924 INTRA-LIGAND FREE ENERGY PREDICTED BY IDOCK:    0.79 KCAL/MOL
REMARK 927      BINDING AFFINITY PREDICTED BY RF-SCORE:    0.00 PKD
ROOT
HETATM    1  N   UNL     1      -8.797   9.656  62.356  1.00  0.00    -0.231 NA 
HETATM    2  H2  UNL     1      -8.251   8.795  62.315  1.00  0.00     0.000 HD 
HETATM    3  C   UNL     1      -9.287  10.132  63.539  1.00  0.00    -0.290 C  
HETATM    4  H1  UNL     1      -9.001  10.197  61.516  1.00  0.00     0.000 HD 
HETATM    5  N   UNL     1      -9.028   9.445  64.605  1.00  0.00    -0.295 N  
HETATM    6  C   UNL     1      -9.488   9.869  65.826  1.00  0.00    -0.222 C  
HETATM    7  H   UNL     1      -8.481   8.586  64.537  1.00  0.00     0.000 HD 
HETATM    8  N   UNL     1     -10.372  10.967  65.872  1.00  0.00    -0.257 N  
HETATM    9  O   UNL     1      -9.138   9.284  66.848  1.00  0.00    -0.128 OA 
HETATM   10  C   UNL     1     -10.073  11.373  63.562  1.00  0.00    -0.437 C  
HETATM   11  C   UNL     1     -10.598  11.717  64.739  1.00  0.00    -0.301 C  
ENDROOT
BRANCH   8  12
HETATM   12  C   UNL     1     -10.859  11.328  67.208  1.00  0.00    -0.267 C  
HETATM   13  O   UNL     1     -12.122  12.018  67.040  1.00  0.00    -0.603 OA 
HETATM   14  C   UNL     1     -11.904  13.435  67.146  1.00  0.00    -0.382 C  
HETATM   15  C   UNL     1     -10.622  13.646  67.944  1.00  0.00    -0.249 C  
HETATM   16  F   UNL     1     -10.328  11.872  69.449  1.00  0.00    -0.116 F  
HETATM   17  C   UNL     1     -10.073  12.242  68.158  1.00  0.00    -0.211 C  
HETATM   18  O   UNL     1     -10.910  14.308  69.189  1.00  0.00    -0.249 OA 
HETATM   19  F   UNL     1      -8.734  12.210  68.025  1.00  0.00    -0.149 F  
HETATM   20  H   UNL     1     -10.111  14.440  69.686  1.00  0.00     0.000 HD 
BRANCH  14  21
HETATM   21  C   UNL     1     -11.794  14.002  65.723  1.00  0.00    -0.383 C  
HETATM   22  O   UNL     1     -13.068  13.990  65.084  1.00  0.00    -0.776 OA 
HETATM   23  H   UNL     1     -12.999  14.340  64.204  1.00  0.00     0.000 HD 
ENDBRANCH  14  21
ENDBRANCH   8  12
TORSDOF 2
ENDMDL
MODEL       96
REMARK 921   NORMALIZED FREE ENERGY PREDICTED BY IDOCK:   -4.09 KCAL/MOL
REMARK 922        TOTAL FREE ENERGY PREDICTED BY IDOCK:   -4.73 KCAL/MOL
REMARK 923 INTER-LIGAND FREE ENERGY PREDICTED BY IDOCK:   -4.64 KCAL/MOL
REMARK 924 INTRA-LIGAND FREE ENERGY PREDICTED BY IDOCK:   -0.09 KCAL/MOL
REMARK 927      BINDING AFFINITY PREDICTED BY RF-SCORE:    0.00 PKD
ROOT
HETATM    1  N   UNL     1     -11.184   4.458  65.169  1.00  0.00    -1.040 NA 
HETATM    2  H2  UNL     1     -11.107   3.481  64.886  1.00  0.00     0.000 HD 
HETATM    3  C   UNL     1     -10.636   4.906  66.337  1.00  0.00    -0.223 C  
HETATM    4  H1  UNL     1     -11.674   5.142  64.592  1.00  0.00     0.000 HD 
HETATM    5  N   UNL     1     -10.015   4.038  67.069  1.00  0.00    -0.275 N  
HETATM    6  C   UNL     1      -9.438   4.423  68.254  1.00  0.00    -0.153 C  
HETATM    7  H   UNL     1      -9.953   3.066  66.765  1.00  0.00     0.000 HD 
HETATM    8  N   UNL     1      -9.674   5.730  68.728  1.00  0.00    -0.126 N  
HETATM    9  O   UNL     1      -8.747   3.627  68.884  1.00  0.00    -0.081 OA 
HETATM   10  C   UNL     1     -10.768   6.319  66.716  1.00  0.00    -0.364 C  
HETATM   11  C   UNL     1     -10.293   6.656  67.916  1.00  0.00    -0.189 C  
ENDROOT
BRANCH   8  12
HETATM   12  C   UNL     1      -9.066   6.049  70.024  1.00  0.00    -0.146 C  
HETATM   13  O   UNL     1      -9.975   5.591  71.056  1.00  0.00    -0.177 OA 
HETATM   14  C   UNL     1     -10.726   6.710  71.555  1.00  0.00    -0.230 C  
HETATM   15  C   UNL     1      -9.921   7.972  71.266  1.00  0.00    -0.174 C  
HETATM   16  F   UNL     1      -7.631   7.463  71.265  1.00  0.00    -0.077 F  
HETATM   17  C   UNL     1      -8.730   7.484  70.451  1.00  0.00    -0.144 C  
HETATM   18  O   UNL     1      -9.512   8.598  72.496  1.00  0.00    -0.276 OA 
HETATM   19  F   UNL     1      -8.432   8.336  69.453  1.00  0.00    -0.116 F  
HETATM   20  H   UNL     1      -9.010   9.385  72.316  1.00  0.00     0.000 HD 
BRANCH  14  21
HETATM   21  C   UNL     1     -12.085   6.721  70.840  1.00  0.00    -0.367 C  
HETATM   22  O   UNL     1     -12.819   7.892  71.188  1.00  0.00    -0.486 OA 
HETATM   23  H   UNL     1     -13.660   7.898  70.745  1.00  0.00     0.000 HD 
ENDBRANCH  14  21
ENDBRANCH   8  12
TORSDOF 2
ENDMDL
MODEL       97
REMARK 921   NORMALIZED FREE ENERGY PREDICTED BY IDOCK:   -4.07 KCAL/MOL
REMARK 922        TOTAL FREE ENERGY PREDICTED BY IDOCK:   -4.70 KCAL/MOL
REMARK 923 INTER-LIGAND FREE ENERGY PREDICTED BY IDOCK:   -5.46 KCAL/MOL
REMARK 924 INTRA-LIGAND FREE ENERGY PREDICTED BY IDOCK:    0.76 KCAL/MOL
REMARK 927      BINDING AFFINITY PREDICTED BY RF-SCORE:    0.00 PKD
ROOT
HETATM    1  N   UNL     1     -10.039  10.665  65.147  1.00  0.00    -0.294 NA 
HETATM    2  H2  UNL     1     -10.065  11.570  64.677  1.00  0.00     0.000 HD 
HETATM    3  C   UNL     1     -10.364  10.539  66.467  1.00  0.00    -0.233 C  
HETATM    4  H1  UNL     1      -9.770   9.815  64.651  1.00  0.00     0.000 HD 
HETATM    5  N   UNL     1     -10.706  11.617  67.096  1.00  0.00    -0.235 N  
HETATM    6  C   UNL     1     -11.048  11.561  68.424  1.00  0.00    -0.235 C  
HETATM    7  H   UNL     1     -10.722  12.511  66.604  1.00  0.00     0.000 HD 
HETATM    8  N   UNL     1     -10.865  10.347  69.119  1.00  0.00    -0.220 N  
HETATM    9  O   UNL     1     -11.489  12.560  68.985  1.00  0.00    -0.264 OA 
HETATM   10  C   UNL     1     -10.314   9.221  67.113  1.00  0.00    -0.330 C  
HETATM   11  C   UNL     1     -10.549   9.198  68.427  1.00  0.00    -0.172 C  
ENDROOT
BRANCH   8  12
HETATM   12  C   UNL     1     -11.205  10.380  70.546  1.00  0.00    -0.314 C  
HETATM   13  O   UNL     1     -10.395   9.379  71.210  1.00  0.00    -0.317 OA 
HETATM   14  C   UNL     1     -11.188   8.201  71.432  1.00  0.00    -0.254 C  
HETATM   15  C   UNL     1     -12.652   8.625  71.436  1.00  0.00    -0.291 C  
HETATM   16  F   UNL     1     -12.832  10.835  72.202  1.00  0.00    -0.516 F  
HETATM   17  C   UNL     1     -12.621  10.102  71.067  1.00  0.00    -0.381 C  
HETATM   18  O   UNL     1     -13.234   8.406  72.734  1.00  0.00    -0.626 OA 
HETATM   19  F   UNL     1     -13.625  10.424  70.231  1.00  0.00    -0.261 F  
HETATM   20  H   UNL     1     -14.147   8.670  72.737  1.00  0.00     0.000 HD 
BRANCH  14  21
HETATM   21  C   UNL     1     -10.882   7.208  70.302  1.00  0.00    -0.249 C  
HETATM   22  O   UNL     1     -10.869   5.874  70.804  1.00  0.00    -0.267 OA 
HETATM   23  H   UNL     1     -10.679   5.260  70.104  1.00  0.00     0.000 HD 
ENDBRANCH  14  21
ENDBRANCH   8  12
TORSDOF 2
ENDMDL
MODEL       98
REMARK 921   NORMALIZED FREE ENERGY PREDICTED BY IDOCK:   -4.06 KCAL/MOL
REMARK 922        TOTAL FREE ENERGY PREDICTED BY IDOCK:   -4.69 KCAL/MOL
REMARK 923 INTER-LIGAND FREE ENERGY PREDICTED BY IDOCK:   -4.73 KCAL/MOL
REMARK 924 INTRA-LIGAND FREE ENERGY PREDICTED BY IDOCK:    0.04 KCAL/MOL
REMARK 927      BINDING AFFINITY PREDICTED BY RF-SCORE:    0.00 PKD
ROOT
HETATM    1  N   UNL     1      -8.294   9.532  68.640  1.00  0.00    -0.115 NA 
HETATM    2  H2  UNL     1      -8.769   8.646  68.811  1.00  0.00     0.000 HD 
HETATM    3  C   UNL     1      -8.975  10.715  68.630  1.00  0.00    -0.170 C  
HETATM    4  H1  UNL     1      -7.289   9.572  68.470  1.00  0.00     0.000 HD 
HETATM    5  N   UNL     1     -10.250  10.664  68.847  1.00  0.00    -0.191 N  
HETATM    6  C   UNL     1     -10.995  11.817  68.853  1.00  0.00    -0.239 C  
HETATM    7  H   UNL     1     -10.703   9.765  69.013  1.00  0.00     0.000 HD 
HETATM    8  N   UNL     1     -10.377  13.023  68.464  1.00  0.00    -0.252 N  
HETATM    9  O   UNL     1     -12.178  11.778  69.180  1.00  0.00    -0.251 OA 
HETATM   10  C   UNL     1      -8.260  11.973  68.378  1.00  0.00    -0.151 C  
HETATM   11  C   UNL     1      -9.011  13.072  68.286  1.00  0.00    -0.177 C  
ENDROOT
BRANCH   8  12
HETATM   12  C   UNL     1     -11.250  14.202  68.448  1.00  0.00    -0.265 C  
HETATM   13  O   UNL     1     -11.638  14.439  67.073  1.00  0.00    -0.352 OA 
HETATM   14  C   UNL     1     -10.829  15.495  66.529  1.00  0.00    -0.284 C  
HETATM   15  C   UNL     1     -10.316  16.331  67.696  1.00  0.00    -0.284 C  
HETATM   16  F   UNL     1     -11.859  16.252  69.461  1.00  0.00    -0.290 F  
HETATM   17  C   UNL     1     -10.789  15.582  68.936  1.00  0.00    -0.254 C  
HETATM   18  O   UNL     1     -10.854  17.664  67.634  1.00  0.00    -0.350 OA 
HETATM   19  F   UNL     1      -9.850  15.578  69.899  1.00  0.00    -0.261 F  
HETATM   20  H   UNL     1     -10.534  18.185  68.361  1.00  0.00     0.000 HD 
BRANCH  14  21
HETATM   21  C   UNL     1      -9.682  14.850  65.738  1.00  0.00    -0.324 C  
HETATM   22  O   UNL     1     -10.197  13.941  64.770  1.00  0.00    -0.521 OA 
HETATM   23  H   UNL     1      -9.488  13.542  64.280  1.00  0.00     0.000 HD 
ENDBRANCH  14  21
ENDBRANCH   8  12
TORSDOF 2
ENDMDL
MODEL       99
REMARK 921   NORMALIZED FREE ENERGY PREDICTED BY IDOCK:   -4.05 KCAL/MOL
REMARK 922        TOTAL FREE ENERGY PREDICTED BY IDOCK:   -4.69 KCAL/MOL
REMARK 923 INTER-LIGAND FREE ENERGY PREDICTED BY IDOCK:   -5.11 KCAL/MOL
REMARK 924 INTRA-LIGAND FREE ENERGY PREDICTED BY IDOCK:    0.42 KCAL/MOL
REMARK 927      BINDING AFFINITY PREDICTED BY RF-SCORE:    0.00 PKD
ROOT
HETATM    1  N   UNL     1     -10.621  18.403  68.835  1.00  0.00    -0.317 NA 
HETATM    2  H2  UNL     1     -11.052  19.165  68.310  1.00  0.00     0.000 HD 
HETATM    3  C   UNL     1     -10.237  17.245  68.222  1.00  0.00    -0.348 C  
HETATM    4  H1  UNL     1     -10.458  18.474  69.839  1.00  0.00     0.000 HD 
HETATM    5  N   UNL     1     -10.443  17.155  66.947  1.00  0.00    -0.305 N  
HETATM    6  C   UNL     1     -10.078  16.020  66.268  1.00  0.00    -0.313 C  
HETATM    7  H   UNL     1     -10.878  17.930  66.446  1.00  0.00     0.000 HD 
HETATM    8  N   UNL     1      -9.628  14.906  67.007  1.00  0.00    -0.231 N  
HETATM    9  O   UNL     1     -10.162  15.986  65.043  1.00  0.00    -0.513 OA 
HETATM   10  C   UNL     1      -9.622  16.167  69.007  1.00  0.00    -0.251 C  
HETATM   11  C   UNL     1      -9.366  15.032  68.353  1.00  0.00    -0.193 C  
ENDROOT
BRANCH   8  12
HETATM   12  C   UNL     1      -9.305  13.714  66.215  1.00  0.00    -0.133 C  
HETATM   13  O   UNL     1     -10.331  13.573  65.201  1.00  0.00    -0.330 OA 
HETATM   14  C   UNL     1     -11.278  12.577  65.623  1.00  0.00    -0.317 C  
HETATM   15  C   UNL     1     -10.575  11.667  66.624  1.00  0.00    -0.243 C  
HETATM   16  F   UNL     1      -8.281  11.582  66.139  1.00  0.00    -0.165 F  
HETATM   17  C   UNL     1      -9.210  12.311  66.829  1.00  0.00    -0.210 C  
HETATM   18  O   UNL     1     -10.467  10.331  66.099  1.00  0.00    -0.210 OA 
HETATM   19  F   UNL     1      -8.830  12.262  68.119  1.00  0.00    -0.161 F  
HETATM   20  H   UNL     1     -10.030   9.764  66.724  1.00  0.00     0.000 HD 
BRANCH  14  21
HETATM   21  C   UNL     1     -12.476  13.302  66.250  1.00  0.00    -0.216 C  
HETATM   22  O   UNL     1     -12.966  14.307  65.367  1.00  0.00    -0.654 OA 
HETATM   23  H   UNL     1     -13.707  14.756  65.755  1.00  0.00     0.000 HD 
ENDBRANCH  14  21
ENDBRANCH   8  12
TORSDOF 2
ENDMDL
MODEL      100
REMARK 921   NORMALIZED FREE ENERGY PREDICTED BY IDOCK:   -4.02 KCAL/MOL
REMARK 922        TOTAL FREE ENERGY PREDICTED BY IDOCK:   -4.65 KCAL/MOL
REMARK 923 INTER-LIGAND FREE ENERGY PREDICTED BY IDOCK:   -5.33 KCAL/MOL
REMARK 924 INTRA-LIGAND FREE ENERGY PREDICTED BY IDOCK:    0.69 KCAL/MOL
REMARK 927      BINDING AFFINITY PREDICTED BY RF-SCORE:    0.00 PKD
ROOT
HETATM    1  N   UNL     1      -9.411  16.673  68.336  1.00  0.00    -0.224 NA 
HETATM    2  H2  UNL     1     -10.027  17.484  68.409  1.00  0.00     0.000 HD 
HETATM    3  C   UNL     1      -9.781  15.560  67.637  1.00  0.00    -0.212 C  
HETATM    4  H1  UNL     1      -8.493  16.660  68.781  1.00  0.00     0.000 HD 
HETATM    5  N   UNL     1     -10.946  15.577  67.073  1.00  0.00    -0.311 N  
HETATM    6  C   UNL     1     -11.378  14.491  66.352  1.00  0.00    -0.349 C  
HETATM    7  H   UNL     1     -11.544  16.399  67.163  1.00  0.00     0.000 HD 
HETATM    8  N   UNL     1     -10.605  13.312  66.376  1.00  0.00    -0.281 N  
HETATM    9  O   UNL     1     -12.427  14.558  65.717  1.00  0.00    -0.323 OA 
HETATM   10  C   UNL     1      -8.871  14.410  67.554  1.00  0.00    -0.197 C  
HETATM   11  C   UNL     1      -9.346  13.325  66.938  1.00  0.00    -0.244 C  
ENDROOT
BRANCH   8  12
HETATM   12  C   UNL     1     -11.158  12.181  65.624  1.00  0.00    -0.316 C  
HETATM   13  O   UNL     1     -10.730  10.966  66.287  1.00  0.00    -0.243 OA 
HETATM   14  C   UNL     1      -9.612  10.408  65.577  1.00  0.00    -0.234 C  
HETATM   15  C   UNL     1      -9.669  10.929  64.145  1.00  0.00    -0.296 C  
HETATM   16  F   UNL     1     -11.898  11.336  63.541  1.00  0.00    -0.430 F  
HETATM   17  C   UNL     1     -10.823  11.923  64.149  1.00  0.00    -0.356 C  
HETATM   18  O   UNL     1      -9.893   9.845  63.225  1.00  0.00    -0.504 OA 
HETATM   19  F   UNL     1     -10.537  13.014  63.415  1.00  0.00    -0.288 F  
HETATM   20  H   UNL     1      -9.928  10.170  62.333  1.00  0.00     0.000 HD 
BRANCH  14  21
HETATM   21  C   UNL     1      -8.329  10.848  66.297  1.00  0.00    -0.164 C  
HETATM   22  O   UNL     1      -7.279  11.058  65.357  1.00  0.00    -0.361 OA 
HETATM   23  H   UNL     1      -6.486  11.330  65.802  1.00  0.00     0.000 HD 
ENDBRANCH  14  21
ENDBRANCH   8  12
TORSDOF 2
ENDMDL
MODEL      101
REMARK 921   NORMALIZED FREE ENERGY PREDICTED BY IDOCK:   -3.99 KCAL/MOL
REMARK 922        TOTAL FREE ENERGY PREDICTED BY IDOCK:   -4.61 KCAL/MOL
REMARK 923 INTER-LIGAND FREE ENERGY PREDICTED BY IDOCK:   -4.50 KCAL/MOL
REMARK 924 INTRA-LIGAND FREE ENERGY PREDICTED BY IDOCK:   -0.12 KCAL/MOL
REMARK 927      BINDING AFFINITY PREDICTED BY RF-SCORE:    0.00 PKD
ROOT
HETATM    1  N   UNL     1      -9.802   4.052  70.852  1.00  0.00    -0.182 NA 
HETATM    2  H2  UNL     1      -8.978   3.669  71.316  1.00  0.00     0.000 HD 
HETATM    3  C   UNL     1      -9.814   5.324  70.357  1.00  0.00    -0.213 C  
HETATM    4  H1  UNL     1     -10.653   3.500  70.738  1.00  0.00     0.000 HD 
HETATM    5  N   UNL     1      -8.735   6.024  70.501  1.00  0.00    -0.136 N  
HETATM    6  C   UNL     1      -8.678   7.309  70.023  1.00  0.00    -0.141 C  
HETATM    7  H   UNL     1      -7.925   5.619  70.971  1.00  0.00     0.000 HD 
HETATM    8  N   UNL     1      -9.858   7.898  69.523  1.00  0.00    -0.174 N  
HETATM    9  O   UNL     1      -7.616   7.926  70.052  1.00  0.00    -0.080 OA 
HETATM   10  C   UNL     1     -11.019   5.844  69.696  1.00  0.00    -0.447 C  
HETATM   11  C   UNL     1     -10.983   7.127  69.329  1.00  0.00    -0.136 C  
ENDROOT
BRANCH   8  12
HETATM   12  C   UNL     1      -9.729   9.290  69.078  1.00  0.00    -0.162 C  
HETATM   13  O   UNL     1      -9.956  10.138  70.230  1.00  0.00    -0.204 OA 
HETATM   14  C   UNL     1     -11.301  10.643  70.187  1.00  0.00    -0.323 C  
HETATM   15  C   UNL     1     -11.766  10.595  68.736  1.00  0.00    -0.188 C  
HETATM   16  F   UNL     1      -9.922  10.848  67.308  1.00  0.00    -0.191 F  
HETATM   17  C   UNL     1     -10.629   9.902  67.996  1.00  0.00    -0.242 C  
HETATM   18  O   UNL     1     -11.999  11.925  68.239  1.00  0.00    -0.456 OA 
HETATM   19  F   UNL     1     -11.093   9.044  67.069  1.00  0.00    -0.240 F  
HETATM   20  H   UNL     1     -12.289  11.895  67.335  1.00  0.00     0.000 HD 
BRANCH  14  21
HETATM   21  C   UNL     1     -12.166   9.757  71.096  1.00  0.00    -0.362 C  
HETATM   22  O   UNL     1     -13.520   9.762  70.651  1.00  0.00    -0.619 OA 
HETATM   23  H   UNL     1     -14.054   9.214  71.213  1.00  0.00     0.000 HD 
ENDBRANCH  14  21
ENDBRANCH   8  12
TORSDOF 2
ENDMDL
MODEL      102
REMARK 921   NORMALIZED FREE ENERGY PREDICTED BY IDOCK:   -3.99 KCAL/MOL
REMARK 922        TOTAL FREE ENERGY PREDICTED BY IDOCK:   -4.61 KCAL/MOL
REMARK 923 INTER-LIGAND FREE ENERGY PREDICTED BY IDOCK:   -5.54 KCAL/MOL
REMARK 924 INTRA-LIGAND FREE ENERGY PREDICTED BY IDOCK:    0.93 KCAL/MOL
REMARK 927      BINDING AFFINITY PREDICTED BY RF-SCORE:    0.00 PKD
ROOT
HETATM    1  N   UNL     1     -12.004  16.239  63.711  1.00  0.00    -1.285 NA 
HETATM    2  H2  UNL     1     -12.881  15.949  63.277  1.00  0.00     0.000 HD 
HETATM    3  C   UNL     1     -11.487  15.572  64.785  1.00  0.00    -0.313 C  
HETATM    4  H1  UNL     1     -11.477  17.039  63.362  1.00  0.00     0.000 HD 
HETATM    5  N   UNL     1     -12.157  14.557  65.228  1.00  0.00    -0.361 N  
HETATM    6  C   UNL     1     -11.692  13.840  66.302  1.00  0.00    -0.376 C  
HETATM    7  H   UNL     1     -13.032  14.289  64.777  1.00  0.00     0.000 HD 
HETATM    8  N   UNL     1     -10.568  14.325  67.003  1.00  0.00    -0.278 N  
HETATM    9  O   UNL     1     -12.263  12.808  66.641  1.00  0.00    -0.481 OA 
HETATM   10  C   UNL     1     -10.224  16.018  65.387  1.00  0.00    -0.333 C  
HETATM   11  C   UNL     1      -9.837  15.376  66.491  1.00  0.00    -0.272 C  
ENDROOT
BRANCH   8  12
HETATM   12  C   UNL     1     -10.162  13.533  68.169  1.00  0.00    -0.249 C  
HETATM   13  O   UNL     1      -9.206  14.320  68.920  1.00  0.00    -0.154 OA 
HETATM   14  C   UNL     1      -7.877  13.865  68.617  1.00  0.00    -0.120 C  
HETATM   15  C   UNL     1      -7.984  12.427  68.121  1.00  0.00    -0.153 C  
HETATM   16  F   UNL     1      -9.838  11.386  69.111  1.00  0.00    -0.187 F  
HETATM   17  C   UNL     1      -9.482  12.163  68.043  1.00  0.00    -0.201 C  
HETATM   18  O   UNL     1      -7.325  11.531  69.034  1.00  0.00    -0.115 OA 
HETATM   19  F   UNL     1      -9.801  11.450  66.948  1.00  0.00    -0.197 F  
HETATM   20  H   UNL     1      -7.391  10.635  68.725  1.00  0.00     0.000 HD 
BRANCH  14  21
HETATM   21  C   UNL     1      -7.292  14.798  67.548  1.00  0.00    -0.201 C  
HETATM   22  O   UNL     1      -6.008  14.337  67.135  1.00  0.00    -0.264 OA 
HETATM   23  H   UNL     1      -5.647  14.915  66.473  1.00  0.00     0.000 HD 
ENDBRANCH  14  21
ENDBRANCH   8  12
TORSDOF 2
ENDMDL
MODEL      103
REMARK 921   NORMALIZED FREE ENERGY PREDICTED BY IDOCK:   -3.97 KCAL/MOL
REMARK 922        TOTAL FREE ENERGY PREDICTED BY IDOCK:   -4.59 KCAL/MOL
REMARK 923 INTER-LIGAND FREE ENERGY PREDICTED BY IDOCK:   -4.45 KCAL/MOL
REMARK 924 INTRA-LIGAND FREE ENERGY PREDICTED BY IDOCK:   -0.15 KCAL/MOL
REMARK 927      BINDING AFFINITY PREDICTED BY RF-SCORE:    0.00 PKD
ROOT
HETATM    1  N   UNL     1     -13.718  10.029  72.517  1.00  0.00    -0.571 NA 
HETATM    2  H2  UNL     1     -14.382   9.742  73.236  1.00  0.00     0.000 HD 
HETATM    3  C   UNL     1     -12.787   9.162  72.020  1.00  0.00    -0.408 C  
HETATM    4  H1  UNL     1     -13.722  10.976  72.137  1.00  0.00     0.000 HD 
HETATM    5  N   UNL     1     -12.783   7.961  72.502  1.00  0.00    -0.553 N  
HETATM    6  C   UNL     1     -11.876   7.038  72.044  1.00  0.00    -0.298 C  
HETATM    7  H   UNL     1     -13.456   7.699  73.222  1.00  0.00     0.000 HD 
HETATM    8  N   UNL     1     -10.857   7.468  71.168  1.00  0.00    -0.236 N  
HETATM    9  O   UNL     1     -11.954   5.869  72.412  1.00  0.00    -0.298 OA 
HETATM   10  C   UNL     1     -11.845   9.610  70.986  1.00  0.00    -0.428 C  
HETATM   11  C   UNL     1     -10.904   8.734  70.626  1.00  0.00    -0.232 C  
ENDROOT
BRANCH   8  12
HETATM   12  C   UNL     1      -9.897   6.435  70.764  1.00  0.00    -0.184 C  
HETATM   13  O   UNL     1      -8.862   6.383  71.776  1.00  0.00    -0.139 OA 
HETATM   14  C   UNL     1      -7.710   7.107  71.312  1.00  0.00    -0.093 C  
HETATM   15  C   UNL     1      -7.771   7.144  69.790  1.00  0.00    -0.108 C  
HETATM   16  F   UNL     1      -8.879   5.234  68.998  1.00  0.00    -0.098 F  
HETATM   17  C   UNL     1      -9.111   6.504  69.448  1.00  0.00    -0.141 C  
HETATM   18  O   UNL     1      -6.666   6.414  69.225  1.00  0.00    -0.045 OA 
HETATM   19  F   UNL     1      -9.721   7.147  68.436  1.00  0.00    -0.139 F  
HETATM   20  H   UNL     1      -6.704   6.438  68.276  1.00  0.00     0.000 HD 
BRANCH  14  21
HETATM   21  C   UNL     1      -7.761   8.515  71.922  1.00  0.00    -0.104 C  
HETATM   22  O   UNL     1      -8.317   8.467  73.233  1.00  0.00    -0.372 OA 
HETATM   23  H   UNL     1      -8.349   9.338  73.611  1.00  0.00     0.000 HD 
ENDBRANCH  14  21
ENDBRANCH   8  12
TORSDOF 2
ENDMDL
MODEL      104
REMARK 921   NORMALIZED FREE ENERGY PREDICTED BY IDOCK:   -3.93 KCAL/MOL
REMARK 922        TOTAL FREE ENERGY PREDICTED BY IDOCK:   -4.55 KCAL/MOL
REMARK 923 INTER-LIGAND FREE ENERGY PREDICTED BY IDOCK:   -4.42 KCAL/MOL
REMARK 924 INTRA-LIGAND FREE ENERGY PREDICTED BY IDOCK:   -0.13 KCAL/MOL
REMARK 927      BINDING AFFINITY PREDICTED BY RF-SCORE:    0.00 PKD
ROOT
HETATM    1  N   UNL     1      -8.702   7.899  74.525  1.00  0.00    -0.437 NA 
HETATM    2  H2  UNL     1      -9.333   7.808  75.322  1.00  0.00     0.000 HD 
HETATM    3  C   UNL     1      -9.173   7.921  73.243  1.00  0.00    -0.282 C  
HETATM    4  H1  UNL     1      -7.693   7.978  74.651  1.00  0.00     0.000 HD 
HETATM    5  N   UNL     1     -10.454   7.821  73.083  1.00  0.00    -0.360 N  
HETATM    6  C   UNL     1     -10.994   7.839  71.822  1.00  0.00    -0.239 C  
HETATM    7  H   UNL     1     -11.063   7.728  73.897  1.00  0.00     0.000 HD 
HETATM    8  N   UNL     1     -10.124   7.807  70.713  1.00  0.00    -0.192 N  
HETATM    9  O   UNL     1     -12.214   7.868  71.679  1.00  0.00    -0.287 OA 
HETATM   10  C   UNL     1      -8.237   8.051  72.119  1.00  0.00    -0.178 C  
HETATM   11  C   UNL     1      -8.767   7.964  70.897  1.00  0.00    -0.137 C  
ENDROOT
BRANCH   8  12
HETATM   12  C   UNL     1     -10.777   7.777  69.400  1.00  0.00    -0.171 C  
HETATM   13  O   UNL     1     -11.268   6.431  69.187  1.00  0.00    -0.353 OA 
HETATM   14  C   UNL     1     -10.354   5.724  68.331  1.00  0.00    -0.213 C  
HETATM   15  C   UNL     1      -9.579   6.762  67.528  1.00  0.00    -0.127 C  
HETATM   16  F   UNL     1     -10.907   8.670  67.212  1.00  0.00    -0.358 F  
HETATM   17  C   UNL     1     -10.034   8.100  68.096  1.00  0.00    -0.186 C  
HETATM   18  O   UNL     1      -9.883   6.641  66.126  1.00  0.00    -0.398 OA 
HETATM   19  F   UNL     1      -9.008   8.964  68.207  1.00  0.00    -0.134 F  
HETATM   20  H   UNL     1      -9.399   7.288  65.625  1.00  0.00     0.000 HD 
BRANCH  14  21
HETATM   21  C   UNL     1      -9.430   4.882  69.222  1.00  0.00    -0.142 C  
HETATM   22  O   UNL     1     -10.117   4.473  70.402  1.00  0.00    -0.224 OA 
HETATM   23  H   UNL     1      -9.546   3.952  70.953  1.00  0.00     0.000 HD 
ENDBRANCH  14  21
ENDBRANCH   8  12
TORSDOF 2
ENDMDL
MODEL      105
REMARK 921   NORMALIZED FREE ENERGY PREDICTED BY IDOCK:   -3.92 KCAL/MOL
REMARK 922        TOTAL FREE ENERGY PREDICTED BY IDOCK:   -4.53 KCAL/MOL
REMARK 923 INTER-LIGAND FREE ENERGY PREDICTED BY IDOCK:   -4.47 KCAL/MOL
REMARK 924 INTRA-LIGAND FREE ENERGY PREDICTED BY IDOCK:   -0.06 KCAL/MOL
REMARK 927      BINDING AFFINITY PREDICTED BY RF-SCORE:    0.00 PKD
ROOT
HETATM    1  N   UNL     1     -10.075   3.843  74.285  1.00  0.00    -0.152 NA 
HETATM    2  H2  UNL     1      -9.708   3.787  75.236  1.00  0.00     0.000 HD 
HETATM    3  C   UNL     1     -10.040   5.010  73.576  1.00  0.00    -0.166 C  
HETATM    4  H1  UNL     1     -10.485   3.031  73.824  1.00  0.00     0.000 HD 
HETATM    5  N   UNL     1      -9.520   6.041  74.162  1.00  0.00    -0.145 N  
HETATM    6  C   UNL     1      -9.450   7.244  73.504  1.00  0.00    -0.224 C  
HETATM    7  H   UNL     1      -9.162   5.959  75.113  1.00  0.00     0.000 HD 
HETATM    8  N   UNL     1     -10.093   7.371  72.256  1.00  0.00    -0.191 N  
HETATM    9  O   UNL     1      -8.847   8.185  74.014  1.00  0.00    -0.236 OA 
HETATM   10  C   UNL     1     -10.579   5.057  72.211  1.00  0.00    -0.269 C  
HETATM   11  C   UNL     1     -10.597   6.255  71.624  1.00  0.00    -0.227 C  
ENDROOT
BRANCH   8  12
HETATM   12  C   UNL     1     -10.017   8.700  71.640  1.00  0.00    -0.282 C  
HETATM   13  O   UNL     1     -10.994   9.543  72.299  1.00  0.00     0.223 OA 
HETATM   14  C   UNL     1     -12.167   9.640  71.474  1.00  0.00    -0.399 C  
HETATM   15  C   UNL     1     -11.748   9.341  70.039  1.00  0.00     0.112 C  
HETATM   16  F   UNL     1      -9.516   9.986  69.718  1.00  0.00    -0.204 F  
HETATM   17  C   UNL     1     -10.283   8.939  70.147  1.00  0.00    -0.196 C  
HETATM   18  O   UNL     1     -11.928  10.504  69.211  1.00  0.00    -0.487 OA 
HETATM   19  F   UNL     1      -9.991   7.911  69.330  1.00  0.00    -0.174 F  
HETATM   20  H   UNL     1     -11.667  10.317  68.316  1.00  0.00     0.000 HD 
BRANCH  14  21
HETATM   21  C   UNL     1     -13.194   8.625  71.995  1.00  0.00    -0.386 C  
HETATM   22  O   UNL     1     -13.713   9.046  73.253  1.00  0.00    -1.072 OA 
HETATM   23  H   UNL     1     -14.349   8.418  73.576  1.00  0.00     0.000 HD 
ENDBRANCH  14  21
ENDBRANCH   8  12
TORSDOF 2
ENDMDL
MODEL      106
REMARK 921   NORMALIZED FREE ENERGY PREDICTED BY IDOCK:   -3.90 KCAL/MOL
REMARK 922        TOTAL FREE ENERGY PREDICTED BY IDOCK:   -4.51 KCAL/MOL
REMARK 923 INTER-LIGAND FREE ENERGY PREDICTED BY IDOCK:   -4.34 KCAL/MOL
REMARK 924 INTRA-LIGAND FREE ENERGY PREDICTED BY IDOCK:   -0.17 KCAL/MOL
REMARK 927      BINDING AFFINITY PREDICTED BY RF-SCORE:    0.00 PKD
ROOT
HETATM    1  N   UNL     1      -5.639  12.050  66.569  1.00  0.00    -0.490 NA 
HETATM    2  H2  UNL     1      -5.709  12.985  66.166  1.00  0.00     0.000 HD 
HETATM    3  C   UNL     1      -6.732  11.237  66.676  1.00  0.00    -0.132 C  
HETATM    4  H1  UNL     1      -4.751  11.682  66.909  1.00  0.00     0.000 HD 
HETATM    5  N   UNL     1      -7.859  11.704  66.244  1.00  0.00    -0.379 N  
HETATM    6  C   UNL     1      -8.996  10.938  66.318  1.00  0.00    -0.176 C  
HETATM    7  H   UNL     1      -7.903  12.643  65.848  1.00  0.00     0.000 HD 
HETATM    8  N   UNL     1      -8.941   9.712  67.013  1.00  0.00    -0.134 N  
HETATM    9  O   UNL     1     -10.035  11.334  65.798  1.00  0.00    -0.218 OA 
HETATM   10  C   UNL     1      -6.596   9.898  67.263  1.00  0.00    -0.070 C  
HETATM   11  C   UNL     1      -7.726   9.206  67.422  1.00  0.00    -0.092 C  
ENDROOT
BRANCH   8  12
HETATM   12  C   UNL     1     -10.207   8.975  67.092  1.00  0.00    -0.265 C  
HETATM   13  O   UNL     1     -11.007   9.595  68.129  1.00  0.00    -0.216 OA 
HETATM   14  C   UNL     1     -10.910   8.814  69.332  1.00  0.00    -0.110 C  
HETATM   15  C   UNL     1     -10.519   7.396  68.930  1.00  0.00    -0.203 C  
HETATM   16  F   UNL     1     -11.349   6.925  66.787  1.00  0.00    -0.464 F  
HETATM   17  C   UNL     1     -10.276   7.480  67.429  1.00  0.00    -0.249 C  
HETATM   18  O   UNL     1     -11.576   6.474  69.254  1.00  0.00    -0.628 OA 
HETATM   19  F   UNL     1      -9.209   6.747  67.060  1.00  0.00    -0.124 F  
HETATM   20  H   UNL     1     -11.332   5.590  69.005  1.00  0.00     0.000 HD 
BRANCH  14  21
HETATM   21  C   UNL     1      -9.851   9.466  70.233  1.00  0.00    -0.243 C  
HETATM   22  O   UNL     1      -8.930   8.487  70.705  1.00  0.00    -0.144 OA 
HETATM   23  H   UNL     1      -8.275   8.891  71.263  1.00  0.00     0.000 HD 
ENDBRANCH  14  21
ENDBRANCH   8  12
TORSDOF 2
ENDMDL
MODEL      107
REMARK 921   NORMALIZED FREE ENERGY PREDICTED BY IDOCK:   -3.89 KCAL/MOL
REMARK 922        TOTAL FREE ENERGY PREDICTED BY IDOCK:   -4.50 KCAL/MOL
REMARK 923 INTER-LIGAND FREE ENERGY PREDICTED BY IDOCK:   -4.36 KCAL/MOL
REMARK 924 INTRA-LIGAND FREE ENERGY PREDICTED BY IDOCK:   -0.14 KCAL/MOL
REMARK 927      BINDING AFFINITY PREDICTED BY RF-SCORE:    0.00 PKD
ROOT
HETATM    1  N   UNL     1     -11.536  14.909  66.655  1.00  0.00    -0.310 NA 
HETATM    2  H2  UNL     1     -12.236  15.381  67.229  1.00  0.00     0.000 HD 
HETATM    3  C   UNL     1     -11.292  13.572  66.787  1.00  0.00    -0.328 C  
HETATM    4  H1  UNL     1     -10.990  15.415  65.959  1.00  0.00     0.000 HD 
HETATM    5  N   UNL     1     -11.986  12.929  67.671  1.00  0.00    -0.332 N  
HETATM    6  C   UNL     1     -11.792  11.582  67.852  1.00  0.00    -0.184 C  
HETATM    7  H   UNL     1     -12.678  13.424  68.234  1.00  0.00     0.000 HD 
HETATM    8  N   UNL     1     -10.724  10.955  67.178  1.00  0.00    -0.255 N  
HETATM    9  O   UNL     1     -12.535  10.954  68.601  1.00  0.00    -0.418 OA 
HETATM   10  C   UNL     1     -10.276  12.925  65.946  1.00  0.00    -0.299 C  
HETATM   11  C   UNL     1     -10.028  11.639  66.205  1.00  0.00    -0.221 C  
ENDROOT
BRANCH   8  12
HETATM   12  C   UNL     1     -10.551   9.527  67.462  1.00  0.00    -0.275 C  
HETATM   13  O   UNL     1      -9.849   9.415  68.725  1.00  0.00    -0.156 OA 
HETATM   14  C   UNL     1      -8.459   9.150  68.471  1.00  0.00    -0.128 C  
HETATM   15  C   UNL     1      -8.355   8.524  67.085  1.00  0.00    -0.111 C  
HETATM   16  F   UNL     1     -10.318   7.333  66.607  1.00  0.00    -0.310 F  
HETATM   17  C   UNL     1      -9.773   8.585  66.533  1.00  0.00    -0.260 C  
HETATM   18  O   UNL     1      -7.871   7.172  67.180  1.00  0.00    -0.106 OA 
HETATM   19  F   UNL     1      -9.782   8.913  65.228  1.00  0.00    -0.244 F  
HETATM   20  H   UNL     1      -7.806   6.782  66.316  1.00  0.00     0.000 HD 
BRANCH  14  21
HETATM   21  C   UNL     1      -7.702  10.483  68.557  1.00  0.00    -0.104 C  
HETATM   22  O   UNL     1      -8.156  11.240  69.676  1.00  0.00    -0.322 OA 
HETATM   23  H   UNL     1      -7.688  12.065  69.729  1.00  0.00     0.000 HD 
ENDBRANCH  14  21
ENDBRANCH   8  12
TORSDOF 2
ENDMDL
MODEL      108
REMARK 921   NORMALIZED FREE ENERGY PREDICTED BY IDOCK:   -3.89 KCAL/MOL
REMARK 922        TOTAL FREE ENERGY PREDICTED BY IDOCK:   -4.50 KCAL/MOL
REMARK 923 INTER-LIGAND FREE ENERGY PREDICTED BY IDOCK:   -4.47 KCAL/MOL
REMARK 924 INTRA-LIGAND FREE ENERGY PREDICTED BY IDOCK:   -0.03 KCAL/MOL
REMARK 927      BINDING AFFINITY PREDICTED BY RF-SCORE:    0.00 PKD
ROOT
HETATM    1  N   UNL     1     -12.882  11.609  71.608  1.00  0.00    -0.383 NA 
HETATM    2  H2  UNL     1     -13.561  12.329  71.358  1.00  0.00     0.000 HD 
HETATM    3  C   UNL     1     -12.133  10.976  70.658  1.00  0.00    -0.373 C  
HETATM    4  H1  UNL     1     -12.734  11.332  72.579  1.00  0.00     0.000 HD 
HETATM    5  N   UNL     1     -12.322  11.328  69.426  1.00  0.00    -0.236 N  
HETATM    6  C   UNL     1     -11.599  10.734  68.422  1.00  0.00    -0.239 C  
HETATM    7  H   UNL     1     -13.008  12.049  69.202  1.00  0.00     0.000 HD 
HETATM    8  N   UNL     1     -10.777   9.633  68.740  1.00  0.00    -0.221 N  
HETATM    9  O   UNL     1     -11.691  11.155  67.272  1.00  0.00    -0.540 OA 
HETATM   10  C   UNL     1     -11.167   9.942  71.052  1.00  0.00    -0.435 C  
HETATM   11  C   UNL     1     -10.548   9.303  70.058  1.00  0.00    -0.228 C  
ENDROOT
BRANCH   8  12
HETATM   12  C   UNL     1     -10.077   9.021  67.606  1.00  0.00    -0.216 C  
HETATM   13  O   UNL     1     -10.899   7.929  67.125  1.00  0.00    -0.296 OA 
HETATM   14  C   UNL     1     -10.381   6.688  67.632  1.00  0.00    -0.199 C  
HETATM   15  C   UNL     1      -8.909   6.905  67.965  1.00  0.00    -0.123 C  
HETATM   16  F   UNL     1      -8.013   8.547  66.550  1.00  0.00    -0.094 F  
HETATM   17  C   UNL     1      -8.683   8.393  67.733  1.00  0.00    -0.137 C  
HETATM   18  O   UNL     1      -8.077   6.094  67.116  1.00  0.00    -0.105 OA 
HETATM   19  F   UNL     1      -7.886   8.925  68.677  1.00  0.00    -0.095 F  
HETATM   20  H   UNL     1      -7.160   6.228  67.324  1.00  0.00     0.000 HD 
BRANCH  14  21
HETATM   21  C   UNL     1     -11.200   6.308  68.874  1.00  0.00    -0.309 C  
HETATM   22  O   UNL     1     -10.646   5.154  69.500  1.00  0.00    -0.239 OA 
HETATM   23  H   UNL     1     -11.153   4.919  70.268  1.00  0.00     0.000 HD 
ENDBRANCH  14  21
ENDBRANCH   8  12
TORSDOF 2
ENDMDL
MODEL      109
REMARK 921   NORMALIZED FREE ENERGY PREDICTED BY IDOCK:   -3.88 KCAL/MOL
REMARK 922        TOTAL FREE ENERGY PREDICTED BY IDOCK:   -4.49 KCAL/MOL
REMARK 923 INTER-LIGAND FREE ENERGY PREDICTED BY IDOCK:   -4.47 KCAL/MOL
REMARK 924 INTRA-LIGAND FREE ENERGY PREDICTED BY IDOCK:   -0.03 KCAL/MOL
REMARK 927      BINDING AFFINITY PREDICTED BY RF-SCORE:    0.00 PKD
ROOT
HETATM    1  N   UNL     1     -12.224  14.402  67.829  1.00  0.00    -0.624 NA 
HETATM    2  H2  UNL     1     -12.729  14.280  68.707  1.00  0.00     0.000 HD 
HETATM    3  C   UNL     1     -11.604  13.353  67.213  1.00  0.00    -0.360 C  
HETATM    4  H1  UNL     1     -12.160  15.312  67.374  1.00  0.00     0.000 HD 
HETATM    5  N   UNL     1     -11.685  12.197  67.790  1.00  0.00    -0.337 N  
HETATM    6  C   UNL     1     -11.087  11.100  67.223  1.00  0.00    -0.302 C  
HETATM    7  H   UNL     1     -12.194  12.101  68.669  1.00  0.00     0.000 HD 
HETATM    8  N   UNL     1     -10.258  11.287  66.097  1.00  0.00    -0.237 N  
HETATM    9  O   UNL     1     -11.269   9.985  67.707  1.00  0.00    -0.256 OA 
HETATM   10  C   UNL     1     -10.883  13.564  65.951  1.00  0.00    -0.279 C  
HETATM   11  C   UNL     1     -10.222  12.511  65.465  1.00  0.00    -0.275 C  
ENDROOT
BRANCH   8  12
HETATM   12  C   UNL     1      -9.615  10.075  65.579  1.00  0.00    -0.266 C  
HETATM   13  O   UNL     1      -8.594   9.683  66.530  1.00  0.00    -0.125 OA 
HETATM   14  C   UNL     1      -7.310  10.117  66.051  1.00  0.00    -0.118 C  
HETATM   15  C   UNL     1      -7.414  10.281  64.539  1.00  0.00    -0.088 C  
HETATM   16  F   UNL     1      -9.009   8.785  63.690  1.00  0.00    -0.125 F  
HETATM   17  C   UNL     1      -8.885  10.036  64.230  1.00  0.00    -0.220 C  
HETATM   18  O   UNL     1      -6.558   9.335  63.872  1.00  0.00    -0.089 OA 
HETATM   19  F   UNL     1      -9.342  10.887  63.293  1.00  0.00    -0.203 F  
HETATM   20  H   UNL     1      -6.622   9.438  62.929  1.00  0.00     0.000 HD 
BRANCH  14  21
HETATM   21  C   UNL     1      -6.971  11.442  66.749  1.00  0.00    -0.128 C  
HETATM   22  O   UNL     1      -5.823  12.038  66.150  1.00  0.00    -0.437 OA 
HETATM   23  H   UNL     1      -5.613  12.857  66.582  1.00  0.00     0.000 HD 
ENDBRANCH  14  21
ENDBRANCH   8  12
TORSDOF 2
ENDMDL
MODEL      110
REMARK 921   NORMALIZED FREE ENERGY PREDICTED BY IDOCK:   -3.86 KCAL/MOL
REMARK 922        TOTAL FREE ENERGY PREDICTED BY IDOCK:   -4.46 KCAL/MOL
REMARK 923 INTER-LIGAND FREE ENERGY PREDICTED BY IDOCK:   -4.30 KCAL/MOL
REMARK 924 INTRA-LIGAND FREE ENERGY PREDICTED BY IDOCK:   -0.16 KCAL/MOL
REMARK 927      BINDING AFFINITY PREDICTED BY RF-SCORE:    0.00 PKD
ROOT
HETATM    1  N   UNL     1     -11.257  13.508  67.584  1.00  0.00    -0.269 NA 
HETATM    2  H2  UNL     1     -11.649  14.366  67.972  1.00  0.00     0.000 HD 
HETATM    3  C   UNL     1     -11.265  12.339  68.291  1.00  0.00    -0.267 C  
HETATM    4  H1  UNL     1     -10.844  13.485  66.652  1.00  0.00     0.000 HD 
HETATM    5  N   UNL     1     -11.790  12.368  69.474  1.00  0.00    -0.310 N  
HETATM    6  C   UNL     1     -11.833  11.228  70.236  1.00  0.00    -0.357 C  
HETATM    7  H   UNL     1     -12.173  13.240  69.840  1.00  0.00     0.000 HD 
HETATM    8  N   UNL     1     -11.157  10.079  69.774  1.00  0.00    -0.261 N  
HETATM    9  O   UNL     1     -12.439  11.229  71.304  1.00  0.00    -0.368 OA 
HETATM   10  C   UNL     1     -10.691  11.122  67.703  1.00  0.00    -0.273 C  
HETATM   11  C   UNL     1     -10.647  10.048  68.494  1.00  0.00    -0.215 C  
ENDROOT
BRANCH   8  12
HETATM   12  C   UNL     1     -11.206   8.917  70.668  1.00  0.00    -0.266 C  
HETATM   13  O   UNL     1     -10.269   9.157  71.747  1.00  0.00    -0.338 OA 
HETATM   14  C   UNL     1      -9.054   8.434  71.486  1.00  0.00    -0.195 C  
HETATM   15  C   UNL     1      -9.395   7.281  70.549  1.00  0.00    -0.158 C  
HETATM   16  F   UNL     1     -11.609   6.598  70.911  1.00  0.00    -0.322 F  
HETATM   17  C   UNL     1     -10.862   7.496  70.201  1.00  0.00    -0.249 C  
HETATM   18  O   UNL     1      -9.176   6.019  71.205  1.00  0.00    -0.149 OA 
HETATM   19  F   UNL     1     -11.106   7.233  68.904  1.00  0.00    -0.185 F  
HETATM   20  H   UNL     1      -9.388   5.301  70.620  1.00  0.00     0.000 HD 
BRANCH  14  21
HETATM   21  C   UNL     1      -8.052   9.410  70.854  1.00  0.00    -0.052 C  
HETATM   22  O   UNL     1      -7.553   8.884  69.627  1.00  0.00    -0.068 OA 
HETATM   23  H   UNL     1      -6.933   9.488  69.236  1.00  0.00     0.000 HD 
ENDBRANCH  14  21
ENDBRANCH   8  12
TORSDOF 2
ENDMDL
MODEL      111
REMARK 921   NORMALIZED FREE ENERGY PREDICTED BY IDOCK:   -3.86 KCAL/MOL
REMARK 922        TOTAL FREE ENERGY PREDICTED BY IDOCK:   -4.46 KCAL/MOL
REMARK 923 INTER-LIGAND FREE ENERGY PREDICTED BY IDOCK:   -5.16 KCAL/MOL
REMARK 924 INTRA-LIGAND FREE ENERGY PREDICTED BY IDOCK:    0.70 KCAL/MOL
REMARK 927      BINDING AFFINITY PREDICTED BY RF-SCORE:    0.00 PKD
ROOT
HETATM    1  N   UNL     1     -11.300   7.502  73.190  1.00  0.00    -0.604 NA 
HETATM    2  H2  UNL     1     -11.968   7.341  73.944  1.00  0.00     0.000 HD 
HETATM    3  C   UNL     1     -11.485   8.502  72.277  1.00  0.00    -0.375 C  
HETATM    4  H1  UNL     1     -10.466   6.925  73.085  1.00  0.00     0.000 HD 
HETATM    5  N   UNL     1     -12.544   9.234  72.411  1.00  0.00    -0.324 N  
HETATM    6  C   UNL     1     -12.789  10.258  71.530  1.00  0.00    -0.452 C  
HETATM    7  H   UNL     1     -13.197   9.051  73.173  1.00  0.00     0.000 HD 
HETATM    8  N   UNL     1     -11.958  10.389  70.397  1.00  0.00    -0.297 N  
HETATM    9  O   UNL     1     -13.725  11.027  71.731  1.00  0.00    -0.067 OA 
HETATM   10  C   UNL     1     -10.505   8.705  71.202  1.00  0.00    -0.291 C  
HETATM   11  C   UNL     1     -10.809   9.636  70.295  1.00  0.00    -0.285 C  
ENDROOT
BRANCH   8  12
HETATM   12  C   UNL     1     -12.314  11.474  69.477  1.00  0.00    -0.124 C  
HETATM   13  O   UNL     1     -11.828  11.108  68.162  1.00  0.00    -0.559 OA 
HETATM   14  C   UNL     1     -10.594  11.799  67.905  1.00  0.00    -0.201 C  
HETATM   15  C   UNL     1     -10.566  13.038  68.793  1.00  0.00    -0.193 C  
HETATM   16  F   UNL     1     -12.757  13.780  69.183  1.00  0.00    -0.235 F  
HETATM   17  C   UNL     1     -11.812  12.913  69.659  1.00  0.00    -0.320 C  
HETATM   18  O   UNL     1     -10.585  14.232  67.989  1.00  0.00    -0.233 OA 
HETATM   19  F   UNL     1     -11.573  13.293  70.928  1.00  0.00    -0.187 F  
HETATM   20  H   UNL     1     -10.567  15.004  68.542  1.00  0.00     0.000 HD 
BRANCH  14  21
HETATM   21  C   UNL     1      -9.441  10.837  68.225  1.00  0.00    -0.164 C  
HETATM   22  O   UNL     1      -8.357  11.544  68.823  1.00  0.00    -0.250 OA 
HETATM   23  H   UNL     1      -7.644  10.949  69.021  1.00  0.00     0.000 HD 
ENDBRANCH  14  21
ENDBRANCH   8  12
TORSDOF 2
ENDMDL
MODEL      112
REMARK 921   NORMALIZED FREE ENERGY PREDICTED BY IDOCK:   -3.86 KCAL/MOL
REMARK 922        TOTAL FREE ENERGY PREDICTED BY IDOCK:   -4.46 KCAL/MOL
REMARK 923 INTER-LIGAND FREE ENERGY PREDICTED BY IDOCK:   -4.91 KCAL/MOL
REMARK 924 INTRA-LIGAND FREE ENERGY PREDICTED BY IDOCK:    0.45 KCAL/MOL
REMARK 927      BINDING AFFINITY PREDICTED BY RF-SCORE:    0.00 PKD
ROOT
HETATM    1  N   UNL     1     -10.690  10.981  62.706  1.00  0.00    -0.727 NA 
HETATM    2  H2  UNL     1     -10.437  10.073  62.316  1.00  0.00     0.000 HD 
HETATM    3  C   UNL     1     -10.305  11.348  63.964  1.00  0.00    -0.362 C  
HETATM    4  H1  UNL     1     -11.241  11.654  62.173  1.00  0.00     0.000 HD 
HETATM    5  N   UNL     1      -9.605  10.494  64.640  1.00  0.00    -0.264 N  
HETATM    6  C   UNL     1      -9.182  10.800  65.909  1.00  0.00    -0.190 C  
HETATM    7  H   UNL     1      -9.367   9.591  64.228  1.00  0.00     0.000 HD 
HETATM    8  N   UNL     1      -9.657  11.983  66.513  1.00  0.00    -0.219 N  
HETATM    9  O   UNL     1      -8.418  10.041  66.499  1.00  0.00    -0.124 OA 
HETATM   10  C   UNL     1     -10.688  12.662  64.495  1.00  0.00    -0.368 C  
HETATM   11  C   UNL     1     -10.358  12.905  65.765  1.00  0.00    -0.284 C  
ENDROOT
BRANCH   8  12
HETATM   12  C   UNL     1      -9.201  12.215  67.888  1.00  0.00    -0.188 C  
HETATM   13  O   UNL     1     -10.378  12.298  68.729  1.00  0.00    -0.211 OA 
HETATM   14  C   UNL     1     -10.674  13.680  68.992  1.00  0.00    -0.165 C  
HETATM   15  C   UNL     1      -9.385  14.471  68.807  1.00  0.00    -0.177 C  
HETATM   16  F   UNL     1      -7.543  13.111  69.319  1.00  0.00     0.004 F  
HETATM   17  C   UNL     1      -8.381  13.448  68.292  1.00  0.00    -0.160 C  
HETATM   18  O   UNL     1      -8.969  15.052  70.057  1.00  0.00    -0.416 OA 
HETATM   19  F   UNL     1      -7.595  13.968  67.332  1.00  0.00    -0.157 F  
HETATM   20  H   UNL     1      -8.165  15.546  69.942  1.00  0.00     0.000 HD 
BRANCH  14  21
HETATM   21  C   UNL     1     -11.765  14.123  68.007  1.00  0.00    -0.359 C  
HETATM   22  O   UNL     1     -12.370  15.335  68.449  1.00  0.00    -0.541 OA 
HETATM   23  H   UNL     1     -13.045  15.609  67.839  1.00  0.00     0.000 HD 
ENDBRANCH  14  21
ENDBRANCH   8  12
TORSDOF 2
ENDMDL
MODEL      113
REMARK 921   NORMALIZED FREE ENERGY PREDICTED BY IDOCK:   -3.78 KCAL/MOL
REMARK 922        TOTAL FREE ENERGY PREDICTED BY IDOCK:   -4.38 KCAL/MOL
REMARK 923 INTER-LIGAND FREE ENERGY PREDICTED BY IDOCK:   -4.52 KCAL/MOL
REMARK 924 INTRA-LIGAND FREE ENERGY PREDICTED BY IDOCK:    0.14 KCAL/MOL
REMARK 927      BINDING AFFINITY PREDICTED BY RF-SCORE:    0.00 PKD
ROOT
HETATM    1  N   UNL     1     -12.005  12.293  67.086  1.00  0.00    -0.576 NA 
HETATM    2  H2  UNL     1     -11.511  12.677  66.280  1.00  0.00     0.000 HD 
HETATM    3  C   UNL     1     -11.349  11.585  68.052  1.00  0.00    -0.298 C  
HETATM    4  H1  UNL     1     -13.010  12.421  67.205  1.00  0.00     0.000 HD 
HETATM    5  N   UNL     1     -10.073  11.423  67.901  1.00  0.00    -0.179 N  
HETATM    6  C   UNL     1      -9.352  10.724  68.836  1.00  0.00    -0.175 C  
HETATM    7  H   UNL     1      -9.603  11.815  67.085  1.00  0.00     0.000 HD 
HETATM    8  N   UNL     1     -10.047  10.058  69.867  1.00  0.00    -0.247 N  
HETATM    9  O   UNL     1      -8.127  10.677  68.754  1.00  0.00    -0.121 OA 
HETATM   10  C   UNL     1     -12.091  11.043  69.198  1.00  0.00    -0.333 C  
HETATM   11  C   UNL     1     -11.396  10.281  70.044  1.00  0.00    -0.301 C  
ENDROOT
BRANCH   8  12
HETATM   12  C   UNL     1      -9.211   9.292  70.798  1.00  0.00    -0.253 C  
HETATM   13  O   UNL     1      -8.519   8.279  70.028  1.00  0.00    -0.119 OA 
HETATM   14  C   UNL     1      -9.195   7.020  70.188  1.00  0.00    -0.152 C  
HETATM   15  C   UNL     1      -9.977   7.079  71.495  1.00  0.00    -0.180 C  
HETATM   16  F   UNL     1      -8.884   8.503  73.005  1.00  0.00    -0.281 F  
HETATM   17  C   UNL     1      -9.793   8.510  71.983  1.00  0.00    -0.312 C  
HETATM   18  O   UNL     1      -9.458   6.118  72.433  1.00  0.00    -0.149 OA 
HETATM   19  F   UNL     1     -10.931   9.003  72.507  1.00  0.00    -0.350 F  
HETATM   20  H   UNL     1      -9.946   6.155  73.248  1.00  0.00     0.000 HD 
BRANCH  14  21
HETATM   21  C   UNL     1     -10.117   6.825  68.976  1.00  0.00    -0.164 C  
HETATM   22  O   UNL     1     -11.066   5.794  69.235  1.00  0.00    -0.333 OA 
HETATM   23  H   UNL     1     -11.637   5.673  68.486  1.00  0.00     0.000 HD 
ENDBRANCH  14  21
ENDBRANCH   8  12
TORSDOF 2
ENDMDL
MODEL      114
REMARK 921   NORMALIZED FREE ENERGY PREDICTED BY IDOCK:   -3.76 KCAL/MOL
REMARK 922        TOTAL FREE ENERGY PREDICTED BY IDOCK:   -4.36 KCAL/MOL
REMARK 923 INTER-LIGAND FREE ENERGY PREDICTED BY IDOCK:   -4.29 KCAL/MOL
REMARK 924 INTRA-LIGAND FREE ENERGY PREDICTED BY IDOCK:   -0.06 KCAL/MOL
REMARK 927      BINDING AFFINITY PREDICTED BY RF-SCORE:    0.00 PKD
ROOT
HETATM    1  N   UNL     1      -6.628   9.917  62.476  1.00  0.00    -0.106 NA 
HETATM    2  H2  UNL     1      -5.611   9.837  62.447  1.00  0.00     0.000 HD 
HETATM    3  C   UNL     1      -7.282  10.254  63.627  1.00  0.00    -0.073 C  
HETATM    4  H1  UNL     1      -7.199   9.748  61.649  1.00  0.00     0.000 HD 
HETATM    5  N   UNL     1      -6.556  10.469  64.677  1.00  0.00    -0.346 N  
HETATM    6  C   UNL     1      -7.150  10.815  65.865  1.00  0.00    -0.080 C  
HETATM    7  H   UNL     1      -5.541  10.381  64.622  1.00  0.00     0.000 HD 
HETATM    8  N   UNL     1      -8.557  10.774  65.956  1.00  0.00    -0.173 N  
HETATM    9  O   UNL     1      -6.455  11.137  66.825  1.00  0.00    -0.104 OA 
HETATM   10  C   UNL     1      -8.747  10.357  63.635  1.00  0.00    -0.202 C  
HETATM   11  C   UNL     1      -9.315  10.594  64.820  1.00  0.00    -0.233 C  
ENDROOT
BRANCH   8  12
HETATM   12  C   UNL     1      -9.113  11.108  67.271  1.00  0.00    -0.150 C  
HETATM   13  O   UNL     1      -9.073   9.906  68.080  1.00  0.00    -0.122 OA 
HETATM   14  C   UNL     1     -10.379   9.304  68.096  1.00  0.00    -0.215 C  
HETATM   15  C   UNL     1     -11.394  10.396  67.783  1.00  0.00    -0.128 C  
HETATM   16  F   UNL     1     -10.584  12.466  68.533  1.00  0.00    -0.208 F  
HETATM   17  C   UNL     1     -10.548  11.620  67.459  1.00  0.00    -0.209 C  
HETATM   18  O   UNL     1     -12.255  10.620  68.914  1.00  0.00    -0.757 OA 
HETATM   19  F   UNL     1     -11.059  12.316  66.427  1.00  0.00    -0.282 F  
HETATM   20  H   UNL     1     -12.889  11.301  68.719  1.00  0.00     0.000 HD 
BRANCH  14  21
HETATM   21  C   UNL     1     -10.395   8.186  67.043  1.00  0.00    -0.333 C  
HETATM   22  O   UNL     1     -11.378   7.209  67.372  1.00  0.00    -0.571 OA 
HETATM   23  H   UNL     1     -11.388   6.517  66.721  1.00  0.00     0.000 HD 
ENDBRANCH  14  21
ENDBRANCH   8  12
TORSDOF 2
ENDMDL
MODEL      115
REMARK 921   NORMALIZED FREE ENERGY PREDICTED BY IDOCK:   -3.74 KCAL/MOL
REMARK 922        TOTAL FREE ENERGY PREDICTED BY IDOCK:   -4.33 KCAL/MOL
REMARK 923 INTER-LIGAND FREE ENERGY PREDICTED BY IDOCK:   -4.28 KCAL/MOL
REMARK 924 INTRA-LIGAND FREE ENERGY PREDICTED BY IDOCK:   -0.05 KCAL/MOL
REMARK 927      BINDING AFFINITY PREDICTED BY RF-SCORE:    0.00 PKD
ROOT
HETATM    1  N   UNL     1     -12.496  14.137  66.874  1.00  0.00    -0.549 NA 
HETATM    2  H2  UNL     1     -12.825  14.248  65.915  1.00  0.00     0.000 HD 
HETATM    3  C   UNL     1     -11.737  13.064  67.246  1.00  0.00    -0.375 C  
HETATM    4  H1  UNL     1     -12.719  14.822  67.596  1.00  0.00     0.000 HD 
HETATM    5  N   UNL     1     -11.455  12.194  66.330  1.00  0.00    -0.365 N  
HETATM    6  C   UNL     1     -10.694  11.094  66.636  1.00  0.00    -0.269 C  
HETATM    7  H   UNL     1     -11.798  12.327  65.378  1.00  0.00     0.000 HD 
HETATM    8  N   UNL     1     -10.367  10.851  67.986  1.00  0.00    -0.178 N  
HETATM    9  O   UNL     1     -10.325  10.338  65.741  1.00  0.00    -0.239 OA 
HETATM   10  C   UNL     1     -11.282  12.933  68.637  1.00  0.00    -0.321 C  
HETATM   11  C   UNL     1     -10.631  11.809  68.941  1.00  0.00    -0.180 C  
ENDROOT
BRANCH   8  12
HETATM   12  C   UNL     1      -9.595   9.629  68.238  1.00  0.00    -0.140 C  
HETATM   13  O   UNL     1     -10.537   8.579  68.569  1.00  0.00    -0.193 OA 
HETATM   14  C   UNL     1     -10.569   8.406  69.996  1.00  0.00    -0.235 C  
HETATM   15  C   UNL     1      -9.250   8.930  70.553  1.00  0.00    -0.203 C  
HETATM   16  F   UNL     1      -7.556   8.666  68.953  1.00  0.00    -0.084 F  
HETATM   17  C   UNL     1      -8.540   9.530  69.347  1.00  0.00    -0.159 C  
HETATM   18  O   UNL     1      -8.494   7.857  71.146  1.00  0.00    -0.114 OA 
HETATM   19  F   UNL     1      -7.914  10.678  69.663  1.00  0.00    -0.151 F  
HETATM   20  H   UNL     1      -7.672   8.184  71.493  1.00  0.00     0.000 HD 
BRANCH  14  21
HETATM   21  C   UNL     1     -11.772   9.189  70.539  1.00  0.00    -0.152 C  
HETATM   22  O   UNL     1     -11.590   9.483  71.921  1.00  0.00    -0.371 OA 
HETATM   23  H   UNL     1     -12.335   9.968  72.257  1.00  0.00     0.000 HD 
ENDBRANCH  14  21
ENDBRANCH   8  12
TORSDOF 2
ENDMDL
MODEL      116
REMARK 921   NORMALIZED FREE ENERGY PREDICTED BY IDOCK:   -3.72 KCAL/MOL
REMARK 922        TOTAL FREE ENERGY PREDICTED BY IDOCK:   -4.32 KCAL/MOL
REMARK 923 INTER-LIGAND FREE ENERGY PREDICTED BY IDOCK:   -4.41 KCAL/MOL
REMARK 924 INTRA-LIGAND FREE ENERGY PREDICTED BY IDOCK:    0.10 KCAL/MOL
REMARK 927      BINDING AFFINITY PREDICTED BY RF-SCORE:    0.00 PKD
ROOT
HETATM    1  N   UNL     1     -11.665  11.377  63.389  1.00  0.00    -0.769 NA 
HETATM    2  H2  UNL     1     -11.759  10.842  62.525  1.00  0.00     0.000 HD 
HETATM    3  C   UNL     1     -10.741  11.043  64.338  1.00  0.00    -0.269 C  
HETATM    4  H1  UNL     1     -12.258  12.185  63.582  1.00  0.00     0.000 HD 
HETATM    5  N   UNL     1      -9.989  10.017  64.093  1.00  0.00    -0.466 N  
HETATM    6  C   UNL     1      -9.038   9.629  65.002  1.00  0.00    -0.233 C  
HETATM    7  H   UNL     1     -10.104   9.498  63.223  1.00  0.00     0.000 HD 
HETATM    8  N   UNL     1      -9.007  10.262  66.262  1.00  0.00    -0.150 N  
HETATM    9  O   UNL     1      -8.246   8.735  64.715  1.00  0.00    -0.145 OA 
HETATM   10  C   UNL     1     -10.635  11.833  65.571  1.00  0.00    -0.323 C  
HETATM   11  C   UNL     1      -9.777  11.382  66.489  1.00  0.00    -0.200 C  
ENDROOT
BRANCH   8  12
HETATM   12  C   UNL     1      -7.996   9.757  67.197  1.00  0.00    -0.102 C  
HETATM   13  O   UNL     1      -8.676   8.924  68.167  1.00  0.00    -0.133 OA 
HETATM   14  C   UNL     1      -8.878   9.674  69.376  1.00  0.00    -0.180 C  
HETATM   15  C   UNL     1      -7.838  10.788  69.407  1.00  0.00    -0.087 C  
HETATM   16  F   UNL     1      -5.910  10.099  68.261  1.00  0.00    -0.042 F  
HETATM   17  C   UNL     1      -7.130  10.684  68.062  1.00  0.00    -0.085 C  
HETATM   18  O   UNL     1      -6.932  10.598  70.509  1.00  0.00    -0.456 OA 
HETATM   19  F   UNL     1      -6.874  11.898  67.542  1.00  0.00    -0.084 F  
HETATM   20  H   UNL     1      -6.283  11.293  70.528  1.00  0.00     0.000 HD 
BRANCH  14  21
HETATM   21  C   UNL     1     -10.310  10.228  69.353  1.00  0.00    -0.235 C  
HETATM   22  O   UNL     1     -11.195   9.288  68.750  1.00  0.00    -0.453 OA 
HETATM   23  H   UNL     1     -12.081   9.631  68.736  1.00  0.00     0.000 HD 
ENDBRANCH  14  21
ENDBRANCH   8  12
TORSDOF 2
ENDMDL
MODEL      117
REMARK 921   NORMALIZED FREE ENERGY PREDICTED BY IDOCK:   -3.70 KCAL/MOL
REMARK 922        TOTAL FREE ENERGY PREDICTED BY IDOCK:   -4.29 KCAL/MOL
REMARK 923 INTER-LIGAND FREE ENERGY PREDICTED BY IDOCK:   -4.22 KCAL/MOL
REMARK 924 INTRA-LIGAND FREE ENERGY PREDICTED BY IDOCK:   -0.07 KCAL/MOL
REMARK 927      BINDING AFFINITY PREDICTED BY RF-SCORE:    0.00 PKD
ROOT
HETATM    1  N   UNL     1     -11.042   4.653  65.631  1.00  0.00    -0.893 NA 
HETATM    2  H2  UNL     1     -11.943   4.188  65.743  1.00  0.00     0.000 HD 
HETATM    3  C   UNL     1     -10.519   5.440  66.617  1.00  0.00    -0.298 C  
HETATM    4  H1  UNL     1     -10.493   4.552  64.777  1.00  0.00     0.000 HD 
HETATM    5  N   UNL     1     -11.215   5.568  67.701  1.00  0.00     0.118 N  
HETATM    6  C   UNL     1     -10.746   6.341  68.734  1.00  0.00    -0.297 C  
HETATM    7  H   UNL     1     -12.114   5.093  67.788  1.00  0.00     0.000 HD 
HETATM    8  N   UNL     1      -9.582   7.111  68.528  1.00  0.00    -0.139 N  
HETATM    9  O   UNL     1     -11.347   6.362  69.804  1.00  0.00    -0.384 OA 
HETATM   10  C   UNL     1      -9.220   6.098  66.421  1.00  0.00    -0.166 C  
HETATM   11  C   UNL     1      -8.826   6.926  67.391  1.00  0.00    -0.118 C  
ENDROOT
BRANCH   8  12
HETATM   12  C   UNL     1      -9.173   7.949  69.660  1.00  0.00    -0.153 C  
HETATM   13  O   UNL     1     -10.128   9.033  69.768  1.00  0.00    -0.187 OA 
HETATM   14  C   UNL     1      -9.570  10.217  69.173  1.00  0.00    -0.212 C  
HETATM   15  C   UNL     1      -8.052  10.069  69.191  1.00  0.00    -0.126 C  
HETATM   16  F   UNL     1      -7.409   8.749  71.020  1.00  0.00    -0.057 F  
HETATM   17  C   UNL     1      -7.814   8.660  69.717  1.00  0.00    -0.093 C  
HETATM   18  O   UNL     1      -7.461  11.069  70.041  1.00  0.00    -0.387 OA 
HETATM   19  F   UNL     1      -6.809   8.052  69.061  1.00  0.00    -0.051 F  
HETATM   20  H   UNL     1      -6.516  10.978  70.052  1.00  0.00     0.000 HD 
BRANCH  14  21
HETATM   21  C   UNL     1     -10.118  10.329  67.743  1.00  0.00    -0.180 C  
HETATM   22  O   UNL     1     -11.523  10.095  67.731  1.00  0.00    -0.596 OA 
HETATM   23  H   UNL     1     -11.863  10.164  66.847  1.00  0.00     0.000 HD 
ENDBRANCH  14  21
ENDBRANCH   8  12
TORSDOF 2
ENDMDL
MODEL      118
REMARK 921   NORMALIZED FREE ENERGY PREDICTED BY IDOCK:   -3.69 KCAL/MOL
REMARK 922        TOTAL FREE ENERGY PREDICTED BY IDOCK:   -4.28 KCAL/MOL
REMARK 923 INTER-LIGAND FREE ENERGY PREDICTED BY IDOCK:   -4.12 KCAL/MOL
REMARK 924 INTRA-LIGAND FREE ENERGY PREDICTED BY IDOCK:   -0.16 KCAL/MOL
REMARK 927      BINDING AFFINITY PREDICTED BY RF-SCORE:    0.00 PKD
ROOT
HETATM    1  N   UNL     1     -12.313  10.752  71.535  1.00  0.00    -0.320 NA 
HETATM    2  H2  UNL     1     -12.326  10.053  72.279  1.00  0.00     0.000 HD 
HETATM    3  C   UNL     1     -11.779  10.476  70.309  1.00  0.00    -0.332 C  
HETATM    4  H1  UNL     1     -12.699  11.686  71.676  1.00  0.00     0.000 HD 
HETATM    5  N   UNL     1     -11.290   9.291  70.131  1.00  0.00    -0.385 N  
HETATM    6  C   UNL     1     -10.741   8.947  68.921  1.00  0.00    -0.106 C  
HETATM    7  H   UNL     1     -11.313   8.611  70.891  1.00  0.00     0.000 HD 
HETATM    8  N   UNL     1     -10.578   9.950  67.943  1.00  0.00    -0.237 N  
HETATM    9  O   UNL     1     -10.391   7.788  68.716  1.00  0.00    -0.202 OA 
HETATM   10  C   UNL     1     -11.775  11.506  69.261  1.00  0.00    -0.397 C  
HETATM   11  C   UNL     1     -11.148  11.191  68.127  1.00  0.00    -0.264 C  
ENDROOT
BRANCH   8  12
HETATM   12  C   UNL     1      -9.938   9.515  66.696  1.00  0.00    -0.247 C  
HETATM   13  O   UNL     1      -8.517   9.399  66.953  1.00  0.00    -0.125 OA 
HETATM   14  C   UNL     1      -7.849  10.568  66.449  1.00  0.00    -0.138 C  
HETATM   15  C   UNL     1      -8.735  11.176  65.368  1.00  0.00    -0.057 C  
HETATM   16  F   UNL     1      -9.986   9.485  64.330  1.00  0.00    -0.146 F  
HETATM   17  C   UNL     1     -10.005  10.336  65.401  1.00  0.00    -0.302 C  
HETATM   18  O   UNL     1      -8.079  11.112  64.088  1.00  0.00    -0.258 OA 
HETATM   19  F   UNL     1     -11.104  11.096  65.246  1.00  0.00    -0.301 F  
HETATM   20  H   UNL     1      -8.631  11.491  63.414  1.00  0.00     0.000 HD 
BRANCH  14  21
HETATM   21  C   UNL     1      -7.637  11.533  67.625  1.00  0.00    -0.115 C  
HETATM   22  O   UNL     1      -8.019  12.855  67.258  1.00  0.00    -0.191 OA 
HETATM   23  H   UNL     1      -7.888  13.452  67.985  1.00  0.00     0.000 HD 
ENDBRANCH  14  21
ENDBRANCH   8  12
TORSDOF 2
ENDMDL
MODEL      119
REMARK 921   NORMALIZED FREE ENERGY PREDICTED BY IDOCK:   -3.69 KCAL/MOL
REMARK 922        TOTAL FREE ENERGY PREDICTED BY IDOCK:   -4.28 KCAL/MOL
REMARK 923 INTER-LIGAND FREE ENERGY PREDICTED BY IDOCK:   -4.30 KCAL/MOL
REMARK 924 INTRA-LIGAND FREE ENERGY PREDICTED BY IDOCK:    0.02 KCAL/MOL
REMARK 927      BINDING AFFINITY PREDICTED BY RF-SCORE:    0.00 PKD
ROOT
HETATM    1  N   UNL     1     -11.023  11.686  63.273  1.00  0.00    -0.685 NA 
HETATM    2  H2  UNL     1     -10.533  11.524  62.393  1.00  0.00     0.000 HD 
HETATM    3  C   UNL     1     -10.514  11.251  64.463  1.00  0.00    -0.334 C  
HETATM    4  H1  UNL     1     -11.915  12.181  63.301  1.00  0.00     0.000 HD 
HETATM    5  N   UNL     1      -9.382  10.624  64.426  1.00  0.00    -0.230 N  
HETATM    6  C   UNL     1      -8.812  10.163  65.587  1.00  0.00    -0.165 C  
HETATM    7  H   UNL     1      -8.912  10.473  63.533  1.00  0.00     0.000 HD 
HETATM    8  N   UNL     1      -9.554  10.244  66.783  1.00  0.00    -0.167 N  
HETATM    9  O   UNL     1      -7.683   9.680  65.563  1.00  0.00    -0.106 OA 
HETATM   10  C   UNL     1     -11.248  11.500  65.710  1.00  0.00    -0.228 C  
HETATM   11  C   UNL     1     -10.733  10.958  66.816  1.00  0.00    -0.252 C  
ENDROOT
BRANCH   8  12
HETATM   12  C   UNL     1      -8.899   9.685  67.970  1.00  0.00    -0.119 C  
HETATM   13  O   UNL     1      -8.703   8.269  67.734  1.00  0.00    -0.133 OA 
HETATM   14  C   UNL     1      -9.730   7.529  68.414  1.00  0.00    -0.156 C  
HETATM   15  C   UNL     1     -10.252   8.403  69.550  1.00  0.00    -0.207 C  
HETATM   16  F   UNL     1      -8.541   9.819  70.306  1.00  0.00    -0.189 F  
HETATM   17  C   UNL     1      -9.532   9.733  69.367  1.00  0.00    -0.201 C  
HETATM   18  O   UNL     1      -9.955   7.800  70.823  1.00  0.00    -0.182 OA 
HETATM   19  F   UNL     1     -10.352  10.774  69.602  1.00  0.00    -0.247 F  
HETATM   20  H   UNL     1     -10.280   8.344  71.531  1.00  0.00     0.000 HD 
BRANCH  14  21
HETATM   21  C   UNL     1     -10.829   7.201  67.393  1.00  0.00    -0.276 C  
HETATM   22  O   UNL     1     -10.254   6.919  66.120  1.00  0.00    -0.426 OA 
HETATM   23  H   UNL     1     -10.933   6.716  65.488  1.00  0.00     0.000 HD 
ENDBRANCH  14  21
ENDBRANCH   8  12
TORSDOF 2
ENDMDL
MODEL      120
REMARK 921   NORMALIZED FREE ENERGY PREDICTED BY IDOCK:   -3.67 KCAL/MOL
REMARK 922        TOTAL FREE ENERGY PREDICTED BY IDOCK:   -4.26 KCAL/MOL
REMARK 923 INTER-LIGAND FREE ENERGY PREDICTED BY IDOCK:   -4.21 KCAL/MOL
REMARK 924 INTRA-LIGAND FREE ENERGY PREDICTED BY IDOCK:   -0.05 KCAL/MOL
REMARK 927      BINDING AFFINITY PREDICTED BY RF-SCORE:    0.00 PKD
ROOT
HETATM    1  N   UNL     1      -7.221  15.414  69.586  1.00  0.00    -0.193 NA 
HETATM    2  H2  UNL     1      -7.693  16.020  70.257  1.00  0.00     0.000 HD 
HETATM    3  C   UNL     1      -7.911  14.489  68.855  1.00  0.00    -0.134 C  
HETATM    4  H1  UNL     1      -6.214  15.473  69.431  1.00  0.00     0.000 HD 
HETATM    5  N   UNL     1      -9.188  14.414  69.052  1.00  0.00    -0.387 N  
HETATM    6  C   UNL     1      -9.942  13.508  68.349  1.00  0.00    -0.232 C  
HETATM    7  H   UNL     1      -9.635  15.031  69.731  1.00  0.00     0.000 HD 
HETATM    8  N   UNL     1      -9.280  12.563  67.537  1.00  0.00    -0.181 N  
HETATM    9  O   UNL     1     -11.166  13.524  68.447  1.00  0.00    -0.249 OA 
HETATM   10  C   UNL     1      -7.200  13.630  67.899  1.00  0.00    -0.150 C  
HETATM   11  C   UNL     1      -7.929  12.686  67.299  1.00  0.00    -0.166 C  
ENDROOT
BRANCH   8  12
HETATM   12  C   UNL     1     -10.150  11.597  66.858  1.00  0.00    -0.211 C  
HETATM   13  O   UNL     1     -10.729  10.742  67.874  1.00  0.00    -0.203 OA 
HETATM   14  C   UNL     1     -10.007   9.499  67.912  1.00  0.00    -0.172 C  
HETATM   15  C   UNL     1      -9.337   9.313  66.556  1.00  0.00    -0.178 C  
HETATM   16  F   UNL     1     -10.616  10.363  64.893  1.00  0.00    -0.377 F  
HETATM   17  C   UNL     1      -9.629  10.607  65.808  1.00  0.00    -0.210 C  
HETATM   18  O   UNL     1      -9.883   8.165  65.880  1.00  0.00    -0.451 OA 
HETATM   19  F   UNL     1      -8.563  11.018  65.096  1.00  0.00    -0.183 F  
HETATM   20  H   UNL     1      -9.465   8.049  65.034  1.00  0.00     0.000 HD 
BRANCH  14  21
HETATM   21  C   UNL     1      -8.982   9.585  69.052  1.00  0.00    -0.144 C  
HETATM   22  O   UNL     1      -9.529  10.295  70.159  1.00  0.00    -0.390 OA 
HETATM   23  H   UNL     1      -8.894  10.348  70.864  1.00  0.00     0.000 HD 
ENDBRANCH  14  21
ENDBRANCH   8  12
TORSDOF 2
ENDMDL
MODEL      121
REMARK 921   NORMALIZED FREE ENERGY PREDICTED BY IDOCK:   -3.66 KCAL/MOL
REMARK 922        TOTAL FREE ENERGY PREDICTED BY IDOCK:   -4.24 KCAL/MOL
REMARK 923 INTER-LIGAND FREE ENERGY PREDICTED BY IDOCK:   -5.13 KCAL/MOL
REMARK 924 INTRA-LIGAND FREE ENERGY PREDICTED BY IDOCK:    0.89 KCAL/MOL
REMARK 927      BINDING AFFINITY PREDICTED BY RF-SCORE:    0.00 PKD
ROOT
HETATM    1  N   UNL     1     -12.367  13.842  63.174  1.00  0.00    -1.106 NA 
HETATM    2  H2  UNL     1     -12.736  13.713  62.231  1.00  0.00     0.000 HD 
HETATM    3  C   UNL     1     -11.469  12.965  63.713  1.00  0.00    -0.459 C  
HETATM    4  H1  UNL     1     -12.654  14.630  63.755  1.00  0.00     0.000 HD 
HETATM    5  N   UNL     1     -11.105  11.965  62.976  1.00  0.00    -0.663 N  
HETATM    6  C   UNL     1     -10.202  11.049  63.455  1.00  0.00    -0.346 C  
HETATM    7  H   UNL     1     -11.490  11.858  62.037  1.00  0.00     0.000 HD 
HETATM    8  N   UNL     1      -9.809  11.130  64.807  1.00  0.00    -0.258 N  
HETATM    9  O   UNL     1      -9.767  10.173  62.712  1.00  0.00    -0.260 OA 
HETATM   10  C   UNL     1     -10.960  13.179  65.074  1.00  0.00    -0.322 C  
HETATM   11  C   UNL     1     -10.163  12.227  65.563  1.00  0.00    -0.269 C  
ENDROOT
BRANCH   8  12
HETATM   12  C   UNL     1      -8.882  10.087  65.257  1.00  0.00    -0.178 C  
HETATM   13  O   UNL     1      -8.813  10.158  66.703  1.00  0.00    -0.132 OA 
HETATM   14  C   UNL     1      -7.618  10.860  67.085  1.00  0.00    -0.109 C  
HETATM   15  C   UNL     1      -6.628  10.746  65.931  1.00  0.00    -0.090 C  
HETATM   16  F   UNL     1      -6.996   8.742  64.769  1.00  0.00    -0.071 F  
HETATM   17  C   UNL     1      -7.409  10.045  64.828  1.00  0.00    -0.143 C  
HETATM   18  O   UNL     1      -5.471   9.992  66.336  1.00  0.00    -0.043 OA 
HETATM   19  F   UNL     1      -7.137  10.571  63.619  1.00  0.00    -0.126 F  
HETATM   20  H   UNL     1      -4.853   9.921  65.617  1.00  0.00     0.000 HD 
BRANCH  14  21
HETATM   21  C   UNL     1      -8.000  12.320  67.370  1.00  0.00    -0.171 C  
HETATM   22  O   UNL     1      -6.941  13.194  66.989  1.00  0.00    -0.387 OA 
HETATM   23  H   UNL     1      -7.178  14.096  67.166  1.00  0.00     0.000 HD 
ENDBRANCH  14  21
ENDBRANCH   8  12
TORSDOF 2
ENDMDL
MODEL      122
REMARK 921   NORMALIZED FREE ENERGY PREDICTED BY IDOCK:   -3.64 KCAL/MOL
REMARK 922        TOTAL FREE ENERGY PREDICTED BY IDOCK:   -4.23 KCAL/MOL
REMARK 923 INTER-LIGAND FREE ENERGY PREDICTED BY IDOCK:   -4.16 KCAL/MOL
REMARK 924 INTRA-LIGAND FREE ENERGY PREDICTED BY IDOCK:   -0.07 KCAL/MOL
REMARK 927      BINDING AFFINITY PREDICTED BY RF-SCORE:    0.00 PKD
ROOT
HETATM    1  N   UNL     1      -7.553   6.683  64.311  1.00  0.00    -0.097 NA 
HETATM    2  H2  UNL     1      -7.911   5.803  63.937  1.00  0.00     0.000 HD 
HETATM    3  C   UNL     1      -8.259   7.404  65.231  1.00  0.00    -0.127 C  
HETATM    4  H1  UNL     1      -6.654   7.061  64.014  1.00  0.00     0.000 HD 
HETATM    5  N   UNL     1      -9.400   6.923  65.608  1.00  0.00    -0.364 N  
HETATM    6  C   UNL     1     -10.159   7.596  66.533  1.00  0.00    -0.135 C  
HETATM    7  H   UNL     1      -9.737   6.043  65.218  1.00  0.00     0.000 HD 
HETATM    8  N   UNL     1      -9.750   8.884  66.937  1.00  0.00    -0.183 N  
HETATM    9  O   UNL     1     -11.180   7.079  66.979  1.00  0.00    -0.328 OA 
HETATM   10  C   UNL     1      -7.717   8.667  65.747  1.00  0.00    -0.090 C  
HETATM   11  C   UNL     1      -8.510   9.360  66.567  1.00  0.00    -0.133 C  
ENDROOT
BRANCH   8  12
HETATM   12  C   UNL     1     -10.639   9.559  67.888  1.00  0.00    -0.244 C  
HETATM   13  O   UNL     1     -11.535  10.402  67.124  1.00  0.00    -0.250 OA 
HETATM   14  C   UNL     1     -11.065  11.760  67.176  1.00  0.00    -0.296 C  
HETATM   15  C   UNL     1     -10.203  11.902  68.425  1.00  0.00    -0.204 C  
HETATM   16  F   UNL     1     -10.950  10.410  70.074  1.00  0.00    -0.265 F  
HETATM   17  C   UNL     1     -10.119  10.491  68.991  1.00  0.00    -0.217 C  
HETATM   18  O   UNL     1     -10.811  12.819  69.353  1.00  0.00    -0.437 OA 
HETATM   19  F   UNL     1      -8.886  10.217  69.454  1.00  0.00    -0.144 F  
HETATM   20  H   UNL     1     -10.274  12.908  70.131  1.00  0.00     0.000 HD 
BRANCH  14  21
HETATM   21  C   UNL     1     -10.265  12.030  65.893  1.00  0.00    -0.232 C  
HETATM   22  O   UNL     1      -9.052  12.712  66.200  1.00  0.00    -0.416 OA 
HETATM   23  H   UNL     1      -8.557  12.879  65.406  1.00  0.00     0.000 HD 
ENDBRANCH  14  21
ENDBRANCH   8  12
TORSDOF 2
ENDMDL
MODEL      123
REMARK 921   NORMALIZED FREE ENERGY PREDICTED BY IDOCK:   -3.58 KCAL/MOL
REMARK 922        TOTAL FREE ENERGY PREDICTED BY IDOCK:   -4.15 KCAL/MOL
REMARK 923 INTER-LIGAND FREE ENERGY PREDICTED BY IDOCK:   -4.92 KCAL/MOL
REMARK 924 INTRA-LIGAND FREE ENERGY PREDICTED BY IDOCK:    0.76 KCAL/MOL
REMARK 927      BINDING AFFINITY PREDICTED BY RF-SCORE:    0.00 PKD
ROOT
HETATM    1  N   UNL     1     -11.947   5.437  72.950  1.00  0.00    -0.498 NA 
HETATM    2  H2  UNL     1     -11.704   4.449  73.027  1.00  0.00     0.000 HD 
HETATM    3  C   UNL     1     -11.406   6.229  71.977  1.00  0.00    -0.300 C  
HETATM    4  H1  UNL     1     -12.603   5.876  73.595  1.00  0.00     0.000 HD 
HETATM    5  N   UNL     1     -10.573   5.672  71.158  1.00  0.00    -0.243 N  
HETATM    6  C   UNL     1      -9.996   6.409  70.155  1.00  0.00    -0.171 C  
HETATM    7  H   UNL     1     -10.345   4.682  71.258  1.00  0.00     0.000 HD 
HETATM    8  N   UNL     1     -10.202   7.805  70.137  1.00  0.00    -0.201 N  
HETATM    9  O   UNL     1      -9.303   5.852  69.307  1.00  0.00    -0.127 OA 
HETATM   10  C   UNL     1     -11.775   7.648  71.896  1.00  0.00    -0.328 C  
HETATM   11  C   UNL     1     -11.129   8.375  70.982  1.00  0.00    -0.258 C  
ENDROOT
BRANCH   8  12
HETATM   12  C   UNL     1      -9.511   8.530  69.065  1.00  0.00    -0.150 C  
HETATM   13  O   UNL     1      -9.358   9.904  69.496  1.00  0.00    -0.193 OA 
HETATM   14  C   UNL     1     -10.375  10.710  68.876  1.00  0.00    -0.207 C  
HETATM   15  C   UNL     1     -10.828   9.988  67.612  1.00  0.00    -0.278 C  
HETATM   16  F   UNL     1      -9.055   8.717  66.750  1.00  0.00    -0.137 F  
HETATM   17  C   UNL     1     -10.085   8.659  67.647  1.00  0.00    -0.213 C  
HETATM   18  O   UNL     1     -10.494  10.761  66.445  1.00  0.00    -0.245 OA 
HETATM   19  F   UNL     1     -10.870   7.644  67.240  1.00  0.00    -0.353 F  
HETATM   20  H   UNL     1     -10.777  10.312  65.658  1.00  0.00     0.000 HD 
BRANCH  14  21
HETATM   21  C   UNL     1     -11.521  10.879  69.883  1.00  0.00    -0.323 C  
HETATM   22  O   UNL     1     -12.774  10.613  69.258  1.00  0.00    -0.689 OA 
HETATM   23  H   UNL     1     -13.483  10.717  69.881  1.00  0.00     0.000 HD 
ENDBRANCH  14  21
ENDBRANCH   8  12
TORSDOF 2
ENDMDL
MODEL      124
REMARK 921   NORMALIZED FREE ENERGY PREDICTED BY IDOCK:   -3.55 KCAL/MOL
REMARK 922        TOTAL FREE ENERGY PREDICTED BY IDOCK:   -4.13 KCAL/MOL
REMARK 923 INTER-LIGAND FREE ENERGY PREDICTED BY IDOCK:   -4.34 KCAL/MOL
REMARK 924 INTRA-LIGAND FREE ENERGY PREDICTED BY IDOCK:    0.21 KCAL/MOL
REMARK 927      BINDING AFFINITY PREDICTED BY RF-SCORE:    0.00 PKD
ROOT
HETATM    1  N   UNL     1      -5.334  15.956  70.907  1.00  0.00    -0.131 NA 
HETATM    2  H2  UNL     1      -4.343  16.200  70.901  1.00  0.00     0.000 HD 
HETATM    3  C   UNL     1      -6.081  15.987  69.764  1.00  0.00    -0.173 C  
HETATM    4  H1  UNL     1      -5.809  15.680  71.766  1.00  0.00     0.000 HD 
HETATM    5  N   UNL     1      -5.478  16.338  68.674  1.00  0.00    -0.100 N  
HETATM    6  C   UNL     1      -6.170  16.387  67.489  1.00  0.00    -0.158 C  
HETATM    7  H   UNL     1      -4.487  16.579  68.695  1.00  0.00     0.000 HD 
HETATM    8  N   UNL     1      -7.568  16.206  67.515  1.00  0.00    -0.137 N  
HETATM    9  O   UNL     1      -5.570  16.600  66.439  1.00  0.00    -0.313 OA 
HETATM   10  C   UNL     1      -7.506  15.634  69.809  1.00  0.00    -0.046 C  
HETATM   11  C   UNL     1      -8.187  15.784  68.671  1.00  0.00    -0.174 C  
ENDROOT
BRANCH   8  12
HETATM   12  C   UNL     1      -8.242  16.323  66.217  1.00  0.00    -0.277 C  
HETATM   13  O   UNL     1      -7.937  17.635  65.684  1.00  0.00    -0.529 OA 
HETATM   14  C   UNL     1      -9.052  18.512  65.920  1.00  0.00     0.230 C  
HETATM   15  C   UNL     1     -10.294  17.644  66.087  1.00  0.00    -0.334 C  
HETATM   16  F   UNL     1     -10.053  15.672  64.840  1.00  0.00    -0.347 F  
HETATM   17  C   UNL     1      -9.765  16.215  66.061  1.00  0.00    -0.344 C  
HETATM   18  O   UNL     1     -11.228  17.892  65.021  1.00  0.00    -0.556 OA 
HETATM   19  F   UNL     1     -10.392  15.440  66.965  1.00  0.00    -0.259 F  
HETATM   20  H   UNL     1     -12.002  17.352  65.126  1.00  0.00     0.000 HD 
BRANCH  14  21
HETATM   21  C   UNL     1      -8.748  19.329  67.183  1.00  0.00    -0.290 C  
HETATM   22  O   UNL     1      -9.824  20.220  67.468  1.00  0.00    -0.400 OA 
HETATM   23  H   UNL     1      -9.636  20.725  68.250  1.00  0.00     0.000 HD 
ENDBRANCH  14  21
ENDBRANCH   8  12
TORSDOF 2
ENDMDL
MODEL      125
REMARK 921   NORMALIZED FREE ENERGY PREDICTED BY IDOCK:   -3.52 KCAL/MOL
REMARK 922        TOTAL FREE ENERGY PREDICTED BY IDOCK:   -4.09 KCAL/MOL
REMARK 923 INTER-LIGAND FREE ENERGY PREDICTED BY IDOCK:   -3.97 KCAL/MOL
REMARK 924 INTRA-LIGAND FREE ENERGY PREDICTED BY IDOCK:   -0.12 KCAL/MOL
REMARK 927      BINDING AFFINITY PREDICTED BY RF-SCORE:    0.00 PKD
ROOT
HETATM    1  N   UNL     1      -8.586   7.501  65.091  1.00  0.00    -0.346 NA 
HETATM    2  H2  UNL     1      -7.618   7.585  64.779  1.00  0.00     0.000 HD 
HETATM    3  C   UNL     1      -8.954   7.826  66.366  1.00  0.00    -0.163 C  
HETATM    4  H1  UNL     1      -9.321   7.171  64.465  1.00  0.00     0.000 HD 
HETATM    5  N   UNL     1      -8.022   8.245  67.160  1.00  0.00    -0.104 N  
HETATM    6  C   UNL     1      -8.323   8.591  68.454  1.00  0.00    -0.124 C  
HETATM    7  H   UNL     1      -7.061   8.318  66.825  1.00  0.00     0.000 HD 
HETATM    8  N   UNL     1      -9.622   8.331  68.939  1.00  0.00    -0.152 N  
HETATM    9  O   UNL     1      -7.464   9.103  69.166  1.00  0.00    -0.070 OA 
HETATM   10  C   UNL     1     -10.356   7.691  66.783  1.00  0.00    -0.343 C  
HETATM   11  C   UNL     1     -10.615   7.933  68.069  1.00  0.00    -0.132 C  
ENDROOT
BRANCH   8  12
HETATM   12  C   UNL     1      -9.852   8.682  70.344  1.00  0.00    -0.183 C  
HETATM   13  O   UNL     1      -9.391   7.571  71.152  1.00  0.00    -0.151 OA 
HETATM   14  C   UNL     1     -10.520   6.778  71.555  1.00  0.00    -0.213 C  
HETATM   15  C   UNL     1     -11.754   7.671  71.498  1.00  0.00    -0.281 C  
HETATM   16  F   UNL     1     -11.138   9.896  71.916  1.00  0.00    -0.313 F  
HETATM   17  C   UNL     1     -11.249   8.980  70.906  1.00  0.00    -0.287 C  
HETATM   18  O   UNL     1     -12.303   7.852  72.816  1.00  0.00    -0.591 OA 
HETATM   19  F   UNL     1     -12.131   9.501  70.034  1.00  0.00    -0.131 F  
HETATM   20  H   UNL     1     -13.073   8.409  72.781  1.00  0.00     0.000 HD 
BRANCH  14  21
HETATM   21  C   UNL     1     -10.628   5.589  70.590  1.00  0.00    -0.259 C  
HETATM   22  O   UNL     1      -9.360   4.956  70.439  1.00  0.00    -0.133 OA 
HETATM   23  H   UNL     1      -9.427   4.220  69.842  1.00  0.00     0.000 HD 
ENDBRANCH  14  21
ENDBRANCH   8  12
TORSDOF 2
ENDMDL
MODEL      126
REMARK 921   NORMALIZED FREE ENERGY PREDICTED BY IDOCK:   -3.51 KCAL/MOL
REMARK 922        TOTAL FREE ENERGY PREDICTED BY IDOCK:   -4.08 KCAL/MOL
REMARK 923 INTER-LIGAND FREE ENERGY PREDICTED BY IDOCK:   -4.02 KCAL/MOL
REMARK 924 INTRA-LIGAND FREE ENERGY PREDICTED BY IDOCK:   -0.06 KCAL/MOL
REMARK 927      BINDING AFFINITY PREDICTED BY RF-SCORE:    0.00 PKD
ROOT
HETATM    1  N   UNL     1     -10.548   7.986  72.962  1.00  0.00    -0.334 NA 
HETATM    2  H2  UNL     1      -9.896   8.117  73.736  1.00  0.00     0.000 HD 
HETATM    3  C   UNL     1     -10.190   8.266  71.674  1.00  0.00    -0.221 C  
HETATM    4  H1  UNL     1     -11.496   7.642  73.117  1.00  0.00     0.000 HD 
HETATM    5  N   UNL     1      -8.987   8.703  71.478  1.00  0.00    -0.214 N  
HETATM    6  C   UNL     1      -8.562   8.999  70.207  1.00  0.00    -0.178 C  
HETATM    7  H   UNL     1      -8.355   8.826  72.268  1.00  0.00     0.000 HD 
HETATM    8  N   UNL     1      -9.501   8.973  69.155  1.00  0.00    -0.152 N  
HETATM    9  O   UNL     1      -7.386   9.295  70.010  1.00  0.00    -0.063 OA 
HETATM   10  C   UNL     1     -11.155   8.069  70.585  1.00  0.00    -0.266 C  
HETATM   11  C   UNL     1     -10.761   8.458  69.370  1.00  0.00    -0.152 C  
ENDROOT
BRANCH   8  12
HETATM   12  C   UNL     1      -8.981   9.351  67.837  1.00  0.00    -0.123 C  
HETATM   13  O   UNL     1      -8.811  10.790  67.831  1.00  0.00    -0.129 OA 
HETATM   14  C   UNL     1      -9.924  11.394  67.151  1.00  0.00    -0.192 C  
HETATM   15  C   UNL     1     -10.522  10.345  66.222  1.00  0.00    -0.159 C  
HETATM   16  F   UNL     1      -8.845   8.859  65.526  1.00  0.00    -0.167 F  
HETATM   17  C   UNL     1      -9.744   9.073  66.534  1.00  0.00    -0.244 C  
HETATM   18  O   UNL     1     -10.370  10.746  64.848  1.00  0.00    -0.312 OA 
HETATM   19  F   UNL     1     -10.547   7.993  66.546  1.00  0.00    -0.382 F  
HETATM   20  H   UNL     1     -10.743  10.092  64.268  1.00  0.00     0.000 HD 
BRANCH  14  21
HETATM   21  C   UNL     1     -10.930  11.859  68.214  1.00  0.00    -0.230 C  
HETATM   22  O   UNL     1     -12.150  12.264  67.600  1.00  0.00    -0.502 OA 
HETATM   23  H   UNL     1     -12.772  12.551  68.258  1.00  0.00     0.000 HD 
ENDBRANCH  14  21
ENDBRANCH   8  12
TORSDOF 2
ENDMDL
MODEL      127
REMARK 921   NORMALIZED FREE ENERGY PREDICTED BY IDOCK:   -3.50 KCAL/MOL
REMARK 922        TOTAL FREE ENERGY PREDICTED BY IDOCK:   -4.07 KCAL/MOL
REMARK 923 INTER-LIGAND FREE ENERGY PREDICTED BY IDOCK:   -3.91 KCAL/MOL
REMARK 924 INTRA-LIGAND FREE ENERGY PREDICTED BY IDOCK:   -0.16 KCAL/MOL
REMARK 927      BINDING AFFINITY PREDICTED BY RF-SCORE:    0.00 PKD
ROOT
HETATM    1  N   UNL     1     -12.034  11.874  67.191  1.00  0.00    -0.603 NA 
HETATM    2  H2  UNL     1     -12.169  12.002  66.187  1.00  0.00     0.000 HD 
HETATM    3  C   UNL     1     -11.256  10.864  67.681  1.00  0.00    -0.309 C  
HETATM    4  H1  UNL     1     -12.475  12.494  67.870  1.00  0.00     0.000 HD 
HETATM    5  N   UNL     1     -10.697  10.078  66.818  1.00  0.00    -0.151 N  
HETATM    6  C   UNL     1      -9.899   9.045  67.244  1.00  0.00    -0.196 C  
HETATM    7  H   UNL     1     -10.849  10.226  65.821  1.00  0.00     0.000 HD 
HETATM    8  N   UNL     1      -9.834   8.765  68.625  1.00  0.00    -0.164 N  
HETATM    9  O   UNL     1      -9.274   8.378  66.424  1.00  0.00    -0.174 OA 
HETATM   10  C   UNL     1     -11.086  10.707  69.131  1.00  0.00    -0.309 C  
HETATM   11  C   UNL     1     -10.392   9.639  69.532  1.00  0.00    -0.221 C  
ENDROOT
BRANCH   8  12
HETATM   12  C   UNL     1      -9.002   7.615  68.996  1.00  0.00    -0.137 C  
HETATM   13  O   UNL     1      -9.788   6.418  68.775  1.00  0.00    -0.136 OA 
HETATM   14  C   UNL     1     -10.319   5.963  70.031  1.00  0.00    -0.244 C  
HETATM   15  C   UNL     1      -9.427   6.516  71.136  1.00  0.00    -0.167 C  
HETATM   16  F   UNL     1      -7.239   6.772  70.330  1.00  0.00    -0.067 F  
HETATM   17  C   UNL     1      -8.440   7.421  70.410  1.00  0.00    -0.142 C  
HETATM   18  O   UNL     1      -8.764   5.442  71.829  1.00  0.00    -0.133 OA 
HETATM   19  F   UNL     1      -8.202   8.549  71.104  1.00  0.00    -0.097 F  
HETATM   20  H   UNL     1      -8.208   5.787  72.518  1.00  0.00     0.000 HD 
BRANCH  14  21
HETATM   21  C   UNL     1     -11.761   6.478  70.146  1.00  0.00    -0.353 C  
HETATM   22  O   UNL     1     -12.025   6.920  71.475  1.00  0.00    -0.303 OA 
HETATM   23  H   UNL     1     -12.917   7.239  71.547  1.00  0.00     0.000 HD 
ENDBRANCH  14  21
ENDBRANCH   8  12
TORSDOF 2
ENDMDL
MODEL      128
REMARK 921   NORMALIZED FREE ENERGY PREDICTED BY IDOCK:   -3.50 KCAL/MOL
REMARK 922        TOTAL FREE ENERGY PREDICTED BY IDOCK:   -4.07 KCAL/MOL
REMARK 923 INTER-LIGAND FREE ENERGY PREDICTED BY IDOCK:   -4.80 KCAL/MOL
REMARK 924 INTRA-LIGAND FREE ENERGY PREDICTED BY IDOCK:    0.73 KCAL/MOL
REMARK 927      BINDING AFFINITY PREDICTED BY RF-SCORE:    0.00 PKD
ROOT
HETATM    1  N   UNL     1     -13.074   9.055  72.837  1.00  0.00    -0.726 NA 
HETATM    2  H2  UNL     1     -14.075   9.251  72.858  1.00  0.00     0.000 HD 
HETATM    3  C   UNL     1     -12.295   9.441  71.783  1.00  0.00    -0.394 C  
HETATM    4  H1  UNL     1     -12.611   8.564  73.602  1.00  0.00     0.000 HD 
HETATM    5  N   UNL     1     -12.882  10.064  70.813  1.00  0.00    -0.513 N  
HETATM    6  C   UNL     1     -12.158  10.482  69.724  1.00  0.00    -0.214 C  
HETATM    7  H   UNL     1     -13.885  10.246  70.857  1.00  0.00     0.000 HD 
HETATM    8  N   UNL     1     -10.811  10.080  69.614  1.00  0.00    -0.244 N  
HETATM    9  O   UNL     1     -12.692  11.179  68.866  1.00  0.00    -0.202 OA 
HETATM   10  C   UNL     1     -10.857   9.141  71.784  1.00  0.00    -0.416 C  
HETATM   11  C   UNL     1     -10.187   9.462  70.676  1.00  0.00    -0.288 C  
ENDROOT
BRANCH   8  12
HETATM   12  C   UNL     1     -10.119  10.524  68.399  1.00  0.00    -0.164 C  
HETATM   13  O   UNL     1      -8.982   9.648  68.200  1.00  0.00    -0.123 OA 
HETATM   14  C   UNL     1      -7.792  10.304  68.667  1.00  0.00    -0.101 C  
HETATM   15  C   UNL     1      -8.052  11.805  68.641  1.00  0.00    -0.104 C  
HETATM   16  F   UNL     1      -9.587  12.311  66.941  1.00  0.00    -0.194 F  
HETATM   17  C   UNL     1      -9.520  11.930  68.252  1.00  0.00    -0.197 C  
HETATM   18  O   UNL     1      -7.186  12.448  67.687  1.00  0.00    -0.106 OA 
HETATM   19  F   UNL     1     -10.134  12.902  68.949  1.00  0.00    -0.194 F  
HETATM   20  H   UNL     1      -7.348  13.384  67.671  1.00  0.00     0.000 HD 
BRANCH  14  21
HETATM   21  C   UNL     1      -7.501   9.797  70.087  1.00  0.00    -0.164 C  
HETATM   22  O   UNL     1      -6.744  10.761  70.813  1.00  0.00    -0.454 OA 
HETATM   23  H   UNL     1      -6.564  10.447  71.691  1.00  0.00     0.000 HD 
ENDBRANCH  14  21
ENDBRANCH   8  12
TORSDOF 2
ENDMDL
MODEL      129
REMARK 921   NORMALIZED FREE ENERGY PREDICTED BY IDOCK:   -3.50 KCAL/MOL
REMARK 922        TOTAL FREE ENERGY PREDICTED BY IDOCK:   -4.06 KCAL/MOL
REMARK 923 INTER-LIGAND FREE ENERGY PREDICTED BY IDOCK:   -4.81 KCAL/MOL
REMARK 924 INTRA-LIGAND FREE ENERGY PREDICTED BY IDOCK:    0.74 KCAL/MOL
REMARK 927      BINDING AFFINITY PREDICTED BY RF-SCORE:    0.00 PKD
ROOT
HETATM    1  N   UNL     1     -11.547  15.407  72.653  1.00  0.00    -0.459 NA 
HETATM    2  H2  UNL     1     -11.810  14.981  73.542  1.00  0.00     0.000 HD 
HETATM    3  C   UNL     1     -11.721  14.748  71.470  1.00  0.00    -0.286 C  
HETATM    4  H1  UNL     1     -11.142  16.342  72.610  1.00  0.00     0.000 HD 
HETATM    5  N   UNL     1     -12.235  13.561  71.525  1.00  0.00    -0.254 N  
HETATM    6  C   UNL     1     -12.441  12.846  70.372  1.00  0.00    -0.173 C  
HETATM    7  H   UNL     1     -12.488  13.157  72.427  1.00  0.00     0.000 HD 
HETATM    8  N   UNL     1     -11.938  13.359  69.158  1.00  0.00    -0.327 N  
HETATM    9  O   UNL     1     -13.040  11.774  70.416  1.00  0.00     0.187 OA 
HETATM   10  C   UNL     1     -11.329  15.389  70.208  1.00  0.00    -0.332 C  
HETATM   11  C   UNL     1     -11.439  14.642  69.107  1.00  0.00    -0.294 C  
ENDROOT
BRANCH   8  12
HETATM   12  C   UNL     1     -12.153  12.513  67.979  1.00  0.00    -0.063 C  
HETATM   13  O   UNL     1     -12.056  11.133  68.410  1.00  0.00    -0.605 OA 
HETATM   14  C   UNL     1     -10.755  10.623  68.074  1.00  0.00    -0.233 C  
HETATM   15  C   UNL     1     -10.210  11.468  66.929  1.00  0.00    -0.217 C  
HETATM   16  F   UNL     1     -11.987  12.279  65.630  1.00  0.00    -0.426 F  
HETATM   17  C   UNL     1     -11.246  12.569  66.742  1.00  0.00    -0.296 C  
HETATM   18  O   UNL     1     -10.055  10.667  65.743  1.00  0.00    -0.245 OA 
HETATM   19  F   UNL     1     -10.666  13.758  66.497  1.00  0.00    -0.278 F  
HETATM   20  H   UNL     1      -9.715  11.194  65.029  1.00  0.00     0.000 HD 
BRANCH  14  21
HETATM   21  C   UNL     1      -9.874  10.720  69.328  1.00  0.00    -0.138 C  
HETATM   22  O   UNL     1      -8.717  11.508  69.062  1.00  0.00    -0.366 OA 
HETATM   23  H   UNL     1      -8.172  11.567  69.837  1.00  0.00     0.000 HD 
ENDBRANCH  14  21
ENDBRANCH   8  12
TORSDOF 2
ENDMDL
MODEL      130
REMARK 921   NORMALIZED FREE ENERGY PREDICTED BY IDOCK:   -3.48 KCAL/MOL
REMARK 922        TOTAL FREE ENERGY PREDICTED BY IDOCK:   -4.05 KCAL/MOL
REMARK 923 INTER-LIGAND FREE ENERGY PREDICTED BY IDOCK:   -3.93 KCAL/MOL
REMARK 924 INTRA-LIGAND FREE ENERGY PREDICTED BY IDOCK:   -0.12 KCAL/MOL
REMARK 927      BINDING AFFINITY PREDICTED BY RF-SCORE:    0.00 PKD
ROOT
HETATM    1  N   UNL     1      -6.844  10.852  67.688  1.00  0.00    -0.079 NA 
HETATM    2  H2  UNL     1      -7.248   9.915  67.656  1.00  0.00     0.000 HD 
HETATM    3  C   UNL     1      -7.614  11.951  67.944  1.00  0.00    -0.128 C  
HETATM    4  H1  UNL     1      -5.849  11.007  67.530  1.00  0.00     0.000 HD 
HETATM    5  N   UNL     1      -8.878  11.753  68.144  1.00  0.00    -0.164 N  
HETATM    6  C   UNL     1      -9.707  12.813  68.409  1.00  0.00    -0.186 C  
HETATM    7  H   UNL     1      -9.257  10.806  68.104  1.00  0.00     0.000 HD 
HETATM    8  N   UNL     1      -9.190  14.121  68.300  1.00  0.00    -0.194 N  
HETATM    9  O   UNL     1     -10.878  12.611  68.719  1.00  0.00    -0.237 OA 
HETATM   10  C   UNL     1      -7.001  13.284  67.980  1.00  0.00    -0.120 C  
HETATM   11  C   UNL     1      -7.835  14.314  68.137  1.00  0.00    -0.139 C  
ENDROOT
BRANCH   8  12
HETATM   12  C   UNL     1     -10.150  15.201  68.550  1.00  0.00    -0.228 C  
HETATM   13  O   UNL     1     -11.000  15.307  67.381  1.00  0.00    -0.309 OA 
HETATM   14  C   UNL     1     -10.549  16.402  66.566  1.00  0.00    -0.235 C  
HETATM   15  C   UNL     1      -9.777  17.360  67.468  1.00  0.00    -0.266 C  
HETATM   16  F   UNL     1     -10.622  17.241  69.653  1.00  0.00    -0.317 F  
HETATM   17  C   UNL     1      -9.718  16.650  68.814  1.00  0.00    -0.254 C  
HETATM   18  O   UNL     1     -10.458  18.625  67.555  1.00  0.00    -0.388 OA 
HETATM   19  F   UNL     1      -8.517  16.804  69.401  1.00  0.00    -0.184 F  
HETATM   20  H   UNL     1      -9.977  19.222  68.116  1.00  0.00     0.000 HD 
BRANCH  14  21
HETATM   21  C   UNL     1      -9.665  15.827  65.451  1.00  0.00    -0.111 C  
HETATM   22  O   UNL     1     -10.244  14.637  64.923  1.00  0.00    -0.394 OA 
HETATM   23  H   UNL     1      -9.697  14.281  64.233  1.00  0.00     0.000 HD 
ENDBRANCH  14  21
ENDBRANCH   8  12
TORSDOF 2
ENDMDL
MODEL      131
REMARK 921   NORMALIZED FREE ENERGY PREDICTED BY IDOCK:   -3.48 KCAL/MOL
REMARK 922        TOTAL FREE ENERGY PREDICTED BY IDOCK:   -4.04 KCAL/MOL
REMARK 923 INTER-LIGAND FREE ENERGY PREDICTED BY IDOCK:   -4.00 KCAL/MOL
REMARK 924 INTRA-LIGAND FREE ENERGY PREDICTED BY IDOCK:   -0.05 KCAL/MOL
REMARK 927      BINDING AFFINITY PREDICTED BY RF-SCORE:    0.00 PKD
ROOT
HETATM    1  N   UNL     1     -12.300  13.781  66.283  1.00  0.00    -0.447 NA 
HETATM    2  H2  UNL     1     -11.900  14.484  65.662  1.00  0.00     0.000 HD 
HETATM    3  C   UNL     1     -11.508  12.963  67.038  1.00  0.00    -0.339 C  
HETATM    4  H1  UNL     1     -13.309  13.657  66.367  1.00  0.00     0.000 HD 
HETATM    5  N   UNL     1     -10.227  13.120  66.931  1.00  0.00    -0.243 N  
HETATM    6  C   UNL     1      -9.373  12.334  67.664  1.00  0.00    -0.186 C  
HETATM    7  H   UNL     1      -9.851  13.830  66.301  1.00  0.00     0.000 HD 
HETATM    8  N   UNL     1      -9.910  11.259  68.402  1.00  0.00    -0.193 N  
HETATM    9  O   UNL     1      -8.167  12.567  67.654  1.00  0.00    -0.148 OA 
HETATM   10  C   UNL     1     -12.117  11.959  67.920  1.00  0.00     0.019 C  
HETATM   11  C   UNL     1     -11.275  11.136  68.547  1.00  0.00    -0.258 C  
ENDROOT
BRANCH   8  12
HETATM   12  C   UNL     1      -8.929  10.435  69.118  1.00  0.00    -0.179 C  
HETATM   13  O   UNL     1      -8.336   9.529  68.156  1.00  0.00    -0.117 OA 
HETATM   14  C   UNL     1      -8.953   8.237  68.279  1.00  0.00    -0.136 C  
HETATM   15  C   UNL     1      -9.535   8.137  69.684  1.00  0.00    -0.159 C  
HETATM   16  F   UNL     1      -8.264   9.443  71.161  1.00  0.00    -0.200 F  
HETATM   17  C   UNL     1      -9.313   9.517  70.287  1.00  0.00    -0.259 C  
HETATM   18  O   UNL     1      -8.864   7.107  70.433  1.00  0.00    -0.148 OA 
HETATM   19  F   UNL     1     -10.372   9.914  71.018  1.00  0.00    -0.356 F  
HETATM   20  H   UNL     1      -9.227   7.044  71.309  1.00  0.00     0.000 HD 
BRANCH  14  21
HETATM   21  C   UNL     1     -10.040   8.130  67.199  1.00  0.00    -0.264 C  
HETATM   22  O   UNL     1      -9.480   7.653  65.978  1.00  0.00    -0.386 OA 
HETATM   23  H   UNL     1     -10.152   7.587  65.310  1.00  0.00     0.000 HD 
ENDBRANCH  14  21
ENDBRANCH   8  12
TORSDOF 2
ENDMDL
MODEL      132
REMARK 921   NORMALIZED FREE ENERGY PREDICTED BY IDOCK:   -3.47 KCAL/MOL
REMARK 922        TOTAL FREE ENERGY PREDICTED BY IDOCK:   -4.03 KCAL/MOL
REMARK 923 INTER-LIGAND FREE ENERGY PREDICTED BY IDOCK:   -4.72 KCAL/MOL
REMARK 924 INTRA-LIGAND FREE ENERGY PREDICTED BY IDOCK:    0.69 KCAL/MOL
REMARK 927      BINDING AFFINITY PREDICTED BY RF-SCORE:    0.00 PKD
ROOT
HETATM    1  N   UNL     1      -7.630   7.539  74.436  1.00  0.00    -0.129 NA 
HETATM    2  H2  UNL     1      -7.925   7.108  75.313  1.00  0.00     0.000 HD 
HETATM    3  C   UNL     1      -8.538   7.922  73.490  1.00  0.00    -0.243 C  
HETATM    4  H1  UNL     1      -6.645   7.702  74.229  1.00  0.00     0.000 HD 
HETATM    5  N   UNL     1      -9.788   7.714  73.754  1.00  0.00    -0.356 N  
HETATM    6  C   UNL     1     -10.752   8.078  72.848  1.00  0.00    -0.333 C  
HETATM    7  H   UNL     1     -10.057   7.280  74.637  1.00  0.00     0.000 HD 
HETATM    8  N   UNL     1     -10.348   8.528  71.573  1.00  0.00    -0.228 N  
HETATM    9  O   UNL     1     -11.939   7.994  73.151  1.00  0.00    -0.189 OA 
HETATM   10  C   UNL     1      -8.078   8.537  72.238  1.00  0.00    -0.150 C  
HETATM   11  C   UNL     1      -9.018   8.791  71.326  1.00  0.00    -0.231 C  
ENDROOT
BRANCH   8  12
HETATM   12  C   UNL     1     -11.437   8.850  70.644  1.00  0.00    -0.242 C  
HETATM   13  O   UNL     1     -10.945   8.620  69.301  1.00  0.00    -0.124 OA 
HETATM   14  C   UNL     1     -10.574   9.877  68.712  1.00  0.00    -0.222 C  
HETATM   15  C   UNL     1     -11.346  10.973  69.438  1.00  0.00    -0.284 C  
HETATM   16  F   UNL     1     -13.388  10.117  70.214  1.00  0.00    -0.301 F  
HETATM   17  C   UNL     1     -12.071  10.244  70.562  1.00  0.00    -0.310 C  
HETATM   18  O   UNL     1     -12.262  11.622  68.538  1.00  0.00    -0.485 OA 
HETATM   19  F   UNL     1     -12.061  10.959  71.702  1.00  0.00    -0.362 F  
HETATM   20  H   UNL     1     -12.743  12.305  68.990  1.00  0.00     0.000 HD 
BRANCH  14  21
HETATM   21  C   UNL     1      -9.056  10.042  68.873  1.00  0.00    -0.159 C  
HETATM   22  O   UNL     1      -8.727  11.410  69.098  1.00  0.00    -0.374 OA 
HETATM   23  H   UNL     1      -7.788  11.512  69.198  1.00  0.00     0.000 HD 
ENDBRANCH  14  21
ENDBRANCH   8  12
TORSDOF 2
ENDMDL
MODEL      133
REMARK 921   NORMALIZED FREE ENERGY PREDICTED BY IDOCK:   -3.47 KCAL/MOL
REMARK 922        TOTAL FREE ENERGY PREDICTED BY IDOCK:   -4.03 KCAL/MOL
REMARK 923 INTER-LIGAND FREE ENERGY PREDICTED BY IDOCK:   -3.89 KCAL/MOL
REMARK 924 INTRA-LIGAND FREE ENERGY PREDICTED BY IDOCK:   -0.14 KCAL/MOL
REMARK 927      BINDING AFFINITY PREDICTED BY RF-SCORE:    0.00 PKD
ROOT
HETATM    1  N   UNL     1      -8.801   8.565  73.928  1.00  0.00    -0.252 NA 
HETATM    2  H2  UNL     1      -9.273   8.284  74.788  1.00  0.00     0.000 HD 
HETATM    3  C   UNL     1      -9.253   8.163  72.704  1.00  0.00    -0.263 C  
HETATM    4  H1  UNL     1      -7.972   9.159  73.947  1.00  0.00     0.000 HD 
HETATM    5  N   UNL     1     -10.306   7.410  72.681  1.00  0.00    -0.223 N  
HETATM    6  C   UNL     1     -10.814   6.974  71.483  1.00  0.00    -0.230 C  
HETATM    7  H   UNL     1     -10.758   7.141  73.555  1.00  0.00     0.000 HD 
HETATM    8  N   UNL     1     -10.082   7.226  70.305  1.00  0.00    -0.191 N  
HETATM    9  O   UNL     1     -11.880   6.364  71.458  1.00  0.00    -0.315 OA 
HETATM   10  C   UNL     1      -8.548   8.585  71.486  1.00  0.00    -0.236 C  
HETATM   11  C   UNL     1      -8.993   8.070  70.338  1.00  0.00    -0.146 C  
ENDROOT
BRANCH   8  12
HETATM   12  C   UNL     1     -10.665   6.684  69.073  1.00  0.00    -0.259 C  
HETATM   13  O   UNL     1     -10.292   5.287  68.992  1.00  0.00    -0.210 OA 
HETATM   14  C   UNL     1      -9.184   5.145  68.086  1.00  0.00    -0.116 C  
HETATM   15  C   UNL     1      -9.201   6.345  67.146  1.00  0.00    -0.123 C  
HETATM   16  F   UNL     1     -11.405   7.096  66.863  1.00  0.00    -0.431 F  
HETATM   17  C   UNL     1     -10.318   7.231  67.681  1.00  0.00    -0.227 C  
HETATM   18  O   UNL     1      -9.451   5.920  65.794  1.00  0.00    -0.342 OA 
HETATM   19  F   UNL     1      -9.982   8.533  67.632  1.00  0.00    -0.186 F  
HETATM   20  H   UNL     1      -9.461   6.668  65.208  1.00  0.00     0.000 HD 
BRANCH  14  21
HETATM   21  C   UNL     1      -7.897   5.089  68.922  1.00  0.00    -0.077 C  
HETATM   22  O   UNL     1      -8.096   4.292  70.086  1.00  0.00    -0.058 OA 
HETATM   23  H   UNL     1      -7.300   4.257  70.603  1.00  0.00     0.000 HD 
ENDBRANCH  14  21
ENDBRANCH   8  12
TORSDOF 2
ENDMDL
MODEL      134
REMARK 921   NORMALIZED FREE ENERGY PREDICTED BY IDOCK:   -3.42 KCAL/MOL
REMARK 922        TOTAL FREE ENERGY PREDICTED BY IDOCK:   -3.97 KCAL/MOL
REMARK 923 INTER-LIGAND FREE ENERGY PREDICTED BY IDOCK:   -3.80 KCAL/MOL
REMARK 924 INTRA-LIGAND FREE ENERGY PREDICTED BY IDOCK:   -0.17 KCAL/MOL
REMARK 927      BINDING AFFINITY PREDICTED BY RF-SCORE:    0.00 PKD
ROOT
HETATM    1  N   UNL     1      -9.872   5.620  66.166  1.00  0.00    -0.310 NA 
HETATM    2  H2  UNL     1      -9.338   5.041  65.517  1.00  0.00     0.000 HD 
HETATM    3  C   UNL     1      -9.716   6.976  66.205  1.00  0.00     0.115 C  
HETATM    4  H1  UNL     1     -10.545   5.210  66.814  1.00  0.00     0.000 HD 
HETATM    5  N   UNL     1      -8.862   7.495  65.382  1.00  0.00    -0.373 N  
HETATM    6  C   UNL     1      -8.659   8.852  65.366  1.00  0.00    -0.176 C  
HETATM    7  H   UNL     1      -8.339   6.895  64.744  1.00  0.00     0.000 HD 
HETATM    8  N   UNL     1      -9.273   9.640  66.362  1.00  0.00    -0.155 N  
HETATM    9  O   UNL     1      -7.942   9.353  64.504  1.00  0.00    -0.114 OA 
HETATM   10  C   UNL     1     -10.499   7.779  67.153  1.00  0.00    -0.413 C  
HETATM   11  C   UNL     1     -10.216   9.082  67.197  1.00  0.00    -0.265 C  
ENDROOT
BRANCH   8  12
HETATM   12  C   UNL     1      -8.967  11.074  66.309  1.00  0.00    -0.185 C  
HETATM   13  O   UNL     1      -7.643  11.258  66.868  1.00  0.00    -0.135 OA 
HETATM   14  C   UNL     1      -7.763  11.716  68.225  1.00  0.00    -0.128 C  
HETATM   15  C   UNL     1      -9.130  12.374  68.371  1.00  0.00    -0.141 C  
HETATM   16  F   UNL     1      -9.787  13.294  66.316  1.00  0.00    -0.259 F  
HETATM   17  C   UNL     1      -9.814  12.130  67.033  1.00  0.00    -0.203 C  
HETATM   18  O   UNL     1      -8.983  13.778  68.653  1.00  0.00    -0.306 OA 
HETATM   19  F   UNL     1     -11.115  11.826  67.191  1.00  0.00    -0.268 F  
HETATM   20  H   UNL     1      -9.835  14.188  68.744  1.00  0.00     0.000 HD 
BRANCH  14  21
HETATM   21  C   UNL     1      -7.611  10.498  69.148  1.00  0.00    -0.123 C  
HETATM   22  O   UNL     1      -8.699  10.432  70.066  1.00  0.00    -0.365 OA 
HETATM   23  H   UNL     1      -8.605   9.679  70.636  1.00  0.00     0.000 HD 
ENDBRANCH  14  21
ENDBRANCH   8  12
TORSDOF 2
ENDMDL
MODEL      135
REMARK 921   NORMALIZED FREE ENERGY PREDICTED BY IDOCK:   -3.38 KCAL/MOL
REMARK 922        TOTAL FREE ENERGY PREDICTED BY IDOCK:   -3.94 KCAL/MOL
REMARK 923 INTER-LIGAND FREE ENERGY PREDICTED BY IDOCK:   -4.11 KCAL/MOL
REMARK 924 INTRA-LIGAND FREE ENERGY PREDICTED BY IDOCK:    0.17 KCAL/MOL
REMARK 927      BINDING AFFINITY PREDICTED BY RF-SCORE:    0.00 PKD
ROOT
HETATM    1  N   UNL     1      -8.444  15.390  66.260  1.00  0.00    -0.404 NA 
HETATM    2  H2  UNL     1      -7.494  15.737  66.125  1.00  0.00     0.000 HD 
HETATM    3  C   UNL     1      -8.681  14.143  66.764  1.00  0.00    -0.123 C  
HETATM    4  H1  UNL     1      -9.257  15.959  66.025  1.00  0.00     0.000 HD 
HETATM    5  N   UNL     1      -7.648  13.421  67.063  1.00  0.00    -0.357 N  
HETATM    6  C   UNL     1      -7.815  12.159  67.576  1.00  0.00    -0.162 C  
HETATM    7  H   UNL     1      -6.709  13.791  66.916  1.00  0.00     0.000 HD 
HETATM    8  N   UNL     1      -9.115  11.613  67.619  1.00  0.00    -0.169 N  
HETATM    9  O   UNL     1      -6.840  11.527  67.973  1.00  0.00    -0.060 OA 
HETATM   10  C   UNL     1     -10.061  13.673  66.943  1.00  0.00    -0.260 C  
HETATM   11  C   UNL     1     -10.206  12.409  67.346  1.00  0.00    -0.208 C  
ENDROOT
BRANCH   8  12
HETATM   12  C   UNL     1      -9.206  10.242  68.134  1.00  0.00    -0.136 C  
HETATM   13  O   UNL     1      -8.308   9.421  67.347  1.00  0.00    -0.123 OA 
HETATM   14  C   UNL     1      -9.068   8.702  66.361  1.00  0.00    -0.174 C  
HETATM   15  C   UNL     1     -10.504   8.608  66.865  1.00  0.00    -0.258 C  
HETATM   16  F   UNL     1     -10.519   8.594  69.210  1.00  0.00    -0.208 F  
HETATM   17  C   UNL     1     -10.516   9.443  68.138  1.00  0.00    -0.220 C  
HETATM   18  O   UNL     1     -10.858   7.236  67.117  1.00  0.00    -0.411 OA 
HETATM   19  F   UNL     1     -11.643  10.170  68.242  1.00  0.00    -0.283 F  
HETATM   20  H   UNL     1     -11.754   7.177  67.430  1.00  0.00     0.000 HD 
BRANCH  14  21
HETATM   21  C   UNL     1      -8.974   9.475  65.038  1.00  0.00    -0.213 C  
HETATM   22  O   UNL     1     -10.226  10.079  64.726  1.00  0.00    -0.335 OA 
HETATM   23  H   UNL     1     -10.168  10.557  63.907  1.00  0.00     0.000 HD 
ENDBRANCH  14  21
ENDBRANCH   8  12
TORSDOF 2
ENDMDL
MODEL      136
REMARK 921   NORMALIZED FREE ENERGY PREDICTED BY IDOCK:   -3.36 KCAL/MOL
REMARK 922        TOTAL FREE ENERGY PREDICTED BY IDOCK:   -3.91 KCAL/MOL
REMARK 923 INTER-LIGAND FREE ENERGY PREDICTED BY IDOCK:   -3.95 KCAL/MOL
REMARK 924 INTRA-LIGAND FREE ENERGY PREDICTED BY IDOCK:    0.04 KCAL/MOL
REMARK 927      BINDING AFFINITY PREDICTED BY RF-SCORE:    0.00 PKD
ROOT
HETATM    1  N   UNL     1      -8.985  20.630  65.588  1.00  0.00    -0.105 NA 
HETATM    2  H2  UNL     1      -8.765  21.576  65.902  1.00  0.00     0.000 HD 
HETATM    3  C   UNL     1      -9.439  19.680  66.458  1.00  0.00    -0.384 C  
HETATM    4  H1  UNL     1      -8.877  20.354  64.612  1.00  0.00     0.000 HD 
HETATM    5  N   UNL     1      -9.577  20.031  67.696  1.00  0.00    -0.370 N  
HETATM    6  C   UNL     1     -10.032  19.125  68.622  1.00  0.00    -0.419 C  
HETATM    7  H   UNL     1      -9.348  20.982  67.985  1.00  0.00     0.000 HD 
HETATM    8  N   UNL     1     -10.189  17.779  68.231  1.00  0.00    -0.361 N  
HETATM    9  O   UNL     1     -10.279  19.493  69.768  1.00  0.00    -0.069 OA 
HETATM   10  C   UNL     1      -9.745  18.327  65.974  1.00  0.00    -0.114 C  
HETATM   11  C   UNL     1     -10.088  17.432  66.902  1.00  0.00    -0.314 C  
ENDROOT
BRANCH   8  12
HETATM   12  C   UNL     1     -10.630  16.863  69.289  1.00  0.00    -0.325 C  
HETATM   13  O   UNL     1      -9.448  16.229  69.836  1.00  0.00     0.067 OA 
HETATM   14  C   UNL     1      -9.313  14.914  69.271  1.00  0.00    -0.104 C  
HETATM   15  C   UNL     1     -10.694  14.470  68.802  1.00  0.00    -0.253 C  
HETATM   16  F   UNL     1     -12.342  15.468  70.139  1.00  0.00    -0.342 F  
HETATM   17  C   UNL     1     -11.581  15.688  69.025  1.00  0.00    -0.386 C  
HETATM   18  O   UNL     1     -11.141  13.332  69.561  1.00  0.00    -0.440 OA 
HETATM   19  F   UNL     1     -12.452  15.857  68.013  1.00  0.00     0.226 F  
HETATM   20  H   UNL     1     -12.001  13.055  69.268  1.00  0.00     0.000 HD 
BRANCH  14  21
HETATM   21  C   UNL     1      -8.313  15.001  68.110  1.00  0.00    -0.142 C  
HETATM   22  O   UNL     1      -7.588  13.780  67.988  1.00  0.00    -0.115 OA 
HETATM   23  H   UNL     1      -6.969  13.834  67.269  1.00  0.00     0.000 HD 
ENDBRANCH  14  21
ENDBRANCH   8  12
TORSDOF 2
ENDMDL
MODEL      137
REMARK 921   NORMALIZED FREE ENERGY PREDICTED BY IDOCK:   -3.34 KCAL/MOL
REMARK 922        TOTAL FREE ENERGY PREDICTED BY IDOCK:   -3.89 KCAL/MOL
REMARK 923 INTER-LIGAND FREE ENERGY PREDICTED BY IDOCK:   -3.79 KCAL/MOL
REMARK 924 INTRA-LIGAND FREE ENERGY PREDICTED BY IDOCK:   -0.10 KCAL/MOL
REMARK 927      BINDING AFFINITY PREDICTED BY RF-SCORE:    0.00 PKD
ROOT
HETATM    1  N   UNL     1     -11.849   7.594  72.929  1.00  0.00    -0.607 NA 
HETATM    2  H2  UNL     1     -11.724   6.753  73.494  1.00  0.00     0.000 HD 
HETATM    3  C   UNL     1     -11.220   7.744  71.727  1.00  0.00    -0.256 C  
HETATM    4  H1  UNL     1     -12.449   8.359  73.239  1.00  0.00     0.000 HD 
HETATM    5  N   UNL     1     -10.458   6.773  71.334  1.00  0.00    -0.214 N  
HETATM    6  C   UNL     1      -9.799   6.858  70.133  1.00  0.00    -0.177 C  
HETATM    7  H   UNL     1     -10.349   5.944  71.918  1.00  0.00     0.000 HD 
HETATM    8  N   UNL     1      -9.840   8.076  69.423  1.00  0.00    -0.178 N  
HETATM    9  O   UNL     1      -9.178   5.888  69.707  1.00  0.00    -0.141 OA 
HETATM   10  C   UNL     1     -11.419   8.969  70.941  1.00  0.00    -0.347 C  
HETATM   11  C   UNL     1     -10.693   9.080  69.827  1.00  0.00    -0.225 C  
ENDROOT
BRANCH   8  12
HETATM   12  C   UNL     1      -9.069   8.104  68.175  1.00  0.00    -0.134 C  
HETATM   13  O   UNL     1      -7.749   8.610  68.490  1.00  0.00    -0.096 OA 
HETATM   14  C   UNL     1      -7.676   9.999  68.127  1.00  0.00    -0.085 C  
HETATM   15  C   UNL     1      -8.737  10.254  67.063  1.00  0.00    -0.129 C  
HETATM   16  F   UNL     1      -9.091   8.298  65.817  1.00  0.00    -0.200 F  
HETATM   17  C   UNL     1      -9.494   8.936  66.957  1.00  0.00    -0.166 C  
HETATM   18  O   UNL     1      -8.119  10.621  65.816  1.00  0.00    -0.159 OA 
HETATM   19  F   UNL     1     -10.817   9.136  66.819  1.00  0.00    -0.273 F  
HETATM   20  H   UNL     1      -8.781  10.780  65.152  1.00  0.00     0.000 HD 
BRANCH  14  21
HETATM   21  C   UNL     1      -7.924  10.830  69.394  1.00  0.00    -0.067 C  
HETATM   22  O   UNL     1      -7.378  10.171  70.534  1.00  0.00    -0.338 OA 
HETATM   23  H   UNL     1      -7.532  10.685  71.318  1.00  0.00     0.000 HD 
ENDBRANCH  14  21
ENDBRANCH   8  12
TORSDOF 2
ENDMDL
MODEL      138
REMARK 921   NORMALIZED FREE ENERGY PREDICTED BY IDOCK:   -3.30 KCAL/MOL
REMARK 922        TOTAL FREE ENERGY PREDICTED BY IDOCK:   -3.84 KCAL/MOL
REMARK 923 INTER-LIGAND FREE ENERGY PREDICTED BY IDOCK:   -3.69 KCAL/MOL
REMARK 924 INTRA-LIGAND FREE ENERGY PREDICTED BY IDOCK:   -0.15 KCAL/MOL
REMARK 927      BINDING AFFINITY PREDICTED BY RF-SCORE:    0.00 PKD
ROOT
HETATM    1  N   UNL     1      -6.424   2.721  72.569  1.00  0.00    -0.014 NA 
HETATM    2  H2  UNL     1      -5.745   2.466  71.851  1.00  0.00     0.000 HD 
HETATM    3  C   UNL     1      -7.491   3.525  72.286  1.00  0.00    -0.057 C  
HETATM    4  H1  UNL     1      -6.336   2.385  73.528  1.00  0.00     0.000 HD 
HETATM    5  N   UNL     1      -7.603   3.950  71.068  1.00  0.00    -0.047 N  
HETATM    6  C   UNL     1      -8.653   4.760  70.715  1.00  0.00    -0.105 C  
HETATM    7  H   UNL     1      -6.909   3.683  70.370  1.00  0.00     0.000 HD 
HETATM    8  N   UNL     1      -9.505   5.244  71.729  1.00  0.00    -0.146 N  
HETATM    9  O   UNL     1      -8.824   5.060  69.536  1.00  0.00    -0.093 OA 
HETATM   10  C   UNL     1      -8.449   3.875  73.343  1.00  0.00    -0.088 C  
HETATM   11  C   UNL     1      -9.405   4.744  73.010  1.00  0.00    -0.126 C  
ENDROOT
BRANCH   8  12
HETATM   12  C   UNL     1     -10.573   6.143  71.280  1.00  0.00    -0.243 C  
HETATM   13  O   UNL     1     -10.001   7.468  71.149  1.00  0.00    -0.181 OA 
HETATM   14  C   UNL     1     -10.344   8.247  72.307  1.00  0.00    -0.316 C  
HETATM   15  C   UNL     1     -11.601   7.637  72.917  1.00  0.00    -0.228 C  
HETATM   16  F   UNL     1     -12.888   6.632  71.234  1.00  0.00    -0.376 F  
HETATM   17  C   UNL     1     -11.853   6.382  72.092  1.00  0.00    -0.314 C  
HETATM   18  O   UNL     1     -12.699   8.564  72.837  1.00  0.00    -0.645 OA 
HETATM   19  F   UNL     1     -12.255   5.356  72.863  1.00  0.00    -0.322 F  
HETATM   20  H   UNL     1     -13.482   8.184  73.218  1.00  0.00     0.000 HD 
BRANCH  14  21
HETATM   21  C   UNL     1      -9.155   8.200  73.276  1.00  0.00    -0.257 C  
HETATM   22  O   UNL     1      -7.926   8.240  72.556  1.00  0.00    -0.134 OA 
HETATM   23  H   UNL     1      -7.190   8.211  73.156  1.00  0.00     0.000 HD 
ENDBRANCH  14  21
ENDBRANCH   8  12
TORSDOF 2
ENDMDL
MODEL      139
REMARK 921   NORMALIZED FREE ENERGY PREDICTED BY IDOCK:   -3.28 KCAL/MOL
REMARK 922        TOTAL FREE ENERGY PREDICTED BY IDOCK:   -3.82 KCAL/MOL
REMARK 923 INTER-LIGAND FREE ENERGY PREDICTED BY IDOCK:   -3.91 KCAL/MOL
REMARK 924 INTRA-LIGAND FREE ENERGY PREDICTED BY IDOCK:    0.09 KCAL/MOL
REMARK 927      BINDING AFFINITY PREDICTED BY RF-SCORE:    0.00 PKD
ROOT
HETATM    1  N   UNL     1     -12.105  13.220  66.316  1.00  0.00    -0.419 NA 
HETATM    2  H2  UNL     1     -12.523  13.566  65.452  1.00  0.00     0.000 HD 
HETATM    3  C   UNL     1     -11.243  12.160  66.315  1.00  0.00    -0.334 C  
HETATM    4  H1  UNL     1     -12.312  13.651  67.217  1.00  0.00     0.000 HD 
HETATM    5  N   UNL     1     -10.981  11.614  65.171  1.00  0.00    -0.287 N  
HETATM    6  C   UNL     1     -10.120  10.547  65.098  1.00  0.00    -0.314 C  
HETATM    7  H   UNL     1     -11.414  11.978  64.321  1.00  0.00     0.000 HD 
HETATM    8  N   UNL     1      -9.662   9.965  66.298  1.00  0.00    -0.206 N  
HETATM    9  O   UNL     1      -9.779  10.111  64.002  1.00  0.00    -0.306 OA 
HETATM   10  C   UNL     1     -10.661  11.686  67.577  1.00  0.00    -0.245 C  
HETATM   11  C   UNL     1      -9.908  10.587  67.503  1.00  0.00    -0.168 C  
ENDROOT
BRANCH   8  12
HETATM   12  C   UNL     1      -8.787   8.799  66.138  1.00  0.00    -0.168 C  
HETATM   13  O   UNL     1      -9.599   7.615  66.330  1.00  0.00    -0.200 OA 
HETATM   14  C   UNL     1      -9.398   7.114  67.663  1.00  0.00    -0.127 C  
HETATM   15  C   UNL     1      -8.043   7.620  68.145  1.00  0.00    -0.124 C  
HETATM   16  F   UNL     1      -6.606   7.898  66.312  1.00  0.00    -0.047 F  
HETATM   17  C   UNL     1      -7.567   8.548  67.035  1.00  0.00    -0.092 C  
HETATM   18  O   UNL     1      -7.140   6.518  68.351  1.00  0.00    -0.077 OA 
HETATM   19  F   UNL     1      -6.971   9.648  67.532  1.00  0.00    -0.078 F  
HETATM   20  H   UNL     1      -6.296   6.834  68.652  1.00  0.00     0.000 HD 
BRANCH  14  21
HETATM   21  C   UNL     1     -10.548   7.631  68.539  1.00  0.00    -0.124 C  
HETATM   22  O   UNL     1     -11.461   6.577  68.831  1.00  0.00    -0.596 OA 
HETATM   23  H   UNL     1     -12.173   6.897  69.373  1.00  0.00     0.000 HD 
ENDBRANCH  14  21
ENDBRANCH   8  12
TORSDOF 2
ENDMDL
MODEL      140
REMARK 921   NORMALIZED FREE ENERGY PREDICTED BY IDOCK:   -3.28 KCAL/MOL
REMARK 922        TOTAL FREE ENERGY PREDICTED BY IDOCK:   -3.82 KCAL/MOL
REMARK 923 INTER-LIGAND FREE ENERGY PREDICTED BY IDOCK:   -3.73 KCAL/MOL
REMARK 924 INTRA-LIGAND FREE ENERGY PREDICTED BY IDOCK:   -0.09 KCAL/MOL
REMARK 927      BINDING AFFINITY PREDICTED BY RF-SCORE:    0.00 PKD
ROOT
HETATM    1  N   UNL     1      -5.192   4.758  70.681  1.00  0.00    -0.003 NA 
HETATM    2  H2  UNL     1      -4.904   3.813  70.937  1.00  0.00     0.000 HD 
HETATM    3  C   UNL     1      -6.412   5.253  71.042  1.00  0.00    -0.034 C  
HETATM    4  H1  UNL     1      -4.581   5.374  70.143  1.00  0.00     0.000 HD 
HETATM    5  N   UNL     1      -7.187   4.472  71.724  1.00  0.00    -0.058 N  
HETATM    6  C   UNL     1      -8.426   4.907  72.123  1.00  0.00    -0.124 C  
HETATM    7  H   UNL     1      -6.877   3.530  71.966  1.00  0.00     0.000 HD 
HETATM    8  N   UNL     1      -8.894   6.148  71.641  1.00  0.00    -0.138 N  
HETATM    9  O   UNL     1      -9.107   4.212  72.872  1.00  0.00    -0.110 OA 
HETATM   10  C   UNL     1      -6.797   6.616  70.654  1.00  0.00    -0.062 C  
HETATM   11  C   UNL     1      -8.041   6.988  70.960  1.00  0.00    -0.105 C  
ENDROOT
BRANCH   8  12
HETATM   12  C   UNL     1     -10.247   6.520  72.071  1.00  0.00    -0.193 C  
HETATM   13  O   UNL     1     -11.184   5.760  71.269  1.00  0.00    -0.246 OA 
HETATM   14  C   UNL     1     -11.692   6.597  70.216  1.00  0.00    -0.371 C  
HETATM   15  C   UNL     1     -11.534   8.046  70.662  1.00  0.00    -0.232 C  
HETATM   16  F   UNL     1     -11.665   8.171  73.000  1.00  0.00    -0.456 F  
HETATM   17  C   UNL     1     -10.778   7.957  71.981  1.00  0.00    -0.241 C  
HETATM   18  O   UNL     1     -12.824   8.665  70.820  1.00  0.00    -0.487 OA 
HETATM   19  F   UNL     1      -9.855   8.930  72.087  1.00  0.00    -0.357 F  
HETATM   20  H   UNL     1     -12.725   9.569  71.097  1.00  0.00     0.000 HD 
BRANCH  14  21
HETATM   21  C   UNL     1     -10.885   6.296  68.945  1.00  0.00    -0.333 C  
HETATM   22  O   UNL     1     -10.357   4.973  68.993  1.00  0.00    -0.179 OA 
HETATM   23  H   UNL     1      -9.858   4.788  68.207  1.00  0.00     0.000 HD 
ENDBRANCH  14  21
ENDBRANCH   8  12
TORSDOF 2
ENDMDL
MODEL      141
REMARK 921   NORMALIZED FREE ENERGY PREDICTED BY IDOCK:   -3.28 KCAL/MOL
REMARK 922        TOTAL FREE ENERGY PREDICTED BY IDOCK:   -3.82 KCAL/MOL
REMARK 923 INTER-LIGAND FREE ENERGY PREDICTED BY IDOCK:   -3.80 KCAL/MOL
REMARK 924 INTRA-LIGAND FREE ENERGY PREDICTED BY IDOCK:   -0.02 KCAL/MOL
REMARK 927      BINDING AFFINITY PREDICTED BY RF-SCORE:    0.00 PKD
ROOT
HETATM    1  N   UNL     1     -10.960   5.867  66.235  1.00  0.00    -0.710 NA 
HETATM    2  H2  UNL     1     -10.378   5.481  65.491  1.00  0.00     0.000 HD 
HETATM    3  C   UNL     1     -10.427   6.229  67.440  1.00  0.00    -0.248 C  
HETATM    4  H1  UNL     1     -11.964   5.998  66.112  1.00  0.00     0.000 HD 
HETATM    5  N   UNL     1      -9.153   6.062  67.595  1.00  0.00    -0.111 N  
HETATM    6  C   UNL     1      -8.553   6.408  68.780  1.00  0.00    -0.123 C  
HETATM    7  H   UNL     1      -8.594   5.672  66.836  1.00  0.00     0.000 HD 
HETATM    8  N   UNL     1      -9.368   6.793  69.865  1.00  0.00    -0.157 N  
HETATM    9  O   UNL     1      -7.330   6.364  68.881  1.00  0.00    -0.082 OA 
HETATM   10  C   UNL     1     -11.294   6.778  68.490  1.00  0.00    -0.056 C  
HETATM   11  C   UNL     1     -10.714   7.014  69.669  1.00  0.00    -0.241 C  
ENDROOT
BRANCH   8  12
HETATM   12  C   UNL     1      -8.657   7.099  71.110  1.00  0.00    -0.129 C  
HETATM   13  O   UNL     1      -8.571   5.871  71.876  1.00  0.00    -0.135 OA 
HETATM   14  C   UNL     1      -9.586   5.877  72.894  1.00  0.00    -0.155 C  
HETATM   15  C   UNL     1      -9.959   7.330  73.165  1.00  0.00    -0.249 C  
HETATM   16  F   UNL     1      -8.107   8.710  72.754  1.00  0.00    -0.205 F  
HETATM   17  C   UNL     1      -9.173   8.124  72.129  1.00  0.00    -0.194 C  
HETATM   18  O   UNL     1      -9.601   7.697  74.510  1.00  0.00    -0.292 OA 
HETATM   19  F   UNL     1      -9.903   9.134  71.623  1.00  0.00    -0.344 F  
HETATM   20  H   UNL     1      -9.833   8.602  74.680  1.00  0.00     0.000 HD 
BRANCH  14  21
HETATM   21  C   UNL     1     -10.781   5.067  72.371  1.00  0.00    -0.200 C  
HETATM   22  O   UNL     1     -10.804   3.774  72.969  1.00  0.00    -0.173 OA 
HETATM   23  H   UNL     1     -11.543   3.273  72.646  1.00  0.00     0.000 HD 
ENDBRANCH  14  21
ENDBRANCH   8  12
TORSDOF 2
ENDMDL
MODEL      142
REMARK 921   NORMALIZED FREE ENERGY PREDICTED BY IDOCK:   -3.26 KCAL/MOL
REMARK 922        TOTAL FREE ENERGY PREDICTED BY IDOCK:   -3.80 KCAL/MOL
REMARK 923 INTER-LIGAND FREE ENERGY PREDICTED BY IDOCK:   -4.14 KCAL/MOL
REMARK 924 INTRA-LIGAND FREE ENERGY PREDICTED BY IDOCK:    0.33 KCAL/MOL
REMARK 927      BINDING AFFINITY PREDICTED BY RF-SCORE:    0.00 PKD
ROOT
HETATM    1  N   UNL     1     -10.371  12.279  65.510  1.00  0.00    -0.260 NA 
HETATM    2  H2  UNL     1     -10.126  12.026  64.553  1.00  0.00     0.000 HD 
HETATM    3  C   UNL     1     -10.226  11.394  66.540  1.00  0.00    -0.221 C  
HETATM    4  H1  UNL     1     -10.737  13.203  65.739  1.00  0.00     0.000 HD 
HETATM    5  N   UNL     1      -9.762  10.221  66.250  1.00  0.00    -0.199 N  
HETATM    6  C   UNL     1      -9.587   9.285  67.238  1.00  0.00    -0.155 C  
HETATM    7  H   UNL     1      -9.525   9.992  65.284  1.00  0.00     0.000 HD 
HETATM    8  N   UNL     1     -10.069   9.570  68.533  1.00  0.00    -0.171 N  
HETATM    9  O   UNL     1      -9.034   8.219  66.980  1.00  0.00    -0.133 OA 
HETATM   10  C   UNL     1     -10.592  11.791  67.906  1.00  0.00    -0.231 C  
HETATM   11  C   UNL     1     -10.513  10.839  68.838  1.00  0.00    -0.205 C  
ENDROOT
BRANCH   8  12
HETATM   12  C   UNL     1      -9.891   8.501  69.521  1.00  0.00    -0.187 C  
HETATM   13  O   UNL     1     -11.209   8.026  69.891  1.00  0.00    -0.177 OA 
HETATM   14  C   UNL     1     -11.587   8.613  71.148  1.00  0.00    -0.281 C  
HETATM   15  C   UNL     1     -10.308   9.012  71.874  1.00  0.00    -0.287 C  
HETATM   16  F   UNL     1      -8.562   7.576  71.247  1.00  0.00    -0.116 F  
HETATM   17  C   UNL     1      -9.197   8.728  70.871  1.00  0.00    -0.212 C  
HETATM   18  O   UNL     1     -10.154   8.244  73.081  1.00  0.00    -0.242 OA 
HETATM   19  F   UNL     1      -8.256   9.689  70.890  1.00  0.00    -0.212 F  
HETATM   20  H   UNL     1      -9.357   8.493  73.534  1.00  0.00     0.000 HD 
BRANCH  14  21
HETATM   21  C   UNL     1     -12.481   9.825  70.851  1.00  0.00    -0.277 C  
HETATM   22  O   UNL     1     -13.850   9.434  70.808  1.00  0.00    -0.570 OA 
HETATM   23  H   UNL     1     -14.403  10.184  70.625  1.00  0.00     0.000 HD 
ENDBRANCH  14  21
ENDBRANCH   8  12
TORSDOF 2
ENDMDL
MODEL      143
REMARK 921   NORMALIZED FREE ENERGY PREDICTED BY IDOCK:   -3.25 KCAL/MOL
REMARK 922        TOTAL FREE ENERGY PREDICTED BY IDOCK:   -3.79 KCAL/MOL
REMARK 923 INTER-LIGAND FREE ENERGY PREDICTED BY IDOCK:   -4.60 KCAL/MOL
REMARK 924 INTRA-LIGAND FREE ENERGY PREDICTED BY IDOCK:    0.81 KCAL/MOL
REMARK 927      BINDING AFFINITY PREDICTED BY RF-SCORE:    0.00 PKD
ROOT
HETATM    1  N   UNL     1     -10.967  10.429  69.060  1.00  0.00    -0.225 NA 
HETATM    2  H2  UNL     1     -11.829  10.685  68.577  1.00  0.00     0.000 HD 
HETATM    3  C   UNL     1     -10.956   9.480  70.042  1.00  0.00    -0.251 C  
HETATM    4  H1  UNL     1     -10.077  10.871  68.830  1.00  0.00     0.000 HD 
HETATM    5  N   UNL     1     -12.086   8.919  70.333  1.00  0.00    -0.459 N  
HETATM    6  C   UNL     1     -12.146   7.955  71.308  1.00  0.00    -0.296 C  
HETATM    7  H   UNL     1     -12.934   9.194  69.836  1.00  0.00     0.000 HD 
HETATM    8  N   UNL     1     -10.996   7.708  72.086  1.00  0.00    -0.242 N  
HETATM    9  O   UNL     1     -13.191   7.339  71.496  1.00  0.00    -0.376 OA 
HETATM   10  C   UNL     1      -9.699   9.138  70.719  1.00  0.00    -0.337 C  
HETATM   11  C   UNL     1      -9.790   8.275  71.733  1.00  0.00    -0.218 C  
ENDROOT
BRANCH   8  12
HETATM   12  C   UNL     1     -11.153   6.700  73.140  1.00  0.00    -0.171 C  
HETATM   13  O   UNL     1     -10.436   7.174  74.307  1.00  0.00    -0.236 OA 
HETATM   14  C   UNL     1      -9.163   6.511  74.381  1.00  0.00    -0.203 C  
HETATM   15  C   UNL     1      -9.278   5.204  73.606  1.00  0.00    -0.129 C  
HETATM   16  F   UNL     1     -11.489   4.425  73.696  1.00  0.00    -0.347 F  
HETATM   17  C   UNL     1     -10.667   5.253  72.983  1.00  0.00    -0.257 C  
HETATM   18  O   UNL     1      -9.125   4.079  74.491  1.00  0.00    -0.098 OA 
HETATM   19  F   UNL     1     -10.662   4.772  71.726  1.00  0.00    -0.253 F  
HETATM   20  H   UNL     1      -9.196   3.265  74.008  1.00  0.00     0.000 HD 
BRANCH  14  21
HETATM   21  C   UNL     1      -8.108   7.447  73.774  1.00  0.00    -0.125 C  
HETATM   22  O   UNL     1      -8.154   8.723  74.406  1.00  0.00    -0.381 OA 
HETATM   23  H   UNL     1      -7.502   9.302  74.030  1.00  0.00     0.000 HD 
ENDBRANCH  14  21
ENDBRANCH   8  12
TORSDOF 2
ENDMDL
MODEL      144
REMARK 921   NORMALIZED FREE ENERGY PREDICTED BY IDOCK:   -3.24 KCAL/MOL
REMARK 922        TOTAL FREE ENERGY PREDICTED BY IDOCK:   -3.77 KCAL/MOL
REMARK 923 INTER-LIGAND FREE ENERGY PREDICTED BY IDOCK:   -4.91 KCAL/MOL
REMARK 924 INTRA-LIGAND FREE ENERGY PREDICTED BY IDOCK:    1.14 KCAL/MOL
REMARK 927      BINDING AFFINITY PREDICTED BY RF-SCORE:    0.00 PKD
ROOT
HETATM    1  N   UNL     1     -14.279  15.710  72.784  1.00  0.00    -0.478 NA 
HETATM    2  H2  UNL     1     -14.816  15.451  73.612  1.00  0.00     0.000 HD 
HETATM    3  C   UNL     1     -13.571  14.782  72.075  1.00  0.00    -0.403 C  
HETATM    4  H1  UNL     1     -14.247  16.674  72.450  1.00  0.00     0.000 HD 
HETATM    5  N   UNL     1     -13.612  13.559  72.499  1.00  0.00    -0.587 N  
HETATM    6  C   UNL     1     -12.927  12.575  71.831  1.00  0.00    -0.301 C  
HETATM    7  H   UNL     1     -14.155  13.326  73.331  1.00  0.00     0.000 HD 
HETATM    8  N   UNL     1     -12.059  12.947  70.784  1.00  0.00    -0.266 N  
HETATM    9  O   UNL     1     -13.066  11.401  72.162  1.00  0.00    -0.462 OA 
HETATM   10  C   UNL     1     -12.806  15.189  70.889  1.00  0.00    -0.479 C  
HETATM   11  C   UNL     1     -12.064  14.242  70.312  1.00  0.00    -0.335 C  
ENDROOT
BRANCH   8  12
HETATM   12  C   UNL     1     -11.323  11.846  70.153  1.00  0.00     0.098 C  
HETATM   13  O   UNL     1     -10.408  12.426  69.191  1.00  0.00    -0.023 OA 
HETATM   14  C   UNL     1     -10.971  12.309  67.874  1.00  0.00    -0.224 C  
HETATM   15  C   UNL     1     -11.969  11.157  67.899  1.00  0.00     0.083 C  
HETATM   16  F   UNL     1     -11.306   9.572  69.496  1.00  0.00    -0.223 F  
HETATM   17  C   UNL     1     -12.020  10.731  69.361  1.00  0.00    -0.281 C  
HETATM   18  O   UNL     1     -11.527  10.090  67.042  1.00  0.00    -0.145 OA 
HETATM   19  F   UNL     1     -13.275  10.436  69.746  1.00  0.00    -0.154 F  
HETATM   20  H   UNL     1     -12.149   9.372  67.057  1.00  0.00     0.000 HD 
BRANCH  14  21
HETATM   21  C   UNL     1     -11.644  13.645  67.528  1.00  0.00    -0.350 C  
HETATM   22  O   UNL     1     -12.506  13.490  66.404  1.00  0.00    -0.380 OA 
HETATM   23  H   UNL     1     -12.923  14.316  66.191  1.00  0.00     0.000 HD 
ENDBRANCH  14  21
ENDBRANCH   8  12
TORSDOF 2
ENDMDL
MODEL      145
REMARK 921   NORMALIZED FREE ENERGY PREDICTED BY IDOCK:   -3.19 KCAL/MOL
REMARK 922        TOTAL FREE ENERGY PREDICTED BY IDOCK:   -3.72 KCAL/MOL
REMARK 923 INTER-LIGAND FREE ENERGY PREDICTED BY IDOCK:   -3.56 KCAL/MOL
REMARK 924 INTRA-LIGAND FREE ENERGY PREDICTED BY IDOCK:   -0.16 KCAL/MOL
REMARK 927      BINDING AFFINITY PREDICTED BY RF-SCORE:    0.00 PKD
ROOT
HETATM    1  N   UNL     1      -5.144  10.534  67.222  1.00  0.00    -0.040 NA 
HETATM    2  H2  UNL     1      -4.759   9.846  66.575  1.00  0.00     0.000 HD 
HETATM    3  C   UNL     1      -6.435  10.967  67.118  1.00  0.00    -0.084 C  
HETATM    4  H1  UNL     1      -4.580  10.929  67.975  1.00  0.00     0.000 HD 
HETATM    5  N   UNL     1      -7.150  10.466  66.162  1.00  0.00    -0.123 N  
HETATM    6  C   UNL     1      -8.456  10.855  66.002  1.00  0.00    -0.167 C  
HETATM    7  H   UNL     1      -6.741   9.780  65.526  1.00  0.00     0.000 HD 
HETATM    8  N   UNL     1      -8.947  11.916  66.790  1.00  0.00    -0.192 N  
HETATM    9  O   UNL     1      -9.166  10.289  65.175  1.00  0.00    -0.174 OA 
HETATM   10  C   UNL     1      -6.955  11.961  68.065  1.00  0.00    -0.078 C  
HETATM   11  C   UNL     1      -8.193  12.405  67.835  1.00  0.00    -0.163 C  
ENDROOT
BRANCH   8  12
HETATM   12  C   UNL     1     -10.336  12.307  66.526  1.00  0.00    -0.227 C  
HETATM   13  O   UNL     1     -10.319  13.272  65.445  1.00  0.00    -0.294 OA 
HETATM   14  C   UNL     1     -10.445  14.596  65.991  1.00  0.00    -0.305 C  
HETATM   15  C   UNL     1     -11.113  14.470  67.356  1.00  0.00    -0.314 C  
HETATM   16  F   UNL     1     -12.526  12.598  67.373  1.00  0.00    -0.215 F  
HETATM   17  C   UNL     1     -11.227  12.969  67.586  1.00  0.00    -0.280 C  
HETATM   18  O   UNL     1     -12.400  15.113  67.345  1.00  0.00    -0.242 OA 
HETATM   19  F   UNL     1     -10.956  12.643  68.863  1.00  0.00    -0.243 F  
HETATM   20  H   UNL     1     -12.816  15.035  68.196  1.00  0.00     0.000 HD 
BRANCH  14  21
HETATM   21  C   UNL     1      -9.036  15.197  66.095  1.00  0.00    -0.241 C  
HETATM   22  O   UNL     1      -8.872  15.864  67.344  1.00  0.00    -0.182 OA 
HETATM   23  H   UNL     1      -8.001  16.236  67.409  1.00  0.00     0.000 HD 
ENDBRANCH  14  21
ENDBRANCH   8  12
TORSDOF 2
ENDMDL
MODEL      146
REMARK 921   NORMALIZED FREE ENERGY PREDICTED BY IDOCK:   -3.14 KCAL/MOL
REMARK 922        TOTAL FREE ENERGY PREDICTED BY IDOCK:   -3.66 KCAL/MOL
REMARK 923 INTER-LIGAND FREE ENERGY PREDICTED BY IDOCK:   -3.81 KCAL/MOL
REMARK 924 INTRA-LIGAND FREE ENERGY PREDICTED BY IDOCK:    0.15 KCAL/MOL
REMARK 927      BINDING AFFINITY PREDICTED BY RF-SCORE:    0.00 PKD
ROOT
HETATM    1  N   UNL     1     -11.399  20.336  65.200  1.00  0.00     0.261 NA 
HETATM    2  H2  UNL     1     -11.299  21.078  64.507  1.00  0.00     0.000 HD 
HETATM    3  C   UNL     1     -10.310  19.776  65.805  1.00  0.00    -0.423 C  
HETATM    4  H1  UNL     1     -12.316  19.980  65.470  1.00  0.00     0.000 HD 
HETATM    5  N   UNL     1      -9.146  20.227  65.461  1.00  0.00    -0.287 N  
HETATM    6  C   UNL     1      -8.011  19.711  66.034  1.00  0.00    -0.328 C  
HETATM    7  H   UNL     1      -9.073  20.969  64.764  1.00  0.00     0.000 HD 
HETATM    8  N   UNL     1      -8.129  18.583  66.872  1.00  0.00    -0.238 N  
HETATM    9  O   UNL     1      -6.920  20.224  65.798  1.00  0.00    -0.266 OA 
HETATM   10  C   UNL     1     -10.489  18.707  66.797  1.00  0.00    -0.454 C  
HETATM   11  C   UNL     1      -9.374  18.146  67.267  1.00  0.00    -0.252 C  
ENDROOT
BRANCH   8  12
HETATM   12  C   UNL     1      -6.866  18.059  67.404  1.00  0.00    -0.190 C  
HETATM   13  O   UNL     1      -6.539  16.863  66.653  1.00  0.00    -0.205 OA 
HETATM   14  C   UNL     1      -6.910  15.706  67.422  1.00  0.00    -0.197 C  
HETATM   15  C   UNL     1      -6.946  16.120  68.888  1.00  0.00    -0.161 C  
HETATM   16  F   UNL     1      -5.411  17.854  69.259  1.00  0.00    -0.171 F  
HETATM   17  C   UNL     1      -6.700  17.622  68.866  1.00  0.00    -0.236 C  
HETATM   18  O   UNL     1      -5.933  15.419  69.633  1.00  0.00    -0.116 OA 
HETATM   19  F   UNL     1      -7.477  18.264  69.759  1.00  0.00     0.068 F  
HETATM   20  H   UNL     1      -5.956  15.676  70.547  1.00  0.00     0.000 HD 
BRANCH  14  21
HETATM   21  C   UNL     1      -8.283  15.232  66.925  1.00  0.00    -0.228 C  
HETATM   22  O   UNL     1      -8.349  13.808  66.936  1.00  0.00    -0.389 OA 
HETATM   23  H   UNL     1      -9.199  13.515  66.628  1.00  0.00     0.000 HD 
ENDBRANCH  14  21
ENDBRANCH   8  12
TORSDOF 2
ENDMDL
MODEL      147
REMARK 921   NORMALIZED FREE ENERGY PREDICTED BY IDOCK:   -3.12 KCAL/MOL
REMARK 922        TOTAL FREE ENERGY PREDICTED BY IDOCK:   -3.65 KCAL/MOL
REMARK 923 INTER-LIGAND FREE ENERGY PREDICTED BY IDOCK:   -3.47 KCAL/MOL
REMARK 924 INTRA-LIGAND FREE ENERGY PREDICTED BY IDOCK:   -0.18 KCAL/MOL
REMARK 927      BINDING AFFINITY PREDICTED BY RF-SCORE:    0.00 PKD
ROOT
HETATM    1  N   UNL     1      -7.297  14.184  69.354  1.00  0.00    -0.323 NA 
HETATM    2  H2  UNL     1      -7.926  14.865  69.782  1.00  0.00     0.000 HD 
HETATM    3  C   UNL     1      -7.723  13.349  68.361  1.00  0.00    -0.138 C  
HETATM    4  H1  UNL     1      -6.324  14.099  69.649  1.00  0.00     0.000 HD 
HETATM    5  N   UNL     1      -8.957  13.457  67.987  1.00  0.00    -0.183 N  
HETATM    6  C   UNL     1      -9.449  12.650  66.992  1.00  0.00    -0.220 C  
HETATM    7  H   UNL     1      -9.566  14.144  68.432  1.00  0.00     0.000 HD 
HETATM    8  N   UNL     1      -8.636  11.605  66.505  1.00  0.00    -0.179 N  
HETATM    9  O   UNL     1     -10.581  12.839  66.555  1.00  0.00    -0.251 OA 
HETATM   10  C   UNL     1      -6.792  12.379  67.769  1.00  0.00    -0.113 C  
HETATM   11  C   UNL     1      -7.311  11.533  66.876  1.00  0.00    -0.140 C  
ENDROOT
BRANCH   8  12
HETATM   12  C   UNL     1      -9.250  10.755  65.479  1.00  0.00    -0.202 C  
HETATM   13  O   UNL     1     -10.112   9.808  66.156  1.00  0.00    -0.257 OA 
HETATM   14  C   UNL     1      -9.435   8.545  66.264  1.00  0.00    -0.231 C  
HETATM   15  C   UNL     1      -8.377   8.495  65.167  1.00  0.00    -0.169 C  
HETATM   16  F   UNL     1      -9.080   9.775  63.332  1.00  0.00    -0.222 F  
HETATM   17  C   UNL     1      -8.426   9.876  64.528  1.00  0.00    -0.175 C  
HETATM   18  O   UNL     1      -8.682   7.453  64.222  1.00  0.00    -0.297 OA 
HETATM   19  F   UNL     1      -7.193  10.329  64.235  1.00  0.00    -0.138 F  
HETATM   20  H   UNL     1      -8.022   7.421  63.539  1.00  0.00     0.000 HD 
BRANCH  14  21
HETATM   21  C   UNL     1      -8.813   8.462  67.665  1.00  0.00    -0.136 C  
HETATM   22  O   UNL     1      -7.452   8.046  67.580  1.00  0.00    -0.093 OA 
HETATM   23  H   UNL     1      -7.068   7.994  68.447  1.00  0.00     0.000 HD 
ENDBRANCH  14  21
ENDBRANCH   8  12
TORSDOF 2
ENDMDL
MODEL      148
REMARK 921   NORMALIZED FREE ENERGY PREDICTED BY IDOCK:   -3.05 KCAL/MOL
REMARK 922        TOTAL FREE ENERGY PREDICTED BY IDOCK:   -3.56 KCAL/MOL
REMARK 923 INTER-LIGAND FREE ENERGY PREDICTED BY IDOCK:   -3.51 KCAL/MOL
REMARK 924 INTRA-LIGAND FREE ENERGY PREDICTED BY IDOCK:   -0.06 KCAL/MOL
REMARK 927      BINDING AFFINITY PREDICTED BY RF-SCORE:    0.00 PKD
ROOT
HETATM    1  N   UNL     1      -9.847   3.408  65.257  1.00  0.00    -0.367 NA 
HETATM    2  H2  UNL     1      -9.085   2.909  64.796  1.00  0.00     0.000 HD 
HETATM    3  C   UNL     1      -9.674   4.667  65.756  1.00  0.00    -0.197 C  
HETATM    4  H1  UNL     1     -10.770   2.987  65.365  1.00  0.00     0.000 HD 
HETATM    5  N   UNL     1      -8.503   5.201  65.619  1.00  0.00    -0.129 N  
HETATM    6  C   UNL     1      -8.263   6.466  66.095  1.00  0.00    -0.122 C  
HETATM    7  H   UNL     1      -7.757   4.681  65.156  1.00  0.00     0.000 HD 
HETATM    8  N   UNL     1      -9.258   7.098  66.869  1.00  0.00    -0.141 N  
HETATM    9  O   UNL     1      -7.191   7.016  65.855  1.00  0.00    -0.070 OA 
HETATM   10  C   UNL     1     -10.791   5.355  66.417  1.00  0.00    -0.202 C  
HETATM   11  C   UNL     1     -10.514   6.540  66.964  1.00  0.00    -0.295 C  
ENDROOT
BRANCH   8  12
HETATM   12  C   UNL     1      -8.907   8.426  67.384  1.00  0.00    -0.134 C  
HETATM   13  O   UNL     1      -8.220   8.237  68.645  1.00  0.00    -0.118 OA 
HETATM   14  C   UNL     1      -9.140   8.474  69.724  1.00  0.00    -0.153 C  
HETATM   15  C   UNL     1     -10.255   9.366  69.192  1.00  0.00    -0.202 C  
HETATM   16  F   UNL     1      -9.422  10.734  67.478  1.00  0.00    -0.151 F  
HETATM   17  C   UNL     1      -9.959   9.496  67.703  1.00  0.00    -0.180 C  
HETATM   18  O   UNL     1     -10.240  10.641  69.858  1.00  0.00    -0.430 OA 
HETATM   19  F   UNL     1     -11.086   9.445  66.969  1.00  0.00    -0.250 F  
HETATM   20  H   UNL     1     -10.936  11.197  69.526  1.00  0.00     0.000 HD 
BRANCH  14  21
HETATM   21  C   UNL     1      -9.670   7.113  70.198  1.00  0.00    -0.171 C  
HETATM   22  O   UNL     1     -10.195   7.218  71.519  1.00  0.00    -0.194 OA 
HETATM   23  H   UNL     1     -10.523   6.376  71.812  1.00  0.00     0.000 HD 
ENDBRANCH  14  21
ENDBRANCH   8  12
TORSDOF 2
ENDMDL
MODEL      149
REMARK 921   NORMALIZED FREE ENERGY PREDICTED BY IDOCK:   -3.03 KCAL/MOL
REMARK 922        TOTAL FREE ENERGY PREDICTED BY IDOCK:   -3.55 KCAL/MOL
REMARK 923 INTER-LIGAND FREE ENERGY PREDICTED BY IDOCK:   -4.35 KCAL/MOL
REMARK 924 INTRA-LIGAND FREE ENERGY PREDICTED BY IDOCK:    0.80 KCAL/MOL
REMARK 927      BINDING AFFINITY PREDICTED BY RF-SCORE:    0.00 PKD
ROOT
HETATM    1  N   UNL     1      -7.882   7.979  65.490  1.00  0.00    -0.100 NA 
HETATM    2  H2  UNL     1      -7.772   7.057  65.912  1.00  0.00     0.000 HD 
HETATM    3  C   UNL     1      -8.754   8.897  66.002  1.00  0.00    -0.160 C  
HETATM    4  H1  UNL     1      -7.345   8.256  64.668  1.00  0.00     0.000 HD 
HETATM    5  N   UNL     1      -9.435   8.545  67.046  1.00  0.00    -0.162 N  
HETATM    6  C   UNL     1     -10.327   9.421  67.613  1.00  0.00    -0.246 C  
HETATM    7  H   UNL     1      -9.309   7.616  67.447  1.00  0.00     0.000 HD 
HETATM    8  N   UNL     1     -10.600  10.635  66.948  1.00  0.00    -0.257 N  
HETATM    9  O   UNL     1     -10.879   9.131  68.672  1.00  0.00    -0.162 OA 
HETATM   10  C   UNL     1      -8.889  10.215  65.369  1.00  0.00    -0.196 C  
HETATM   11  C   UNL     1      -9.832  11.016  65.869  1.00  0.00    -0.232 C  
ENDROOT
BRANCH   8  12
HETATM   12  C   UNL     1     -11.601  11.494  67.590  1.00  0.00    -0.247 C  
HETATM   13  O   UNL     1     -12.063  12.441  66.597  1.00  0.00    -0.592 OA 
HETATM   14  C   UNL     1     -11.399  13.700  66.800  1.00  0.00    -0.328 C  
HETATM   15  C   UNL     1     -10.941  13.751  68.252  1.00  0.00    -0.250 C  
HETATM   16  F   UNL     1     -12.399  12.485  69.585  1.00  0.00    -0.278 F  
HETATM   17  C   UNL     1     -11.280  12.373  68.806  1.00  0.00    -0.273 C  
HETATM   18  O   UNL     1     -11.629  14.800  68.959  1.00  0.00    -0.268 OA 
HETATM   19  F   UNL     1     -10.311  11.916  69.620  1.00  0.00     0.032 F  
HETATM   20  H   UNL     1     -11.343  14.832  69.865  1.00  0.00     0.000 HD 
BRANCH  14  21
HETATM   21  C   UNL     1     -10.217  13.772  65.823  1.00  0.00    -0.311 C  
HETATM   22  O   UNL     1      -9.407  14.909  66.106  1.00  0.00    -0.320 OA 
HETATM   23  H   UNL     1      -8.676  14.953  65.502  1.00  0.00     0.000 HD 
ENDBRANCH  14  21
ENDBRANCH   8  12
TORSDOF 2
ENDMDL
MODEL      150
REMARK 921   NORMALIZED FREE ENERGY PREDICTED BY IDOCK:   -3.03 KCAL/MOL
REMARK 922        TOTAL FREE ENERGY PREDICTED BY IDOCK:   -3.54 KCAL/MOL
REMARK 923 INTER-LIGAND FREE ENERGY PREDICTED BY IDOCK:   -4.23 KCAL/MOL
REMARK 924 INTRA-LIGAND FREE ENERGY PREDICTED BY IDOCK:    0.69 KCAL/MOL
REMARK 927      BINDING AFFINITY PREDICTED BY RF-SCORE:    0.00 PKD
ROOT
HETATM    1  N   UNL     1      -9.202  10.524  65.608  1.00  0.00    -0.177 NA 
HETATM    2  H2  UNL     1      -9.262  10.268  64.622  1.00  0.00     0.000 HD 
HETATM    3  C   UNL     1      -9.590   9.660  66.592  1.00  0.00    -0.187 C  
HETATM    4  H1  UNL     1      -8.850  11.435  65.901  1.00  0.00     0.000 HD 
HETATM    5  N   UNL     1     -10.037   8.503  66.219  1.00  0.00    -0.441 N  
HETATM    6  C   UNL     1     -10.440   7.586  67.157  1.00  0.00    -0.336 C  
HETATM    7  H   UNL     1     -10.089   8.273  65.227  1.00  0.00     0.000 HD 
HETATM    8  N   UNL     1     -10.509   7.986  68.508  1.00  0.00    -0.194 N  
HETATM    9  O   UNL     1     -10.746   6.449  66.808  1.00  0.00    -0.290 OA 
HETATM   10  C   UNL     1      -9.493  10.061  68.001  1.00  0.00    -0.150 C  
HETATM   11  C   UNL     1      -9.983   9.200  68.895  1.00  0.00    -0.180 C  
ENDROOT
BRANCH   8  12
HETATM   12  C   UNL     1     -10.997   6.966  69.443  1.00  0.00    -0.237 C  
HETATM   13  O   UNL     1     -11.696   7.652  70.510  1.00  0.00    -0.237 OA 
HETATM   14  C   UNL     1     -10.831   7.750  71.655  1.00  0.00    -0.229 C  
HETATM   15  C   UNL     1      -9.791   6.641  71.543  1.00  0.00    -0.171 C  
HETATM   16  F   UNL     1     -10.703   4.816  70.387  1.00  0.00    -0.247 F  
HETATM   17  C   UNL     1     -10.058   6.005  70.185  1.00  0.00    -0.194 C  
HETATM   18  O   UNL     1      -9.944   5.699  72.620  1.00  0.00    -0.170 OA 
HETATM   19  F   UNL     1      -8.913   5.698  69.549  1.00  0.00    -0.114 F  
HETATM   20  H   UNL     1      -9.295   5.008  72.550  1.00  0.00     0.000 HD 
BRANCH  14  21
HETATM   21  C   UNL     1     -10.188   9.144  71.640  1.00  0.00    -0.301 C  
HETATM   22  O   UNL     1      -8.844   9.075  72.110  1.00  0.00    -0.376 OA 
HETATM   23  H   UNL     1      -8.446   9.938  72.101  1.00  0.00     0.000 HD 
ENDBRANCH  14  21
ENDBRANCH   8  12
TORSDOF 2
ENDMDL
MODEL      151
REMARK 921   NORMALIZED FREE ENERGY PREDICTED BY IDOCK:   -3.03 KCAL/MOL
REMARK 922        TOTAL FREE ENERGY PREDICTED BY IDOCK:   -3.54 KCAL/MOL
REMARK 923 INTER-LIGAND FREE ENERGY PREDICTED BY IDOCK:   -3.42 KCAL/MOL
REMARK 924 INTRA-LIGAND FREE ENERGY PREDICTED BY IDOCK:   -0.12 KCAL/MOL
REMARK 927      BINDING AFFINITY PREDICTED BY RF-SCORE:    0.00 PKD
ROOT
HETATM    1  N   UNL     1      -8.904   8.582  72.686  1.00  0.00    -0.361 NA 
HETATM    2  H2  UNL     1      -8.272   9.362  72.871  1.00  0.00     0.000 HD 
HETATM    3  C   UNL     1      -8.712   7.748  71.622  1.00  0.00    -0.118 C  
HETATM    4  H1  UNL     1      -9.705   8.392  73.288  1.00  0.00     0.000 HD 
HETATM    5  N   UNL     1      -7.695   7.989  70.858  1.00  0.00    -0.080 N  
HETATM    6  C   UNL     1      -7.443   7.187  69.773  1.00  0.00    -0.097 C  
HETATM    7  H   UNL     1      -7.080   8.776  71.063  1.00  0.00     0.000 HD 
HETATM    8  N   UNL     1      -8.395   6.208  69.420  1.00  0.00    -0.115 N  
HETATM    9  O   UNL     1      -6.412   7.343  69.124  1.00  0.00    -0.037 OA 
HETATM   10  C   UNL     1      -9.642   6.636  71.383  1.00  0.00    -0.174 C  
HETATM   11  C   UNL     1      -9.444   5.929  70.269  1.00  0.00    -0.162 C  
ENDROOT
BRANCH   8  12
HETATM   12  C   UNL     1      -8.078   5.426  68.220  1.00  0.00    -0.095 C  
HETATM   13  O   UNL     1      -8.287   6.285  67.072  1.00  0.00    -0.109 OA 
HETATM   14  C   UNL     1      -9.561   5.980  66.479  1.00  0.00    -0.154 C  
HETATM   15  C   UNL     1      -9.927   4.556  66.879  1.00  0.00    -0.198 C  
HETATM   16  F   UNL     1      -7.972   3.297  67.192  1.00  0.00    -0.077 F  
HETATM   17  C   UNL     1      -8.827   4.139  67.848  1.00  0.00    -0.113 C  
HETATM   18  O   UNL     1      -9.974   3.705  65.719  1.00  0.00    -0.388 OA 
HETATM   19  F   UNL     1      -9.320   3.430  68.880  1.00  0.00    -0.181 F  
HETATM   20  H   UNL     1     -10.202   2.817  65.969  1.00  0.00     0.000 HD 
BRANCH  14  21
HETATM   21  C   UNL     1     -10.580   7.002  67.002  1.00  0.00    -0.341 C  
HETATM   22  O   UNL     1     -11.627   6.342  67.709  1.00  0.00    -0.622 OA 
HETATM   23  H   UNL     1     -12.257   6.975  68.033  1.00  0.00     0.000 HD 
ENDBRANCH  14  21
ENDBRANCH   8  12
TORSDOF 2
ENDMDL
MODEL      152
REMARK 921   NORMALIZED FREE ENERGY PREDICTED BY IDOCK:   -2.98 KCAL/MOL
REMARK 922        TOTAL FREE ENERGY PREDICTED BY IDOCK:   -3.49 KCAL/MOL
REMARK 923 INTER-LIGAND FREE ENERGY PREDICTED BY IDOCK:   -6.52 KCAL/MOL
REMARK 924 INTRA-LIGAND FREE ENERGY PREDICTED BY IDOCK:    3.03 KCAL/MOL
REMARK 927      BINDING AFFINITY PREDICTED BY RF-SCORE:    0.00 PKD
ROOT
HETATM    1  N   UNL     1      -9.660   9.006  68.582  1.00  0.00    -0.151 NA 
HETATM    2  H2  UNL     1     -10.327   8.990  69.355  1.00  0.00     0.000 HD 
HETATM    3  C   UNL     1      -9.858   9.799  67.488  1.00  0.00    -0.167 C  
HETATM    4  H1  UNL     1      -8.818   8.431  68.593  1.00  0.00     0.000 HD 
HETATM    5  N   UNL     1     -10.927  10.529  67.474  1.00  0.00    -0.303 N  
HETATM    6  C   UNL     1     -11.185  11.352  66.406  1.00  0.00    -0.183 C  
HETATM    7  H   UNL     1     -11.579  10.494  68.258  1.00  0.00     0.000 HD 
HETATM    8  N   UNL     1     -10.355  11.265  65.269  1.00  0.00    -0.268 N  
HETATM    9  O   UNL     1     -12.132  12.132  66.450  1.00  0.00    -0.630 OA 
HETATM   10  C   UNL     1      -8.880   9.796  66.392  1.00  0.00    -0.163 C  
HETATM   11  C   UNL     1      -9.195  10.522  65.318  1.00  0.00    -0.200 C  
ENDROOT
BRANCH   8  12
HETATM   12  C   UNL     1     -10.725  12.139  64.150  1.00  0.00    -0.360 C  
HETATM   13  O   UNL     1      -9.815  13.266  64.159  1.00  0.00    -0.202 OA 
HETATM   14  C   UNL     1     -10.467  14.395  64.767  1.00  0.00    -0.367 C  
HETATM   15  C   UNL     1     -11.971  14.184  64.636  1.00  0.00    -0.445 C  
HETATM   16  F   UNL     1     -12.428  12.928  62.709  1.00  0.00    -0.389 F  
HETATM   17  C   UNL     1     -12.108  12.793  64.031  1.00  0.00    -0.457 C  
HETATM   18  O   UNL     1     -12.548  15.197  63.793  1.00  0.00    -0.982 OA 
HETATM   19  F   UNL     1     -13.127  12.111  64.587  1.00  0.00    -0.501 F  
HETATM   20  H   UNL     1     -13.486  15.066  63.712  1.00  0.00     0.000 HD 
BRANCH  14  21
HETATM   21  C   UNL     1     -10.022  14.460  66.235  1.00  0.00    -0.306 C  
HETATM   22  O   UNL     1      -8.697  13.954  66.375  1.00  0.00    -0.451 OA 
HETATM   23  H   UNL     1      -8.422  13.994  67.283  1.00  0.00     0.000 HD 
ENDBRANCH  14  21
ENDBRANCH   8  12
TORSDOF 2
ENDMDL
MODEL      153
REMARK 921   NORMALIZED FREE ENERGY PREDICTED BY IDOCK:   -2.98 KCAL/MOL
REMARK 922        TOTAL FREE ENERGY PREDICTED BY IDOCK:   -3.49 KCAL/MOL
REMARK 923 INTER-LIGAND FREE ENERGY PREDICTED BY IDOCK:   -4.48 KCAL/MOL
REMARK 924 INTRA-LIGAND FREE ENERGY PREDICTED BY IDOCK:    1.00 KCAL/MOL
REMARK 927      BINDING AFFINITY PREDICTED BY RF-SCORE:    0.00 PKD
ROOT
HETATM    1  N   UNL     1     -13.450  10.175  72.305  1.00  0.00    -0.587 NA 
HETATM    2  H2  UNL     1     -13.911  10.075  73.210  1.00  0.00     0.000 HD 
HETATM    3  C   UNL     1     -12.535   9.260  71.867  1.00  0.00    -0.382 C  
HETATM    4  H1  UNL     1     -13.653  10.962  71.688  1.00  0.00     0.000 HD 
HETATM    5  N   UNL     1     -12.278   8.262  72.650  1.00  0.00    -0.576 N  
HETATM    6  C   UNL     1     -11.370   7.305  72.270  1.00  0.00    -0.272 C  
HETATM    7  H   UNL     1     -12.750   8.186  73.551  1.00  0.00     0.000 HD 
HETATM    8  N   UNL     1     -10.616   7.516  71.097  1.00  0.00    -0.221 N  
HETATM    9  O   UNL     1     -11.220   6.298  72.957  1.00  0.00    -0.234 OA 
HETATM   10  C   UNL     1     -11.889   9.436  70.560  1.00  0.00    -0.207 C  
HETATM   11  C   UNL     1     -10.936   8.554  70.249  1.00  0.00    -0.235 C  
ENDROOT
BRANCH   8  12
HETATM   12  C   UNL     1      -9.632   6.473  70.784  1.00  0.00    -0.179 C  
HETATM   13  O   UNL     1      -8.835   6.946  69.671  1.00  0.00    -0.140 OA 
HETATM   14  C   UNL     1      -9.308   6.338  68.458  1.00  0.00    -0.121 C  
HETATM   15  C   UNL     1     -10.027   5.048  68.839  1.00  0.00    -0.166 C  
HETATM   16  F   UNL     1      -9.087   4.171  70.801  1.00  0.00    -0.125 F  
HETATM   17  C   UNL     1     -10.034   5.054  70.362  1.00  0.00    -0.247 C  
HETATM   18  O   UNL     1      -9.327   3.908  68.308  1.00  0.00    -0.144 OA 
HETATM   19  F   UNL     1     -11.206   4.608  70.852  1.00  0.00     0.272 F  
HETATM   20  H   UNL     1      -9.775   3.104  68.545  1.00  0.00     0.000 HD 
BRANCH  14  21
HETATM   21  C   UNL     1     -10.249   7.335  67.767  1.00  0.00    -0.195 C  
HETATM   22  O   UNL     1     -11.303   6.645  67.103  1.00  0.00    -0.724 OA 
HETATM   23  H   UNL     1     -11.885   7.262  66.675  1.00  0.00     0.000 HD 
ENDBRANCH  14  21
ENDBRANCH   8  12
TORSDOF 2
ENDMDL
MODEL      154
REMARK 921   NORMALIZED FREE ENERGY PREDICTED BY IDOCK:   -2.96 KCAL/MOL
REMARK 922        TOTAL FREE ENERGY PREDICTED BY IDOCK:   -3.46 KCAL/MOL
REMARK 923 INTER-LIGAND FREE ENERGY PREDICTED BY IDOCK:   -3.45 KCAL/MOL
REMARK 924 INTRA-LIGAND FREE ENERGY PREDICTED BY IDOCK:   -0.01 KCAL/MOL
REMARK 927      BINDING AFFINITY PREDICTED BY RF-SCORE:    0.00 PKD
ROOT
HETATM    1  N   UNL     1      -6.317   9.910  71.550  1.00  0.00    -0.313 NA 
HETATM    2  H2  UNL     1      -6.629  10.573  72.259  1.00  0.00     0.000 HD 
HETATM    3  C   UNL     1      -6.638  10.073  70.232  1.00  0.00    -0.127 C  
HETATM    4  H1  UNL     1      -5.751   9.097  71.793  1.00  0.00     0.000 HD 
HETATM    5  N   UNL     1      -7.357  11.105  69.923  1.00  0.00    -0.333 N  
HETATM    6  C   UNL     1      -7.713  11.330  68.617  1.00  0.00    -0.136 C  
HETATM    7  H   UNL     1      -7.659  11.752  70.652  1.00  0.00     0.000 HD 
HETATM    8  N   UNL     1      -7.420  10.340  67.656  1.00  0.00    -0.089 N  
HETATM    9  O   UNL     1      -8.288  12.371  68.311  1.00  0.00    -0.165 OA 
HETATM   10  C   UNL     1      -6.174   9.098  69.237  1.00  0.00    -0.041 C  
HETATM   11  C   UNL     1      -6.613   9.274  67.989  1.00  0.00    -0.060 C  
ENDROOT
BRANCH   8  12
HETATM   12  C   UNL     1      -7.877  10.631  66.293  1.00  0.00    -0.150 C  
HETATM   13  O   UNL     1      -9.319  10.493  66.278  1.00  0.00    -0.163 OA 
HETATM   14  C   UNL     1      -9.666   9.214  65.720  1.00  0.00    -0.229 C  
HETATM   15  C   UNL     1      -8.499   8.758  64.851  1.00  0.00    -0.171 C  
HETATM   16  F   UNL     1      -7.387  10.630  63.978  1.00  0.00    -0.077 F  
HETATM   17  C   UNL     1      -7.424   9.814  65.075  1.00  0.00    -0.127 C  
HETATM   18  O   UNL     1      -8.900   8.682  63.471  1.00  0.00    -0.426 OA 
HETATM   19  F   UNL     1      -6.200   9.262  65.164  1.00  0.00    -0.063 F  
HETATM   20  H   UNL     1      -8.173   8.397  62.930  1.00  0.00     0.000 HD 
BRANCH  14  21
HETATM   21  C   UNL     1      -9.926   8.247  66.884  1.00  0.00    -0.273 C  
HETATM   22  O   UNL     1     -10.782   7.187  66.466  1.00  0.00    -0.508 OA 
HETATM   23  H   UNL     1     -10.943   6.589  67.186  1.00  0.00     0.000 HD 
ENDBRANCH  14  21
ENDBRANCH   8  12
TORSDOF 2
ENDMDL
MODEL      155
REMARK 921   NORMALIZED FREE ENERGY PREDICTED BY IDOCK:   -2.96 KCAL/MOL
REMARK 922        TOTAL FREE ENERGY PREDICTED BY IDOCK:   -3.46 KCAL/MOL
REMARK 923 INTER-LIGAND FREE ENERGY PREDICTED BY IDOCK:   -3.29 KCAL/MOL
REMARK 924 INTRA-LIGAND FREE ENERGY PREDICTED BY IDOCK:   -0.17 KCAL/MOL
REMARK 927      BINDING AFFINITY PREDICTED BY RF-SCORE:    0.00 PKD
ROOT
HETATM    1  N   UNL     1      -6.475   4.969  70.782  1.00  0.00    -0.029 NA 
HETATM    2  H2  UNL     1      -6.306   4.116  70.248  1.00  0.00     0.000 HD 
HETATM    3  C   UNL     1      -7.628   5.686  70.634  1.00  0.00    -0.090 C  
HETATM    4  H1  UNL     1      -5.789   5.323  71.450  1.00  0.00     0.000 HD 
HETATM    5  N   UNL     1      -8.497   5.236  69.787  1.00  0.00    -0.097 N  
HETATM    6  C   UNL     1      -9.679   5.907  69.592  1.00  0.00    -0.158 C  
HETATM    7  H   UNL     1      -8.304   4.382  69.263  1.00  0.00     0.000 HD 
HETATM    8  N   UNL     1      -9.853   7.165  70.206  1.00  0.00    -0.176 N  
HETATM    9  O   UNL     1     -10.551   5.414  68.882  1.00  0.00    -0.202 OA 
HETATM   10  C   UNL     1      -7.837   6.911  71.417  1.00  0.00    -0.100 C  
HETATM   11  C   UNL     1      -8.943   7.605  71.142  1.00  0.00    -0.138 C  
ENDROOT
BRANCH   8  12
HETATM   12  C   UNL     1     -11.120   7.841  69.909  1.00  0.00    -0.136 C  
HETATM   13  O   UNL     1     -11.011   8.406  68.579  1.00  0.00     0.014 OA 
HETATM   14  C   UNL     1     -10.719   9.809  68.684  1.00  0.00    -0.216 C  
HETATM   15  C   UNL     1     -11.198  10.279  70.053  1.00  0.00    -0.311 C  
HETATM   16  F   UNL     1     -13.023   8.975  70.741  1.00  0.00    -0.177 F  
HETATM   17  C   UNL     1     -11.656   9.006  70.753  1.00  0.00    -0.265 C  
HETATM   18  O   UNL     1     -12.268  11.230  69.911  1.00  0.00    -0.299 OA 
HETATM   19  F   UNL     1     -11.300   8.999  72.050  1.00  0.00    -0.392 F  
HETATM   20  H   UNL     1     -12.566  11.523  70.764  1.00  0.00     0.000 HD 
BRANCH  14  21
HETATM   21  C   UNL     1      -9.203   9.988  68.514  1.00  0.00    -0.141 C  
HETATM   22  O   UNL     1      -8.686  10.833  69.539  1.00  0.00    -0.381 OA 
HETATM   23  H   UNL     1      -7.748  10.943  69.434  1.00  0.00     0.000 HD 
ENDBRANCH  14  21
ENDBRANCH   8  12
TORSDOF 2
ENDMDL
MODEL      156
REMARK 921   NORMALIZED FREE ENERGY PREDICTED BY IDOCK:   -2.94 KCAL/MOL
REMARK 922        TOTAL FREE ENERGY PREDICTED BY IDOCK:   -3.45 KCAL/MOL
REMARK 923 INTER-LIGAND FREE ENERGY PREDICTED BY IDOCK:   -3.33 KCAL/MOL
REMARK 924 INTRA-LIGAND FREE ENERGY PREDICTED BY IDOCK:   -0.12 KCAL/MOL
REMARK 927      BINDING AFFINITY PREDICTED BY RF-SCORE:    0.00 PKD
ROOT
HETATM    1  N   UNL     1     -11.445   6.257  66.681  1.00  0.00    -0.647 NA 
HETATM    2  H2  UNL     1     -11.391   5.637  65.873  1.00  0.00     0.000 HD 
HETATM    3  C   UNL     1     -10.639   6.079  67.770  1.00  0.00    -0.267 C  
HETATM    4  H1  UNL     1     -12.102   7.037  66.712  1.00  0.00     0.000 HD 
HETATM    5  N   UNL     1      -9.804   5.090  67.731  1.00  0.00    -0.154 N  
HETATM    6  C   UNL     1      -8.963   4.857  68.790  1.00  0.00    -0.104 C  
HETATM    7  H   UNL     1      -9.771   4.484  66.911  1.00  0.00     0.000 HD 
HETATM    8  N   UNL     1      -9.138   5.608  69.971  1.00  0.00    -0.135 N  
HETATM    9  O   UNL     1      -8.091   3.997  68.700  1.00  0.00    -0.074 OA 
HETATM   10  C   UNL     1     -10.745   6.989  68.918  1.00  0.00    -0.227 C  
HETATM   11  C   UNL     1      -9.994   6.688  69.980  1.00  0.00    -0.172 C  
ENDROOT
BRANCH   8  12
HETATM   12  C   UNL     1      -8.235   5.266  71.075  1.00  0.00    -0.116 C  
HETATM   13  O   UNL     1      -8.899   4.267  71.888  1.00  0.00    -0.108 OA 
HETATM   14  C   UNL     1      -9.467   4.902  73.046  1.00  0.00    -0.135 C  
HETATM   15  C   UNL     1      -8.697   6.196  73.286  1.00  0.00    -0.123 C  
HETATM   16  F   UNL     1      -6.493   5.957  72.520  1.00  0.00    -0.056 F  
HETATM   17  C   UNL     1      -7.749   6.300  72.099  1.00  0.00    -0.096 C  
HETATM   18  O   UNL     1      -7.990   6.133  74.538  1.00  0.00    -0.101 OA 
HETATM   19  F   UNL     1      -7.653   7.565  71.652  1.00  0.00    -0.078 F  
HETATM   20  H   UNL     1      -7.510   6.940  74.688  1.00  0.00     0.000 HD 
BRANCH  14  21
HETATM   21  C   UNL     1     -10.952   5.164  72.758  1.00  0.00    -0.267 C  
HETATM   22  O   UNL     1     -11.343   6.432  73.278  1.00  0.00    -0.468 OA 
HETATM   23  H   UNL     1     -12.262   6.593  73.100  1.00  0.00     0.000 HD 
ENDBRANCH  14  21
ENDBRANCH   8  12
TORSDOF 2
ENDMDL
MODEL      157
REMARK 921   NORMALIZED FREE ENERGY PREDICTED BY IDOCK:   -2.94 KCAL/MOL
REMARK 922        TOTAL FREE ENERGY PREDICTED BY IDOCK:   -3.45 KCAL/MOL
REMARK 923 INTER-LIGAND FREE ENERGY PREDICTED BY IDOCK:   -3.40 KCAL/MOL
REMARK 924 INTRA-LIGAND FREE ENERGY PREDICTED BY IDOCK:   -0.05 KCAL/MOL
REMARK 927      BINDING AFFINITY PREDICTED BY RF-SCORE:    0.00 PKD
ROOT
HETATM    1  N   UNL     1     -10.153   3.811  65.741  1.00  0.00    -0.420 NA 
HETATM    2  H2  UNL     1     -11.046   3.373  65.971  1.00  0.00     0.000 HD 
HETATM    3  C   UNL     1      -9.873   5.095  66.113  1.00  0.00    -0.185 C  
HETATM    4  H1  UNL     1      -9.431   3.308  65.224  1.00  0.00     0.000 HD 
HETATM    5  N   UNL     1     -10.789   5.732  66.769  1.00  0.00    -0.513 N  
HETATM    6  C   UNL     1     -10.572   7.025  67.176  1.00  0.00    -0.341 C  
HETATM    7  H   UNL     1     -11.674   5.272  66.985  1.00  0.00     0.000 HD 
HETATM    8  N   UNL     1      -9.410   7.688  66.730  1.00  0.00    -0.163 N  
HETATM    9  O   UNL     1     -11.390   7.583  67.903  1.00  0.00     0.266 OA 
HETATM   10  C   UNL     1      -8.580   5.695  65.764  1.00  0.00    -0.148 C  
HETATM   11  C   UNL     1      -8.423   6.983  66.076  1.00  0.00    -0.139 C  
ENDROOT
BRANCH   8  12
HETATM   12  C   UNL     1      -9.274   9.082  67.165  1.00  0.00    -0.134 C  
HETATM   13  O   UNL     1      -9.971   9.910  66.201  1.00  0.00    -0.236 OA 
HETATM   14  C   UNL     1      -9.015  10.491  65.299  1.00  0.00    -0.189 C  
HETATM   15  C   UNL     1      -7.665  10.510  66.006  1.00  0.00    -0.147 C  
HETATM   16  F   UNL     1      -7.990  10.699  68.322  1.00  0.00    -0.102 F  
HETATM   17  C   UNL     1      -7.913   9.774  67.317  1.00  0.00    -0.106 C  
HETATM   18  O   UNL     1      -7.231  11.865  66.223  1.00  0.00    -0.357 OA 
HETATM   19  F   UNL     1      -6.882   8.971  67.635  1.00  0.00    -0.066 F  
HETATM   20  H   UNL     1      -6.389  11.877  66.663  1.00  0.00     0.000 HD 
BRANCH  14  21
HETATM   21  C   UNL     1      -8.984   9.630  64.027  1.00  0.00    -0.223 C  
HETATM   22  O   UNL     1      -8.958  10.458  62.868  1.00  0.00    -0.196 OA 
HETATM   23  H   UNL     1      -8.939   9.926  62.082  1.00  0.00     0.000 HD 
ENDBRANCH  14  21
ENDBRANCH   8  12
TORSDOF 2
ENDMDL
MODEL      158
REMARK 921   NORMALIZED FREE ENERGY PREDICTED BY IDOCK:   -2.93 KCAL/MOL
REMARK 922        TOTAL FREE ENERGY PREDICTED BY IDOCK:   -3.43 KCAL/MOL
REMARK 923 INTER-LIGAND FREE ENERGY PREDICTED BY IDOCK:   -3.36 KCAL/MOL
REMARK 924 INTRA-LIGAND FREE ENERGY PREDICTED BY IDOCK:   -0.07 KCAL/MOL
REMARK 927      BINDING AFFINITY PREDICTED BY RF-SCORE:    0.00 PKD
ROOT
HETATM    1  N   UNL     1     -12.813  11.276  71.089  1.00  0.00    -0.374 NA 
HETATM    2  H2  UNL     1     -13.415  11.768  70.429  1.00  0.00     0.000 HD 
HETATM    3  C   UNL     1     -11.881  10.372  70.665  1.00  0.00    -0.350 C  
HETATM    4  H1  UNL     1     -12.881  11.437  72.094  1.00  0.00     0.000 HD 
HETATM    5  N   UNL     1     -11.794  10.167  69.389  1.00  0.00    -0.489 N  
HETATM    6  C   UNL     1     -10.877   9.274  68.895  1.00  0.00    -0.099 C  
HETATM    7  H   UNL     1     -12.410  10.671  68.750  1.00  0.00     0.000 HD 
HETATM    8  N   UNL     1     -10.152   8.476  69.805  1.00  0.00    -0.192 N  
HETATM    9  O   UNL     1     -10.713   9.174  67.682  1.00  0.00    -0.262 OA 
HETATM   10  C   UNL     1     -11.032   9.678  71.642  1.00  0.00    -0.149 C  
HETATM   11  C   UNL     1     -10.217   8.740  71.156  1.00  0.00    -0.246 C  
ENDROOT
BRANCH   8  12
HETATM   12  C   UNL     1      -9.228   7.512  69.199  1.00  0.00    -0.144 C  
HETATM   13  O   UNL     1      -9.969   6.290  68.959  1.00  0.00    -0.138 OA 
HETATM   14  C   UNL     1      -9.677   5.347  70.004  1.00  0.00    -0.185 C  
HETATM   15  C   UNL     1      -8.327   5.726  70.603  1.00  0.00    -0.120 C  
HETATM   16  F   UNL     1      -6.998   6.754  68.967  1.00  0.00    -0.068 F  
HETATM   17  C   UNL     1      -7.954   7.027  69.906  1.00  0.00    -0.123 C  
HETATM   18  O   UNL     1      -7.361   4.688  70.360  1.00  0.00    -0.048 OA 
HETATM   19  F   UNL     1      -7.391   7.902  70.759  1.00  0.00    -0.057 F  
HETATM   20  H   UNL     1      -6.520   4.924  70.734  1.00  0.00     0.000 HD 
BRANCH  14  21
HETATM   21  C   UNL     1     -10.807   5.427  71.040  1.00  0.00    -0.119 C  
HETATM   22  O   UNL     1     -10.482   4.650  72.190  1.00  0.00    -0.197 OA 
HETATM   23  H   UNL     1     -11.182   4.700  72.830  1.00  0.00     0.000 HD 
ENDBRANCH  14  21
ENDBRANCH   8  12
TORSDOF 2
ENDMDL
MODEL      159
REMARK 921   NORMALIZED FREE ENERGY PREDICTED BY IDOCK:   -2.92 KCAL/MOL
REMARK 922        TOTAL FREE ENERGY PREDICTED BY IDOCK:   -3.42 KCAL/MOL
REMARK 923 INTER-LIGAND FREE ENERGY PREDICTED BY IDOCK:   -3.27 KCAL/MOL
REMARK 924 INTRA-LIGAND FREE ENERGY PREDICTED BY IDOCK:   -0.15 KCAL/MOL
REMARK 927      BINDING AFFINITY PREDICTED BY RF-SCORE:    0.00 PKD
ROOT
HETATM    1  N   UNL     1     -11.078   6.743  70.381  1.00  0.00    -0.286 NA 
HETATM    2  H2  UNL     1     -10.822   6.485  71.335  1.00  0.00     0.000 HD 
HETATM    3  C   UNL     1     -10.718   5.971  69.314  1.00  0.00    -0.332 C  
HETATM    4  H1  UNL     1     -11.613   7.589  70.184  1.00  0.00     0.000 HD 
HETATM    5  N   UNL     1     -10.039   4.897  69.564  1.00  0.00    -0.230 N  
HETATM    6  C   UNL     1      -9.648   4.075  68.537  1.00  0.00    -0.116 C  
HETATM    7  H   UNL     1      -9.794   4.662  70.526  1.00  0.00     0.000 HD 
HETATM    8  N   UNL     1      -9.860   4.502  67.210  1.00  0.00    -0.190 N  
HETATM    9  O   UNL     1      -9.113   2.998  68.787  1.00  0.00    -0.122 OA 
HETATM   10  C   UNL     1     -11.100   6.373  67.954  1.00  0.00    -0.370 C  
HETATM   11  C   UNL     1     -10.627   5.619  66.960  1.00  0.00    -0.285 C  
ENDROOT
BRANCH   8  12
HETATM   12  C   UNL     1      -9.369   3.592  66.169  1.00  0.00    -0.160 C  
HETATM   13  O   UNL     1      -7.939   3.792  66.053  1.00  0.00    -0.089 OA 
HETATM   14  C   UNL     1      -7.670   4.633  64.919  1.00  0.00    -0.078 C  
HETATM   15  C   UNL     1      -8.854   4.515  63.966  1.00  0.00    -0.144 C  
HETATM   16  F   UNL     1      -9.833   2.394  64.182  1.00  0.00    -0.138 F  
HETATM   17  C   UNL     1      -9.861   3.652  64.716  1.00  0.00    -0.175 C  
HETATM   18  O   UNL     1      -8.443   3.909  62.727  1.00  0.00    -0.080 OA 
HETATM   19  F   UNL     1     -11.119   4.097  64.543  1.00  0.00    -0.335 F  
HETATM   20  H   UNL     1      -9.181   3.836  62.133  1.00  0.00     0.000 HD 
BRANCH  14  21
HETATM   21  C   UNL     1      -7.486   6.069  65.430  1.00  0.00    -0.082 C  
HETATM   22  O   UNL     1      -6.824   6.065  66.692  1.00  0.00    -0.059 OA 
HETATM   23  H   UNL     1      -6.711   6.953  67.008  1.00  0.00     0.000 HD 
ENDBRANCH  14  21
ENDBRANCH   8  12
TORSDOF 2
ENDMDL
MODEL      160
REMARK 921   NORMALIZED FREE ENERGY PREDICTED BY IDOCK:   -2.92 KCAL/MOL
REMARK 922        TOTAL FREE ENERGY PREDICTED BY IDOCK:   -3.42 KCAL/MOL
REMARK 923 INTER-LIGAND FREE ENERGY PREDICTED BY IDOCK:   -3.29 KCAL/MOL
REMARK 924 INTRA-LIGAND FREE ENERGY PREDICTED BY IDOCK:   -0.13 KCAL/MOL
REMARK 927      BINDING AFFINITY PREDICTED BY RF-SCORE:    0.00 PKD
ROOT
HETATM    1  N   UNL     1      -7.410  10.483  70.232  1.00  0.00    -0.455 NA 
HETATM    2  H2  UNL     1      -7.769  11.437  70.179  1.00  0.00     0.000 HD 
HETATM    3  C   UNL     1      -7.736   9.547  69.293  1.00  0.00    -0.086 C  
HETATM    4  H1  UNL     1      -6.792  10.188  70.988  1.00  0.00     0.000 HD 
HETATM    5  N   UNL     1      -8.520   9.922  68.333  1.00  0.00    -0.110 N  
HETATM    6  C   UNL     1      -8.884   9.032  67.354  1.00  0.00    -0.118 C  
HETATM    7  H   UNL     1      -8.867  10.881  68.304  1.00  0.00     0.000 HD 
HETATM    8  N   UNL     1      -8.522   7.677  67.502  1.00  0.00    -0.116 N  
HETATM    9  O   UNL     1      -9.526   9.421  66.381  1.00  0.00    -0.170 OA 
HETATM   10  C   UNL     1      -7.203   8.183  69.400  1.00  0.00    -0.067 C  
HETATM   11  C   UNL     1      -7.647   7.303  68.499  1.00  0.00    -0.118 C  
ENDROOT
BRANCH   8  12
HETATM   12  C   UNL     1      -8.991   6.779  66.441  1.00  0.00    -0.149 C  
HETATM   13  O   UNL     1     -10.399   6.528  66.673  1.00  0.00    -0.195 OA 
HETATM   14  C   UNL     1     -10.553   5.248  67.308  1.00  0.00    -0.127 C  
HETATM   15  C   UNL     1      -9.318   4.418  66.977  1.00  0.00    -0.154 C  
HETATM   16  F   UNL     1      -8.465   5.070  64.891  1.00  0.00    -0.121 F  
HETATM   17  C   UNL     1      -8.406   5.377  66.223  1.00  0.00    -0.115 C  
HETATM   18  O   UNL     1      -9.680   3.278  66.177  1.00  0.00    -0.392 OA 
HETATM   19  F   UNL     1      -7.119   5.219  66.580  1.00  0.00    -0.062 F  
HETATM   20  H   UNL     1      -8.911   2.760  65.970  1.00  0.00     0.000 HD 
BRANCH  14  21
HETATM   21  C   UNL     1     -10.695   5.486  68.819  1.00  0.00    -0.125 C  
HETATM   22  O   UNL     1     -11.543   6.604  69.067  1.00  0.00    -0.611 OA 
HETATM   23  H   UNL     1     -11.631   6.751  70.001  1.00  0.00     0.000 HD 
ENDBRANCH  14  21
ENDBRANCH   8  12
TORSDOF 2
ENDMDL
MODEL      161
REMARK 921   NORMALIZED FREE ENERGY PREDICTED BY IDOCK:   -2.91 KCAL/MOL
REMARK 922        TOTAL FREE ENERGY PREDICTED BY IDOCK:   -3.41 KCAL/MOL
REMARK 923 INTER-LIGAND FREE ENERGY PREDICTED BY IDOCK:   -3.29 KCAL/MOL
REMARK 924 INTRA-LIGAND FREE ENERGY PREDICTED BY IDOCK:   -0.12 KCAL/MOL
REMARK 927      BINDING AFFINITY PREDICTED BY RF-SCORE:    0.00 PKD
ROOT
HETATM    1  N   UNL     1      -6.130   2.725  70.027  1.00  0.00    -0.023 NA 
HETATM    2  H2  UNL     1      -6.323   1.856  70.525  1.00  0.00     0.000 HD 
HETATM    3  C   UNL     1      -7.048   3.736  69.980  1.00  0.00    -0.041 C  
HETATM    4  H1  UNL     1      -5.245   2.877  69.544  1.00  0.00     0.000 HD 
HETATM    5  N   UNL     1      -8.171   3.543  70.594  1.00  0.00    -0.056 N  
HETATM    6  C   UNL     1      -9.135   4.519  70.588  1.00  0.00    -0.119 C  
HETATM    7  H   UNL     1      -8.340   2.663  71.082  1.00  0.00     0.000 HD 
HETATM    8  N   UNL     1      -8.943   5.656  69.775  1.00  0.00    -0.126 N  
HETATM    9  O   UNL     1     -10.147   4.383  71.272  1.00  0.00    -0.186 OA 
HETATM   10  C   UNL     1      -6.740   4.974  69.252  1.00  0.00    -0.052 C  
HETATM   11  C   UNL     1      -7.724   5.871  69.169  1.00  0.00    -0.091 C  
ENDROOT
BRANCH   8  12
HETATM   12  C   UNL     1     -10.040   6.630  69.784  1.00  0.00    -0.182 C  
HETATM   13  O   UNL     1     -11.116   6.081  68.984  1.00  0.00    -0.351 OA 
HETATM   14  C   UNL     1     -11.090   6.685  67.680  1.00  0.00    -0.271 C  
HETATM   15  C   UNL     1     -10.373   8.024  67.805  1.00  0.00    -0.231 C  
HETATM   16  F   UNL     1     -10.699   8.896  69.958  1.00  0.00    -0.210 F  
HETATM   17  C   UNL     1      -9.884   8.059  69.247  1.00  0.00    -0.178 C  
HETATM   18  O   UNL     1     -11.276   9.106  67.515  1.00  0.00    -0.405 OA 
HETATM   19  F   UNL     1      -8.649   8.586  69.338  1.00  0.00    -0.121 F  
HETATM   20  H   UNL     1     -10.828   9.941  67.593  1.00  0.00     0.000 HD 
BRANCH  14  21
HETATM   21  C   UNL     1     -10.354   5.726  66.732  1.00  0.00    -0.256 C  
HETATM   22  O   UNL     1      -9.571   6.459  65.795  1.00  0.00    -0.387 OA 
HETATM   23  H   UNL     1      -9.116   5.866  65.209  1.00  0.00     0.000 HD 
ENDBRANCH  14  21
ENDBRANCH   8  12
TORSDOF 2
ENDMDL
MODEL      162
REMARK 921   NORMALIZED FREE ENERGY PREDICTED BY IDOCK:   -2.89 KCAL/MOL
REMARK 922        TOTAL FREE ENERGY PREDICTED BY IDOCK:   -3.39 KCAL/MOL
REMARK 923 INTER-LIGAND FREE ENERGY PREDICTED BY IDOCK:   -3.36 KCAL/MOL
REMARK 924 INTRA-LIGAND FREE ENERGY PREDICTED BY IDOCK:   -0.03 KCAL/MOL
REMARK 927      BINDING AFFINITY PREDICTED BY RF-SCORE:    0.00 PKD
ROOT
HETATM    1  N   UNL     1      -5.609   9.681  68.482  1.00  0.00    -0.040 NA 
HETATM    2  H2  UNL     1      -4.823   9.216  68.028  1.00  0.00     0.000 HD 
HETATM    3  C   UNL     1      -6.472   8.995  69.289  1.00  0.00    -0.045 C  
HETATM    4  H1  UNL     1      -5.786  10.677  68.353  1.00  0.00     0.000 HD 
HETATM    5  N   UNL     1      -6.248   7.731  69.453  1.00  0.00    -0.034 N  
HETATM    6  C   UNL     1      -7.075   6.983  70.254  1.00  0.00    -0.067 C  
HETATM    7  H   UNL     1      -5.456   7.289  68.986  1.00  0.00     0.000 HD 
HETATM    8  N   UNL     1      -8.249   7.579  70.758  1.00  0.00    -0.109 N  
HETATM    9  O   UNL     1      -6.790   5.815  70.505  1.00  0.00    -0.052 OA 
HETATM   10  C   UNL     1      -7.596   9.695  69.926  1.00  0.00    -0.138 C  
HETATM   11  C   UNL     1      -8.448   8.936  70.618  1.00  0.00    -0.184 C  
ENDROOT
BRANCH   8  12
HETATM   12  C   UNL     1      -9.106   6.702  71.563  1.00  0.00    -0.142 C  
HETATM   13  O   UNL     1      -9.600   5.655  70.691  1.00  0.00    -0.160 OA 
HETATM   14  C   UNL     1     -10.942   5.971  70.287  1.00  0.00    -0.342 C  
HETATM   15  C   UNL     1     -11.529   6.913  71.332  1.00  0.00    -0.282 C  
HETATM   16  F   UNL     1     -10.554   6.480  73.421  1.00  0.00    -0.218 F  
HETATM   17  C   UNL     1     -10.369   7.204  72.276  1.00  0.00    -0.201 C  
HETATM   18  O   UNL     1     -12.632   6.285  72.011  1.00  0.00    -0.404 OA 
HETATM   19  F   UNL     1     -10.353   8.494  72.655  1.00  0.00    -0.369 F  
HETATM   20  H   UNL     1     -12.998   6.872  72.662  1.00  0.00     0.000 HD 
BRANCH  14  21
HETATM   21  C   UNL     1     -10.875   6.625  68.899  1.00  0.00    -0.277 C  
HETATM   22  O   UNL     1     -11.344   7.969  68.961  1.00  0.00    -0.295 OA 
HETATM   23  H   UNL     1     -11.302   8.374  68.103  1.00  0.00     0.000 HD 
ENDBRANCH  14  21
ENDBRANCH   8  12
TORSDOF 2
ENDMDL
MODEL      163
REMARK 921   NORMALIZED FREE ENERGY PREDICTED BY IDOCK:   -2.88 KCAL/MOL
REMARK 922        TOTAL FREE ENERGY PREDICTED BY IDOCK:   -3.37 KCAL/MOL
REMARK 923 INTER-LIGAND FREE ENERGY PREDICTED BY IDOCK:   -3.22 KCAL/MOL
REMARK 924 INTRA-LIGAND FREE ENERGY PREDICTED BY IDOCK:   -0.15 KCAL/MOL
REMARK 927      BINDING AFFINITY PREDICTED BY RF-SCORE:    0.00 PKD
ROOT
HETATM    1  N   UNL     1      -7.052  11.286  67.349  1.00  0.00    -0.102 NA 
HETATM    2  H2  UNL     1      -7.141  12.299  67.439  1.00  0.00     0.000 HD 
HETATM    3  C   UNL     1      -7.889  10.436  68.012  1.00  0.00    -0.104 C  
HETATM    4  H1  UNL     1      -6.334  10.865  66.759  1.00  0.00     0.000 HD 
HETATM    5  N   UNL     1      -8.801  10.970  68.761  1.00  0.00    -0.216 N  
HETATM    6  C   UNL     1      -9.678  10.173  69.453  1.00  0.00    -0.229 C  
HETATM    7  H   UNL     1      -8.867  11.986  68.836  1.00  0.00     0.000 HD 
HETATM    8  N   UNL     1      -9.465   8.779  69.459  1.00  0.00    -0.164 N  
HETATM    9  O   UNL     1     -10.615  10.682  70.063  1.00  0.00    -0.230 OA 
HETATM   10  C   UNL     1      -7.732   8.984  67.862  1.00  0.00    -0.097 C  
HETATM   11  C   UNL     1      -8.525   8.222  68.619  1.00  0.00    -0.125 C  
ENDROOT
BRANCH   8  12
HETATM   12  C   UNL     1     -10.414   8.000  70.262  1.00  0.00    -0.222 C  
HETATM   13  O   UNL     1      -9.942   8.017  71.632  1.00  0.00    -0.172 OA 
HETATM   14  C   UNL     1      -9.265   6.780  71.913  1.00  0.00    -0.142 C  
HETATM   15  C   UNL     1      -9.785   5.736  70.932  1.00  0.00    -0.174 C  
HETATM   16  F   UNL     1     -11.997   6.243  70.338  1.00  0.00    -0.434 F  
HETATM   17  C   UNL     1     -10.701   6.516  69.998  1.00  0.00    -0.249 C  
HETATM   18  O   UNL     1     -10.490   4.695  71.633  1.00  0.00    -0.156 OA 
HETATM   19  F   UNL     1     -10.564   6.113  68.721  1.00  0.00    -0.200 F  
HETATM   20  H   UNL     1     -10.814   4.044  71.021  1.00  0.00     0.000 HD 
BRANCH  14  21
HETATM   21  C   UNL     1      -7.757   7.020  71.750  1.00  0.00    -0.093 C  
HETATM   22  O   UNL     1      -7.425   8.356  72.118  1.00  0.00    -0.114 OA 
HETATM   23  H   UNL     1      -6.493   8.505  72.017  1.00  0.00     0.000 HD 
ENDBRANCH  14  21
ENDBRANCH   8  12
TORSDOF 2
ENDMDL
MODEL      164
REMARK 921   NORMALIZED FREE ENERGY PREDICTED BY IDOCK:   -2.86 KCAL/MOL
REMARK 922        TOTAL FREE ENERGY PREDICTED BY IDOCK:   -3.35 KCAL/MOL
REMARK 923 INTER-LIGAND FREE ENERGY PREDICTED BY IDOCK:   -4.95 KCAL/MOL
REMARK 924 INTRA-LIGAND FREE ENERGY PREDICTED BY IDOCK:    1.60 KCAL/MOL
REMARK 927      BINDING AFFINITY PREDICTED BY RF-SCORE:    0.00 PKD
ROOT
HETATM    1  N   UNL     1     -10.055  20.068  67.962  1.00  0.00    -0.423 NA 
HETATM    2  H2  UNL     1     -10.135  20.800  67.256  1.00  0.00     0.000 HD 
HETATM    3  C   UNL     1     -10.234  18.751  67.645  1.00  0.00    -0.399 C  
HETATM    4  H1  UNL     1      -9.839  20.287  68.934  1.00  0.00     0.000 HD 
HETATM    5  N   UNL     1     -10.508  18.473  66.410  1.00  0.00    -0.416 N  
HETATM    6  C   UNL     1     -10.697  17.170  66.023  1.00  0.00    -0.113 C  
HETATM    7  H   UNL     1     -10.584  19.224  65.724  1.00  0.00     0.000 HD 
HETATM    8  N   UNL     1     -10.745  16.170  67.016  1.00  0.00    -0.293 N  
HETATM    9  O   UNL     1     -10.834  16.900  64.833  1.00  0.00    -0.715 OA 
HETATM   10  C   UNL     1     -10.116  17.722  68.686  1.00  0.00    -0.384 C  
HETATM   11  C   UNL     1     -10.402  16.472  68.316  1.00  0.00    -0.293 C  
ENDROOT
BRANCH   8  12
HETATM   12  C   UNL     1     -11.000  14.810  66.529  1.00  0.00    -0.325 C  
HETATM   13  O   UNL     1     -10.833  13.907  67.650  1.00  0.00    -0.250 OA 
HETATM   14  C   UNL     1      -9.538  13.289  67.570  1.00  0.00    -0.218 C  
HETATM   15  C   UNL     1      -9.088  13.346  66.115  1.00  0.00     0.126 C  
HETATM   16  F   UNL     1     -10.964  13.300  64.707  1.00  0.00    -0.297 F  
HETATM   17  C   UNL     1     -10.169  14.159  65.415  1.00  0.00    -0.358 C  
HETATM   18  O   UNL     1      -8.977  12.017  65.572  1.00  0.00    -0.421 OA 
HETATM   19  F   UNL     1      -9.644  15.003  64.509  1.00  0.00     0.093 F  
HETATM   20  H   UNL     1      -8.696  12.052  64.665  1.00  0.00     0.000 HD 
BRANCH  14  21
HETATM   21  C   UNL     1      -8.589  14.066  68.494  1.00  0.00    -0.147 C  
HETATM   22  O   UNL     1      -7.300  14.182  67.897  1.00  0.00    -0.122 OA 
HETATM   23  H   UNL     1      -6.713  14.663  68.469  1.00  0.00     0.000 HD 
ENDBRANCH  14  21
ENDBRANCH   8  12
TORSDOF 2
ENDMDL
MODEL      165
REMARK 921   NORMALIZED FREE ENERGY PREDICTED BY IDOCK:   -2.84 KCAL/MOL
REMARK 922        TOTAL FREE ENERGY PREDICTED BY IDOCK:   -3.33 KCAL/MOL
REMARK 923 INTER-LIGAND FREE ENERGY PREDICTED BY IDOCK:   -3.28 KCAL/MOL
REMARK 924 INTRA-LIGAND FREE ENERGY PREDICTED BY IDOCK:   -0.05 KCAL/MOL
REMARK 927      BINDING AFFINITY PREDICTED BY RF-SCORE:    0.00 PKD
ROOT
HETATM    1  N   UNL     1     -11.185   4.302  64.873  1.00  0.00    -1.021 NA 
HETATM    2  H2  UNL     1     -10.906   3.602  64.186  1.00  0.00     0.000 HD 
HETATM    3  C   UNL     1     -10.321   4.734  65.840  1.00  0.00    -0.270 C  
HETATM    4  H1  UNL     1     -12.120   4.710  64.869  1.00  0.00     0.000 HD 
HETATM    5  N   UNL     1      -9.135   4.216  65.845  1.00  0.00    -0.129 N  
HETATM    6  C   UNL     1      -8.217   4.608  66.788  1.00  0.00    -0.106 C  
HETATM    7  H   UNL     1      -8.881   3.516  65.148  1.00  0.00     0.000 HD 
HETATM    8  N   UNL     1      -8.640   5.455  67.833  1.00  0.00    -0.105 N  
HETATM    9  O   UNL     1      -7.058   4.209  66.715  1.00  0.00    -0.062 OA 
HETATM   10  C   UNL     1     -10.756   5.742  66.816  1.00  0.00    -0.369 C  
HETATM   11  C   UNL     1      -9.889   6.037  67.786  1.00  0.00    -0.119 C  
ENDROOT
BRANCH   8  12
HETATM   12  C   UNL     1      -7.615   5.788  68.828  1.00  0.00    -0.089 C  
HETATM   13  O   UNL     1      -7.569   4.703  69.787  1.00  0.00    -0.054 OA 
HETATM   14  C   UNL     1      -8.301   5.081  70.965  1.00  0.00    -0.118 C  
HETATM   15  C   UNL     1      -8.339   6.604  71.015  1.00  0.00    -0.125 C  
HETATM   16  F   UNL     1      -6.422   7.476  69.981  1.00  0.00    -0.032 F  
HETATM   17  C   UNL     1      -7.691   7.043  69.708  1.00  0.00    -0.109 C  
HETATM   18  O   UNL     1      -7.618   7.086  72.163  1.00  0.00    -0.089 OA 
HETATM   19  F   UNL     1      -8.330   8.097  69.169  1.00  0.00    -0.122 F  
HETATM   20  H   UNL     1      -7.642   8.036  72.194  1.00  0.00     0.000 HD 
BRANCH  14  21
HETATM   21  C   UNL     1      -9.708   4.475  70.859  1.00  0.00    -0.193 C  
HETATM   22  O   UNL     1      -9.801   3.296  71.654  1.00  0.00    -0.167 OA 
HETATM   23  H   UNL     1     -10.672   2.922  71.589  1.00  0.00     0.000 HD 
ENDBRANCH  14  21
ENDBRANCH   8  12
TORSDOF 2
ENDMDL
MODEL      166
REMARK 921   NORMALIZED FREE ENERGY PREDICTED BY IDOCK:   -2.82 KCAL/MOL
REMARK 922        TOTAL FREE ENERGY PREDICTED BY IDOCK:   -3.31 KCAL/MOL
REMARK 923 INTER-LIGAND FREE ENERGY PREDICTED BY IDOCK:   -3.73 KCAL/MOL
REMARK 924 INTRA-LIGAND FREE ENERGY PREDICTED BY IDOCK:    0.42 KCAL/MOL
REMARK 927      BINDING AFFINITY PREDICTED BY RF-SCORE:    0.00 PKD
ROOT
HETATM    1  N   UNL     1      -6.173  10.716  67.480  1.00  0.00    -0.055 NA 
HETATM    2  H2  UNL     1      -6.210  10.556  66.473  1.00  0.00     0.000 HD 
HETATM    3  C   UNL     1      -6.890   9.946  68.351  1.00  0.00    -0.063 C  
HETATM    4  H1  UNL     1      -5.598  11.458  67.880  1.00  0.00     0.000 HD 
HETATM    5  N   UNL     1      -7.619   9.004  67.843  1.00  0.00    -0.092 N  
HETATM    6  C   UNL     1      -8.362   8.191  68.661  1.00  0.00    -0.126 C  
HETATM    7  H   UNL     1      -7.641   8.866  66.832  1.00  0.00     0.000 HD 
HETATM    8  N   UNL     1      -8.440   8.503  70.035  1.00  0.00    -0.122 N  
HETATM    9  O   UNL     1      -8.954   7.224  68.188  1.00  0.00    -0.133 OA 
HETATM   10  C   UNL     1      -6.815  10.205  69.794  1.00  0.00    -0.105 C  
HETATM   11  C   UNL     1      -7.621   9.474  70.568  1.00  0.00    -0.149 C  
ENDROOT
BRANCH   8  12
HETATM   12  C   UNL     1      -9.294   7.617  70.834  1.00  0.00    -0.157 C  
HETATM   13  O   UNL     1     -10.553   7.475  70.131  1.00  0.00    -0.224 OA 
HETATM   14  C   UNL     1     -11.530   8.341  70.732  1.00  0.00    -0.252 C  
HETATM   15  C   UNL     1     -11.083   8.618  72.163  1.00  0.00    -0.364 C  
HETATM   16  F   UNL     1      -9.862   6.789  72.977  1.00  0.00    -0.163 F  
HETATM   17  C   UNL     1      -9.718   7.951  72.271  1.00  0.00    -0.209 C  
HETATM   18  O   UNL     1     -12.028   8.067  73.099  1.00  0.00    -0.646 OA 
HETATM   19  F   UNL     1      -8.855   8.705  72.975  1.00  0.00    -0.297 F  
HETATM   20  H   UNL     1     -11.750   8.240  73.991  1.00  0.00     0.000 HD 
BRANCH  14  21
HETATM   21  C   UNL     1     -11.598   9.626  69.893  1.00  0.00    -0.030 C  
HETATM   22  O   UNL     1     -12.795  10.343  70.181  1.00  0.00    -0.545 OA 
HETATM   23  H   UNL     1     -12.837  11.138  69.663  1.00  0.00     0.000 HD 
ENDBRANCH  14  21
ENDBRANCH   8  12
TORSDOF 2
ENDMDL
MODEL      167
REMARK 921   NORMALIZED FREE ENERGY PREDICTED BY IDOCK:   -2.80 KCAL/MOL
REMARK 922        TOTAL FREE ENERGY PREDICTED BY IDOCK:   -3.28 KCAL/MOL
REMARK 923 INTER-LIGAND FREE ENERGY PREDICTED BY IDOCK:   -3.23 KCAL/MOL
REMARK 924 INTRA-LIGAND FREE ENERGY PREDICTED BY IDOCK:   -0.06 KCAL/MOL
REMARK 927      BINDING AFFINITY PREDICTED BY RF-SCORE:    0.00 PKD
ROOT
HETATM    1  N   UNL     1      -7.415   4.212  69.324  1.00  0.00    -0.054 NA 
HETATM    2  H2  UNL     1      -7.769   3.336  68.937  1.00  0.00     0.000 HD 
HETATM    3  C   UNL     1      -8.147   5.363  69.264  1.00  0.00    -0.093 C  
HETATM    4  H1  UNL     1      -6.500   4.265  69.772  1.00  0.00     0.000 HD 
HETATM    5  N   UNL     1      -9.308   5.296  68.695  1.00  0.00    -0.116 N  
HETATM    6  C   UNL     1     -10.097   6.415  68.604  1.00  0.00    -0.158 C  
HETATM    7  H   UNL     1      -9.638   4.408  68.315  1.00  0.00     0.000 HD 
HETATM    8  N   UNL     1      -9.554   7.658  68.993  1.00  0.00    -0.150 N  
HETATM    9  O   UNL     1     -11.244   6.322  68.176  1.00  0.00    -0.327 OA 
HETATM   10  C   UNL     1      -7.607   6.607  69.828  1.00  0.00    -0.104 C  
HETATM   11  C   UNL     1      -8.339   7.707  69.641  1.00  0.00    -0.130 C  
ENDROOT
BRANCH   8  12
HETATM   12  C   UNL     1     -10.440   8.814  68.818  1.00  0.00    -0.191 C  
HETATM   13  O   UNL     1     -10.352   9.226  67.432  1.00  0.00    -0.228 OA 
HETATM   14  C   UNL     1      -9.472  10.358  67.330  1.00  0.00    -0.149 C  
HETATM   15  C   UNL     1      -9.437  11.039  68.694  1.00  0.00    -0.195 C  
HETATM   16  F   UNL     1     -11.480  10.701  69.797  1.00  0.00    -0.255 F  
HETATM   17  C   UNL     1     -10.256  10.125  69.596  1.00  0.00    -0.242 C  
HETATM   18  O   UNL     1     -10.002  12.360  68.610  1.00  0.00    -0.334 OA 
HETATM   19  F   UNL     1      -9.700  10.007  70.816  1.00  0.00    -0.236 F  
HETATM   20  H   UNL     1      -9.980  12.784  69.460  1.00  0.00     0.000 HD 
BRANCH  14  21
HETATM   21  C   UNL     1      -8.088   9.842  66.911  1.00  0.00    -0.113 C  
HETATM   22  O   UNL     1      -7.471  10.755  66.007  1.00  0.00    -0.149 OA 
HETATM   23  H   UNL     1      -6.615  10.436  65.748  1.00  0.00     0.000 HD 
ENDBRANCH  14  21
ENDBRANCH   8  12
TORSDOF 2
ENDMDL
MODEL      168
REMARK 921   NORMALIZED FREE ENERGY PREDICTED BY IDOCK:   -2.76 KCAL/MOL
REMARK 922        TOTAL FREE ENERGY PREDICTED BY IDOCK:   -3.24 KCAL/MOL
REMARK 923 INTER-LIGAND FREE ENERGY PREDICTED BY IDOCK:   -3.62 KCAL/MOL
REMARK 924 INTRA-LIGAND FREE ENERGY PREDICTED BY IDOCK:    0.38 KCAL/MOL
REMARK 927      BINDING AFFINITY PREDICTED BY RF-SCORE:    0.00 PKD
ROOT
HETATM    1  N   UNL     1     -10.655  11.188  64.949  1.00  0.00    -0.307 NA 
HETATM    2  H2  UNL     1     -10.168  10.990  64.075  1.00  0.00     0.000 HD 
HETATM    3  C   UNL     1     -10.367  10.504  66.096  1.00  0.00    -0.210 C  
HETATM    4  H1  UNL     1     -11.378  11.906  65.005  1.00  0.00     0.000 HD 
HETATM    5  N   UNL     1      -9.450   9.593  66.025  1.00  0.00    -0.205 N  
HETATM    6  C   UNL     1      -9.110   8.871  67.141  1.00  0.00    -0.138 C  
HETATM    7  H   UNL     1      -8.979   9.412  65.138  1.00  0.00     0.000 HD 
HETATM    8  N   UNL     1      -9.883   9.027  68.310  1.00  0.00    -0.160 N  
HETATM    9  O   UNL     1      -8.157   8.096  67.101  1.00  0.00    -0.113 OA 
HETATM   10  C   UNL     1     -11.090  10.813  67.336  1.00  0.00    -0.363 C  
HETATM   11  C   UNL     1     -10.820  10.034  68.386  1.00  0.00    -0.235 C  
ENDROOT
BRANCH   8  12
HETATM   12  C   UNL     1      -9.488   8.184  69.444  1.00  0.00    -0.162 C  
HETATM   13  O   UNL     1      -9.251   6.850  68.933  1.00  0.00    -0.134 OA 
HETATM   14  C   UNL     1     -10.399   6.028  69.204  1.00  0.00    -0.229 C  
HETATM   15  C   UNL     1     -11.142   6.649  70.381  1.00  0.00    -0.322 C  
HETATM   16  F   UNL     1      -9.622   7.773  71.771  1.00  0.00    -0.166 F  
HETATM   17  C   UNL     1     -10.398   7.949  70.658  1.00  0.00    -0.202 C  
HETATM   18  O   UNL     1     -11.117   5.762  71.514  1.00  0.00    -0.265 OA 
HETATM   19  F   UNL     1     -11.245   8.950  70.956  1.00  0.00    -0.268 F  
HETATM   20  H   UNL     1     -11.581   6.149  72.248  1.00  0.00     0.000 HD 
BRANCH  14  21
HETATM   21  C   UNL     1     -11.262   5.993  67.935  1.00  0.00     0.094 C  
HETATM   22  O   UNL     1     -10.460   5.688  66.797  1.00  0.00    -0.235 OA 
HETATM   23  H   UNL     1     -10.994   5.666  66.012  1.00  0.00     0.000 HD 
ENDBRANCH  14  21
ENDBRANCH   8  12
TORSDOF 2
ENDMDL
MODEL      169
REMARK 921   NORMALIZED FREE ENERGY PREDICTED BY IDOCK:   -2.75 KCAL/MOL
REMARK 922        TOTAL FREE ENERGY PREDICTED BY IDOCK:   -3.22 KCAL/MOL
REMARK 923 INTER-LIGAND FREE ENERGY PREDICTED BY IDOCK:   -3.66 KCAL/MOL
REMARK 924 INTRA-LIGAND FREE ENERGY PREDICTED BY IDOCK:    0.44 KCAL/MOL
REMARK 927      BINDING AFFINITY PREDICTED BY RF-SCORE:    0.00 PKD
ROOT
HETATM    1  N   UNL     1      -6.241  20.108  63.941  1.00  0.00    -0.243 NA 
HETATM    2  H2  UNL     1      -5.402  19.666  63.564  1.00  0.00     0.000 HD 
HETATM    3  C   UNL     1      -6.824  19.662  65.093  1.00  0.00    -0.163 C  
HETATM    4  H1  UNL     1      -6.679  20.903  63.475  1.00  0.00     0.000 HD 
HETATM    5  N   UNL     1      -6.268  18.654  65.684  1.00  0.00    -0.230 N  
HETATM    6  C   UNL     1      -6.801  18.158  66.847  1.00  0.00    -0.188 C  
HETATM    7  H   UNL     1      -5.431  18.228  65.285  1.00  0.00     0.000 HD 
HETATM    8  N   UNL     1      -8.043  18.659  67.290  1.00  0.00    -0.239 N  
HETATM    9  O   UNL     1      -6.204  17.284  67.470  1.00  0.00    -0.137 OA 
HETATM   10  C   UNL     1      -8.032  20.321  65.607  1.00  0.00     0.043 C  
HETATM   11  C   UNL     1      -8.597  19.764  66.680  1.00  0.00    -0.335 C  
ENDROOT
BRANCH   8  12
HETATM   12  C   UNL     1      -8.572  18.043  68.512  1.00  0.00    -0.297 C  
HETATM   13  O   UNL     1      -8.386  16.611  68.394  1.00  0.00    -0.190 OA 
HETATM   14  C   UNL     1      -9.628  16.005  67.999  1.00  0.00    -0.215 C  
HETATM   15  C   UNL     1     -10.753  16.947  68.412  1.00  0.00    -0.368 C  
HETATM   16  F   UNL     1     -10.107  18.166  70.309  1.00  0.00     0.506 F  
HETATM   17  C   UNL     1     -10.038  18.182  68.943  1.00  0.00    -0.338 C  
HETATM   18  O   UNL     1     -11.582  16.331  69.414  1.00  0.00    -0.283 OA 
HETATM   19  F   UNL     1     -10.655  19.314  68.559  1.00  0.00    -0.416 F  
HETATM   20  H   UNL     1     -12.283  16.918  69.671  1.00  0.00     0.000 HD 
BRANCH  14  21
HETATM   21  C   UNL     1      -9.586  15.792  66.479  1.00  0.00    -0.265 C  
HETATM   22  O   UNL     1     -10.769  16.307  65.874  1.00  0.00    -0.302 OA 
HETATM   23  H   UNL     1     -10.742  16.175  64.933  1.00  0.00     0.000 HD 
ENDBRANCH  14  21
ENDBRANCH   8  12
TORSDOF 2
ENDMDL
MODEL      170
REMARK 921   NORMALIZED FREE ENERGY PREDICTED BY IDOCK:   -2.71 KCAL/MOL
REMARK 922        TOTAL FREE ENERGY PREDICTED BY IDOCK:   -3.19 KCAL/MOL
REMARK 923 INTER-LIGAND FREE ENERGY PREDICTED BY IDOCK:   -3.10 KCAL/MOL
REMARK 924 INTRA-LIGAND FREE ENERGY PREDICTED BY IDOCK:   -0.09 KCAL/MOL
REMARK 927      BINDING AFFINITY PREDICTED BY RF-SCORE:    0.00 PKD
ROOT
HETATM    1  N   UNL     1      -9.191   5.213  71.356  1.00  0.00    -0.143 NA 
HETATM    2  H2  UNL     1      -8.788   4.278  71.289  1.00  0.00     0.000 HD 
HETATM    3  C   UNL     1      -9.223   6.053  70.280  1.00  0.00    -0.155 C  
HETATM    4  H1  UNL     1      -9.587   5.560  72.230  1.00  0.00     0.000 HD 
HETATM    5  N   UNL     1      -8.720   5.613  69.172  1.00  0.00    -0.108 N  
HETATM    6  C   UNL     1      -8.723   6.405  68.051  1.00  0.00    -0.115 C  
HETATM    7  H   UNL     1      -8.322   4.674  69.131  1.00  0.00     0.000 HD 
HETATM    8  N   UNL     1      -9.132   7.749  68.174  1.00  0.00    -0.130 N  
HETATM    9  O   UNL     1      -8.359   5.941  66.973  1.00  0.00    -0.105 OA 
HETATM   10  C   UNL     1      -9.808   7.394  70.413  1.00  0.00    -0.183 C  
HETATM   11  C   UNL     1      -9.711   8.189  69.345  1.00  0.00    -0.170 C  
ENDROOT
BRANCH   8  12
HETATM   12  C   UNL     1      -9.059   8.545  66.944  1.00  0.00    -0.146 C  
HETATM   13  O   UNL     1      -7.699   9.027  66.817  1.00  0.00    -0.092 OA 
HETATM   14  C   UNL     1      -7.639  10.393  67.259  1.00  0.00    -0.095 C  
HETATM   15  C   UNL     1      -9.040  10.981  67.135  1.00  0.00    -0.146 C  
HETATM   16  F   UNL     1     -10.187   9.921  65.384  1.00  0.00    -0.372 F  
HETATM   17  C   UNL     1      -9.910   9.802  66.718  1.00  0.00    -0.208 C  
HETATM   18  O   UNL     1      -9.057  12.036  66.156  1.00  0.00    -0.296 OA 
HETATM   19  F   UNL     1     -11.101   9.822  67.343  1.00  0.00    -0.348 F  
HETATM   20  H   UNL     1      -9.930  12.402  66.078  1.00  0.00     0.000 HD 
BRANCH  14  21
HETATM   21  C   UNL     1      -7.143  10.396  68.712  1.00  0.00    -0.074 C  
HETATM   22  O   UNL     1      -7.150  11.721  69.236  1.00  0.00    -0.216 OA 
HETATM   23  H   UNL     1      -6.843  11.723  70.135  1.00  0.00     0.000 HD 
ENDBRANCH  14  21
ENDBRANCH   8  12
TORSDOF 2
ENDMDL
MODEL      171
REMARK 921   NORMALIZED FREE ENERGY PREDICTED BY IDOCK:   -2.70 KCAL/MOL
REMARK 922        TOTAL FREE ENERGY PREDICTED BY IDOCK:   -3.17 KCAL/MOL
REMARK 923 INTER-LIGAND FREE ENERGY PREDICTED BY IDOCK:   -4.63 KCAL/MOL
REMARK 924 INTRA-LIGAND FREE ENERGY PREDICTED BY IDOCK:    1.45 KCAL/MOL
REMARK 927      BINDING AFFINITY PREDICTED BY RF-SCORE:    0.00 PKD
ROOT
HETATM    1  N   UNL     1      -7.919  18.549  67.412  1.00  0.00    -0.238 NA 
HETATM    2  H2  UNL     1      -7.939  19.466  66.966  1.00  0.00     0.000 HD 
HETATM    3  C   UNL     1      -8.774  17.554  67.033  1.00  0.00    -0.240 C  
HETATM    4  H1  UNL     1      -7.259  18.335  68.160  1.00  0.00     0.000 HD 
HETATM    5  N   UNL     1      -9.611  17.825  66.083  1.00  0.00    -0.236 N  
HETATM    6  C   UNL     1     -10.496  16.869  65.651  1.00  0.00    -0.238 C  
HETATM    7  H   UNL     1      -9.612  18.751  65.655  1.00  0.00     0.000 HD 
HETATM    8  N   UNL     1     -10.582  15.655  66.364  1.00  0.00    -0.305 N  
HETATM    9  O   UNL     1     -11.202  17.089  64.670  1.00  0.00    -0.968 OA 
HETATM   10  C   UNL     1      -8.720  16.245  67.697  1.00  0.00    -0.188 C  
HETATM   11  C   UNL     1      -9.653  15.361  67.338  1.00  0.00    -0.210 C  
ENDROOT
BRANCH   8  12
HETATM   12  C   UNL     1     -11.586  14.706  65.872  1.00  0.00    -0.327 C  
HETATM   13  O   UNL     1     -11.487  13.508  66.681  1.00  0.00    -0.315 OA 
HETATM   14  C   UNL     1     -10.738  12.513  65.964  1.00  0.00    -0.262 C  
HETATM   15  C   UNL     1     -10.839  12.842  64.479  1.00  0.00    -0.363 C  
HETATM   16  F   UNL     1     -12.874  13.926  64.046  1.00  0.00    -0.225 F  
HETATM   17  C   UNL     1     -11.585  14.169  64.434  1.00  0.00    -0.362 C  
HETATM   18  O   UNL     1     -11.547  11.802  63.780  1.00  0.00    -0.414 OA 
HETATM   19  F   UNL     1     -11.071  14.994  63.503  1.00  0.00     0.702 F  
HETATM   20  H   UNL     1     -11.609  12.007  62.855  1.00  0.00     0.000 HD 
BRANCH  14  21
HETATM   21  C   UNL     1      -9.288  12.562  66.465  1.00  0.00    -0.233 C  
HETATM   22  O   UNL     1      -8.613  11.347  66.149  1.00  0.00    -0.206 OA 
HETATM   23  H   UNL     1      -7.716  11.378  66.460  1.00  0.00     0.000 HD 
ENDBRANCH  14  21
ENDBRANCH   8  12
TORSDOF 2
ENDMDL
MODEL      172
REMARK 921   NORMALIZED FREE ENERGY PREDICTED BY IDOCK:   -2.61 KCAL/MOL
REMARK 922        TOTAL FREE ENERGY PREDICTED BY IDOCK:   -3.07 KCAL/MOL
REMARK 923 INTER-LIGAND FREE ENERGY PREDICTED BY IDOCK:   -4.18 KCAL/MOL
REMARK 924 INTRA-LIGAND FREE ENERGY PREDICTED BY IDOCK:    1.11 KCAL/MOL
REMARK 927      BINDING AFFINITY PREDICTED BY RF-SCORE:    0.00 PKD
ROOT
HETATM    1  N   UNL     1      -8.567   9.244  70.723  1.00  0.00    -0.215 NA 
HETATM    2  H2  UNL     1      -9.186   8.546  71.135  1.00  0.00     0.000 HD 
HETATM    3  C   UNL     1      -8.984  10.054  69.705  1.00  0.00    -0.202 C  
HETATM    4  H1  UNL     1      -7.610   9.368  71.054  1.00  0.00     0.000 HD 
HETATM    5  N   UNL     1     -10.198   9.896  69.285  1.00  0.00    -0.195 N  
HETATM    6  C   UNL     1     -10.682  10.679  68.267  1.00  0.00    -0.219 C  
HETATM    7  H   UNL     1     -10.797   9.189  69.712  1.00  0.00     0.000 HD 
HETATM    8  N   UNL     1      -9.789  11.535  67.589  1.00  0.00    -0.179 N  
HETATM    9  O   UNL     1     -11.868  10.612  67.955  1.00  0.00    -0.494 OA 
HETATM   10  C   UNL     1      -8.065  11.047  69.133  1.00  0.00    -0.066 C  
HETATM   11  C   UNL     1      -8.516  11.729  68.078  1.00  0.00    -0.157 C  
ENDROOT
BRANCH   8  12
HETATM   12  C   UNL     1     -10.370  12.301  66.480  1.00  0.00    -0.227 C  
HETATM   13  O   UNL     1      -9.293  13.034  65.846  1.00  0.00    -0.102 OA 
HETATM   14  C   UNL     1      -9.314  14.396  66.305  1.00  0.00    -0.232 C  
HETATM   15  C   UNL     1     -10.729  14.698  66.787  1.00  0.00    -0.301 C  
HETATM   16  F   UNL     1     -12.267  13.396  65.586  1.00  0.00    -0.384 F  
HETATM   17  C   UNL     1     -11.457  13.364  66.687  1.00  0.00    -0.344 C  
HETATM   18  O   UNL     1     -11.336  15.707  65.960  1.00  0.00    -0.138 OA 
HETATM   19  F   UNL     1     -12.274  13.167  67.738  1.00  0.00    -0.364 F  
HETATM   20  H   UNL     1     -12.218  15.895  66.260  1.00  0.00     0.000 HD 
BRANCH  14  21
HETATM   21  C   UNL     1      -8.283  14.529  67.435  1.00  0.00    -0.202 C  
HETATM   22  O   UNL     1      -8.741  15.451  68.419  1.00  0.00    -0.162 OA 
HETATM   23  H   UNL     1      -8.103  15.533  69.118  1.00  0.00     0.000 HD 
ENDBRANCH  14  21
ENDBRANCH   8  12
TORSDOF 2
ENDMDL
MODEL      173
REMARK 921   NORMALIZED FREE ENERGY PREDICTED BY IDOCK:   -2.60 KCAL/MOL
REMARK 922        TOTAL FREE ENERGY PREDICTED BY IDOCK:   -3.07 KCAL/MOL
REMARK 923 INTER-LIGAND FREE ENERGY PREDICTED BY IDOCK:   -2.97 KCAL/MOL
REMARK 924 INTRA-LIGAND FREE ENERGY PREDICTED BY IDOCK:   -0.09 KCAL/MOL
REMARK 927      BINDING AFFINITY PREDICTED BY RF-SCORE:    0.00 PKD
ROOT
HETATM    1  N   UNL     1     -11.693   9.977  69.351  1.00  0.00    -0.471 NA 
HETATM    2  H2  UNL     1     -12.274  10.728  68.977  1.00  0.00     0.000 HD 
HETATM    3  C   UNL     1     -10.786   9.321  68.569  1.00  0.00    -0.142 C  
HETATM    4  H1  UNL     1     -11.765   9.685  70.326  1.00  0.00     0.000 HD 
HETATM    5  N   UNL     1     -10.695   9.693  67.333  1.00  0.00    -0.287 N  
HETATM    6  C   UNL     1      -9.801   9.077  66.493  1.00  0.00    -0.268 C  
HETATM    7  H   UNL     1     -11.289  10.444  66.982  1.00  0.00     0.000 HD 
HETATM    8  N   UNL     1      -9.109   7.940  66.958  1.00  0.00    -0.132 N  
HETATM    9  O   UNL     1      -9.630   9.512  65.357  1.00  0.00    -0.276 OA 
HETATM   10  C   UNL     1      -9.967   8.244  69.140  1.00  0.00    -0.196 C  
HETATM   11  C   UNL     1      -9.177   7.588  68.288  1.00  0.00    -0.138 C  
ENDROOT
BRANCH   8  12
HETATM   12  C   UNL     1      -8.210   7.308  65.986  1.00  0.00    -0.138 C  
HETATM   13  O   UNL     1      -9.014   6.444  65.146  1.00  0.00     0.072 OA 
HETATM   14  C   UNL     1      -8.874   5.085  65.594  1.00  0.00    -0.143 C  
HETATM   15  C   UNL     1      -7.553   4.983  66.349  1.00  0.00    -0.088 C  
HETATM   16  F   UNL     1      -6.027   6.542  65.486  1.00  0.00    -0.028 F  
HETATM   17  C   UNL     1      -7.034   6.414  66.403  1.00  0.00    -0.067 C  
HETATM   18  O   UNL     1      -6.646   4.106  65.657  1.00  0.00    -0.042 OA 
HETATM   19  F   UNL     1      -6.481   6.695  67.597  1.00  0.00    -0.037 F  
HETATM   20  H   UNL     1      -5.823   4.042  66.127  1.00  0.00     0.000 HD 
BRANCH  14  21
HETATM   21  C   UNL     1     -10.075   4.761  66.494  1.00  0.00    -0.257 C  
HETATM   22  O   UNL     1      -9.896   3.495  67.123  1.00  0.00    -0.336 OA 
HETATM   23  H   UNL     1     -10.639   3.294  67.679  1.00  0.00     0.000 HD 
ENDBRANCH  14  21
ENDBRANCH   8  12
TORSDOF 2
ENDMDL
MODEL      174
REMARK 921   NORMALIZED FREE ENERGY PREDICTED BY IDOCK:   -2.59 KCAL/MOL
REMARK 922        TOTAL FREE ENERGY PREDICTED BY IDOCK:   -3.05 KCAL/MOL
REMARK 923 INTER-LIGAND FREE ENERGY PREDICTED BY IDOCK:   -2.89 KCAL/MOL
REMARK 924 INTRA-LIGAND FREE ENERGY PREDICTED BY IDOCK:   -0.15 KCAL/MOL
REMARK 927      BINDING AFFINITY PREDICTED BY RF-SCORE:    0.00 PKD
ROOT
HETATM    1  N   UNL     1      -9.848   9.897  70.679  1.00  0.00    -0.347 NA 
HETATM    2  H2  UNL     1      -9.355   9.971  71.569  1.00  0.00     0.000 HD 
HETATM    3  C   UNL     1      -9.752   8.776  69.904  1.00  0.00    -0.178 C  
HETATM    4  H1  UNL     1     -10.432  10.656  70.329  1.00  0.00     0.000 HD 
HETATM    5  N   UNL     1      -9.010   7.813  70.349  1.00  0.00    -0.146 N  
HETATM    6  C   UNL     1      -8.874   6.657  69.621  1.00  0.00    -0.143 C  
HETATM    7  H   UNL     1      -8.526   7.913  71.241  1.00  0.00     0.000 HD 
HETATM    8  N   UNL     1      -9.421   6.606  68.322  1.00  0.00    -0.125 N  
HETATM    9  O   UNL     1      -8.271   5.700  70.101  1.00  0.00    -0.109 OA 
HETATM   10  C   UNL     1     -10.473   8.703  68.627  1.00  0.00    -0.208 C  
HETATM   11  C   UNL     1     -10.249   7.617  67.884  1.00  0.00    -0.198 C  
ENDROOT
BRANCH   8  12
HETATM   12  C   UNL     1      -9.190   5.357  67.590  1.00  0.00    -0.112 C  
HETATM   13  O   UNL     1      -7.844   5.407  67.056  1.00  0.00    -0.099 OA 
HETATM   14  C   UNL     1      -7.900   5.773  65.667  1.00  0.00    -0.100 C  
HETATM   15  C   UNL     1      -9.286   5.406  65.149  1.00  0.00     0.051 C  
HETATM   16  F   UNL     1     -10.115   3.568  66.347  1.00  0.00    -0.107 F  
HETATM   17  C   UNL     1     -10.040   4.933  66.384  1.00  0.00    -0.258 C  
HETATM   18  O   UNL     1      -9.191   4.376  64.148  1.00  0.00    -0.153 OA 
HETATM   19  F   UNL     1     -11.312   5.370  66.384  1.00  0.00    -0.186 F  
HETATM   20  H   UNL     1     -10.054   4.147  63.825  1.00  0.00     0.000 HD 
BRANCH  14  21
HETATM   21  C   UNL     1      -7.631   7.281  65.567  1.00  0.00    -0.097 C  
HETATM   22  O   UNL     1      -8.699   7.931  64.883  1.00  0.00    -0.379 OA 
HETATM   23  H   UNL     1      -8.533   8.864  64.821  1.00  0.00     0.000 HD 
ENDBRANCH  14  21
ENDBRANCH   8  12
TORSDOF 2
ENDMDL
MODEL      175
REMARK 921   NORMALIZED FREE ENERGY PREDICTED BY IDOCK:   -2.53 KCAL/MOL
REMARK 922        TOTAL FREE ENERGY PREDICTED BY IDOCK:   -2.98 KCAL/MOL
REMARK 923 INTER-LIGAND FREE ENERGY PREDICTED BY IDOCK:   -2.95 KCAL/MOL
REMARK 924 INTRA-LIGAND FREE ENERGY PREDICTED BY IDOCK:   -0.03 KCAL/MOL
REMARK 927      BINDING AFFINITY PREDICTED BY RF-SCORE:    0.00 PKD
ROOT
HETATM    1  N   UNL     1      -9.261   9.998  70.317  1.00  0.00    -0.367 NA 
HETATM    2  H2  UNL     1     -10.021  10.562  69.935  1.00  0.00     0.000 HD 
HETATM    3  C   UNL     1      -9.406   8.655  70.522  1.00  0.00    -0.175 C  
HETATM    4  H1  UNL     1      -8.362  10.412  70.563  1.00  0.00     0.000 HD 
HETATM    5  N   UNL     1     -10.547   8.130  70.210  1.00  0.00    -0.224 N  
HETATM    6  C   UNL     1     -10.758   6.785  70.387  1.00  0.00    -0.241 C  
HETATM    7  H   UNL     1     -11.291   8.716  69.832  1.00  0.00     0.000 HD 
HETATM    8  N   UNL     1      -9.774   6.029  71.058  1.00  0.00    -0.175 N  
HETATM    9  O   UNL     1     -11.795   6.270  69.977  1.00  0.00    -0.351 OA 
HETATM   10  C   UNL     1      -8.293   7.873  71.076  1.00  0.00    -0.112 C  
HETATM   11  C   UNL     1      -8.547   6.589  71.338  1.00  0.00    -0.126 C  
ENDROOT
BRANCH   8  12
HETATM   12  C   UNL     1     -10.095   4.611  71.253  1.00  0.00    -0.175 C  
HETATM   13  O   UNL     1     -10.826   4.497  72.498  1.00  0.00    -0.166 OA 
HETATM   14  C   UNL     1      -9.932   4.051  73.533  1.00  0.00    -0.126 C  
HETATM   15  C   UNL     1      -8.770   3.331  72.859  1.00  0.00    -0.085 C  
HETATM   16  F   UNL     1      -9.502   2.355  70.855  1.00  0.00    -0.178 F  
HETATM   17  C   UNL     1      -9.016   3.525  71.368  1.00  0.00    -0.101 C  
HETATM   18  O   UNL     1      -8.762   1.939  73.226  1.00  0.00    -0.064 OA 
HETATM   19  F   UNL     1      -7.870   3.768  70.706  1.00  0.00    -0.048 F  
HETATM   20  H   UNL     1      -8.037   1.490  72.807  1.00  0.00     0.000 HD 
BRANCH  14  21
HETATM   21  C   UNL     1      -9.465   5.287  74.315  1.00  0.00    -0.136 C  
HETATM   22  O   UNL     1      -8.047   5.410  74.247  1.00  0.00    -0.105 OA 
HETATM   23  H   UNL     1      -7.758   6.174  74.731  1.00  0.00     0.000 HD 
ENDBRANCH  14  21
ENDBRANCH   8  12
TORSDOF 2
ENDMDL
MODEL      176
REMARK 921   NORMALIZED FREE ENERGY PREDICTED BY IDOCK:   -2.51 KCAL/MOL
REMARK 922        TOTAL FREE ENERGY PREDICTED BY IDOCK:   -2.96 KCAL/MOL
REMARK 923 INTER-LIGAND FREE ENERGY PREDICTED BY IDOCK:   -4.33 KCAL/MOL
REMARK 924 INTRA-LIGAND FREE ENERGY PREDICTED BY IDOCK:    1.37 KCAL/MOL
REMARK 927      BINDING AFFINITY PREDICTED BY RF-SCORE:    0.00 PKD
ROOT
HETATM    1  N   UNL     1      -5.933  18.828  68.209  1.00  0.00    -0.207 NA 
HETATM    2  H2  UNL     1      -5.365  18.806  69.057  1.00  0.00     0.000 HD 
HETATM    3  C   UNL     1      -6.993  17.984  68.040  1.00  0.00    -0.211 C  
HETATM    4  H1  UNL     1      -5.734  19.482  67.452  1.00  0.00     0.000 HD 
HETATM    5  N   UNL     1      -7.245  17.154  69.001  1.00  0.00    -0.242 N  
HETATM    6  C   UNL     1      -8.298  16.280  68.898  1.00  0.00    -0.231 C  
HETATM    7  H   UNL     1      -6.661  17.150  69.838  1.00  0.00     0.000 HD 
HETATM    8  N   UNL     1      -8.989  16.195  67.671  1.00  0.00    -0.191 N  
HETATM    9  O   UNL     1      -8.610  15.581  69.859  1.00  0.00    -0.126 OA 
HETATM   10  C   UNL     1      -7.788  18.041  66.807  1.00  0.00    -0.260 C  
HETATM   11  C   UNL     1      -8.743  17.117  66.677  1.00  0.00    -0.252 C  
ENDROOT
BRANCH   8  12
HETATM   12  C   UNL     1     -10.068  15.203  67.623  1.00  0.00    -0.231 C  
HETATM   13  O   UNL     1      -9.761  14.177  68.599  1.00  0.00    -0.223 OA 
HETATM   14  C   UNL     1      -9.192  13.040  67.928  1.00  0.00    -0.208 C  
HETATM   15  C   UNL     1      -9.650  13.087  66.474  1.00  0.00    -0.260 C  
HETATM   16  F   UNL     1     -11.745  14.134  66.339  1.00  0.00    -0.330 F  
HETATM   17  C   UNL     1     -10.404  14.405  66.356  1.00  0.00    -0.287 C  
HETATM   18  O   UNL     1     -10.490  11.957  66.177  1.00  0.00    -0.224 OA 
HETATM   19  F   UNL     1     -10.140  15.022  65.189  1.00  0.00    -0.362 F  
HETATM   20  H   UNL     1     -10.775  11.985  65.270  1.00  0.00     0.000 HD 
BRANCH  14  21
HETATM   21  C   UNL     1      -7.665  13.136  68.051  1.00  0.00    -0.146 C  
HETATM   22  O   UNL     1      -7.098  13.618  66.836  1.00  0.00    -0.342 OA 
HETATM   23  H   UNL     1      -6.153  13.677  66.912  1.00  0.00     0.000 HD 
ENDBRANCH  14  21
ENDBRANCH   8  12
TORSDOF 2
ENDMDL
MODEL      177
REMARK 921   NORMALIZED FREE ENERGY PREDICTED BY IDOCK:   -2.48 KCAL/MOL
REMARK 922        TOTAL FREE ENERGY PREDICTED BY IDOCK:   -2.93 KCAL/MOL
REMARK 923 INTER-LIGAND FREE ENERGY PREDICTED BY IDOCK:   -2.93 KCAL/MOL
REMARK 924 INTRA-LIGAND FREE ENERGY PREDICTED BY IDOCK:    0.00 KCAL/MOL
REMARK 927      BINDING AFFINITY PREDICTED BY RF-SCORE:    0.00 PKD
ROOT
HETATM    1  N   UNL     1     -10.136   4.578  73.419  1.00  0.00    -0.152 NA 
HETATM    2  H2  UNL     1      -9.929   4.653  74.415  1.00  0.00     0.000 HD 
HETATM    3  C   UNL     1      -9.638   5.477  72.519  1.00  0.00    -0.148 C  
HETATM    4  H1  UNL     1     -10.723   3.829  73.052  1.00  0.00     0.000 HD 
HETATM    5  N   UNL     1      -8.893   6.427  72.985  1.00  0.00    -0.127 N  
HETATM    6  C   UNL     1      -8.358   7.363  72.135  1.00  0.00    -0.109 C  
HETATM    7  H   UNL     1      -8.704   6.481  73.986  1.00  0.00     0.000 HD 
HETATM    8  N   UNL     1      -8.764   7.360  70.784  1.00  0.00    -0.144 N  
HETATM    9  O   UNL     1      -7.555   8.188  72.561  1.00  0.00    -0.106 OA 
HETATM   10  C   UNL     1      -9.958   5.341  71.092  1.00  0.00    -0.265 C  
HETATM   11  C   UNL     1      -9.515   6.314  70.293  1.00  0.00    -0.161 C  
ENDROOT
BRANCH   8  12
HETATM   12  C   UNL     1      -8.187   8.420  69.951  1.00  0.00    -0.122 C  
HETATM   13  O   UNL     1      -8.816   9.667  70.336  1.00  0.00    -0.235 OA 
HETATM   14  C   UNL     1      -9.842   9.993  69.383  1.00  0.00    -0.224 C  
HETATM   15  C   UNL     1      -9.507   9.276  68.081  1.00  0.00    -0.138 C  
HETATM   16  F   UNL     1      -7.182   9.023  67.895  1.00  0.00    -0.076 F  
HETATM   17  C   UNL     1      -8.293   8.421  68.419  1.00  0.00    -0.131 C  
HETATM   18  O   UNL     1      -9.221  10.230  67.042  1.00  0.00    -0.148 OA 
HETATM   19  F   UNL     1      -8.363   7.210  67.838  1.00  0.00    -0.115 F  
HETATM   20  H   UNL     1      -9.013   9.783  66.229  1.00  0.00     0.000 HD 
BRANCH  14  21
HETATM   21  C   UNL     1     -11.187   9.530  69.963  1.00  0.00    -0.209 C  
HETATM   22  O   UNL     1     -11.785  10.575  70.725  1.00  0.00    -0.326 OA 
HETATM   23  H   UNL     1     -12.616  10.289  71.084  1.00  0.00     0.000 HD 
ENDBRANCH  14  21
ENDBRANCH   8  12
TORSDOF 2
ENDMDL
MODEL      178
REMARK 921   NORMALIZED FREE ENERGY PREDICTED BY IDOCK:   -2.47 KCAL/MOL
REMARK 922        TOTAL FREE ENERGY PREDICTED BY IDOCK:   -2.91 KCAL/MOL
REMARK 923 INTER-LIGAND FREE ENERGY PREDICTED BY IDOCK:   -2.74 KCAL/MOL
REMARK 924 INTRA-LIGAND FREE ENERGY PREDICTED BY IDOCK:   -0.17 KCAL/MOL
REMARK 927      BINDING AFFINITY PREDICTED BY RF-SCORE:    0.00 PKD
ROOT
HETATM    1  N   UNL     1      -5.901  12.454  66.503  1.00  0.00    -0.362 NA 
HETATM    2  H2  UNL     1      -6.235  13.302  66.043  1.00  0.00     0.000 HD 
HETATM    3  C   UNL     1      -6.555  11.264  66.364  1.00  0.00    -0.069 C  
HETATM    4  H1  UNL     1      -5.064  12.460  67.087  1.00  0.00     0.000 HD 
HETATM    5  N   UNL     1      -7.617  11.257  65.624  1.00  0.00    -0.346 N  
HETATM    6  C   UNL     1      -8.321  10.093  65.440  1.00  0.00    -0.157 C  
HETATM    7  H   UNL     1      -7.932  12.118  65.177  1.00  0.00     0.000 HD 
HETATM    8  N   UNL     1      -7.959   8.957  66.193  1.00  0.00    -0.105 N  
HETATM    9  O   UNL     1      -9.253  10.062  64.641  1.00  0.00    -0.218 OA 
HETATM   10  C   UNL     1      -6.049  10.064  67.043  1.00  0.00    -0.055 C  
HETATM   11  C   UNL     1      -6.799   8.965  66.937  1.00  0.00    -0.077 C  
ENDROOT
BRANCH   8  12
HETATM   12  C   UNL     1      -8.789   7.767  65.978  1.00  0.00    -0.157 C  
HETATM   13  O   UNL     1      -9.960   7.894  66.822  1.00  0.00    -0.227 OA 
HETATM   14  C   UNL     1      -9.780   7.094  68.003  1.00  0.00    -0.138 C  
HETATM   15  C   UNL     1      -8.762   6.008  67.673  1.00  0.00    -0.104 C  
HETATM   16  F   UNL     1      -8.885   5.476  65.392  1.00  0.00    -0.147 F  
HETATM   17  C   UNL     1      -8.290   6.345  66.265  1.00  0.00    -0.123 C  
HETATM   18  O   UNL     1      -9.376   4.708  67.740  1.00  0.00    -0.127 OA 
HETATM   19  F   UNL     1      -6.965   6.152  66.129  1.00  0.00    -0.058 F  
HETATM   20  H   UNL     1      -8.741   4.031  67.535  1.00  0.00     0.000 HD 
BRANCH  14  21
HETATM   21  C   UNL     1      -9.289   8.018  69.127  1.00  0.00    -0.151 C  
HETATM   22  O   UNL     1      -8.146   7.457  69.767  1.00  0.00    -0.123 OA 
HETATM   23  H   UNL     1      -7.843   8.029  70.462  1.00  0.00     0.000 HD 
ENDBRANCH  14  21
ENDBRANCH   8  12
TORSDOF 2
ENDMDL
MODEL      179
REMARK 921   NORMALIZED FREE ENERGY PREDICTED BY IDOCK:   -2.45 KCAL/MOL
REMARK 922        TOTAL FREE ENERGY PREDICTED BY IDOCK:   -2.89 KCAL/MOL
REMARK 923 INTER-LIGAND FREE ENERGY PREDICTED BY IDOCK:   -3.00 KCAL/MOL
REMARK 924 INTRA-LIGAND FREE ENERGY PREDICTED BY IDOCK:    0.10 KCAL/MOL
REMARK 927      BINDING AFFINITY PREDICTED BY RF-SCORE:    0.00 PKD
ROOT
HETATM    1  N   UNL     1      -8.098  10.157  65.999  1.00  0.00    -0.124 NA 
HETATM    2  H2  UNL     1      -7.525   9.418  66.407  1.00  0.00     0.000 HD 
HETATM    3  C   UNL     1      -8.249  11.365  66.618  1.00  0.00    -0.163 C  
HETATM    4  H1  UNL     1      -8.583  10.025  65.111  1.00  0.00     0.000 HD 
HETATM    5  N   UNL     1      -7.634  11.532  67.745  1.00  0.00    -0.105 N  
HETATM    6  C   UNL     1      -7.740  12.723  68.418  1.00  0.00    -0.132 C  
HETATM    7  H   UNL     1      -7.068  10.776  68.133  1.00  0.00     0.000 HD 
HETATM    8  N   UNL     1      -8.651  13.689  67.943  1.00  0.00    -0.169 N  
HETATM    9  O   UNL     1      -7.059  12.921  69.421  1.00  0.00     0.027 OA 
HETATM   10  C   UNL     1      -9.083  12.406  66.004  1.00  0.00     0.023 C  
HETATM   11  C   UNL     1      -9.259  13.519  66.719  1.00  0.00    -0.240 C  
ENDROOT
BRANCH   8  12
HETATM   12  C   UNL     1      -8.745  14.914  68.745  1.00  0.00    -0.182 C  
HETATM   13  O   UNL     1      -9.733  14.684  69.779  1.00  0.00     0.118 OA 
HETATM   14  C   UNL     1     -10.976  15.292  69.388  1.00  0.00    -0.271 C  
HETATM   15  C   UNL     1     -10.655  16.394  68.386  1.00  0.00    -0.311 C  
HETATM   16  F   UNL     1      -8.524  17.269  68.829  1.00  0.00    -0.258 F  
HETATM   17  C   UNL     1      -9.156  16.267  68.147  1.00  0.00    -0.188 C  
HETATM   18  O   UNL     1     -11.007  17.681  68.927  1.00  0.00    -0.225 OA 
HETATM   19  F   UNL     1      -8.845  16.452  66.851  1.00  0.00    -0.185 F  
HETATM   20  H   UNL     1     -10.807  18.369  68.302  1.00  0.00     0.000 HD 
BRANCH  14  21
HETATM   21  C   UNL     1     -11.861  14.198  68.774  1.00  0.00    -0.349 C  
HETATM   22  O   UNL     1     -11.396  12.908  69.161  1.00  0.00    -0.261 OA 
HETATM   23  H   UNL     1     -11.944  12.231  68.781  1.00  0.00     0.000 HD 
ENDBRANCH  14  21
ENDBRANCH   8  12
TORSDOF 2
ENDMDL
MODEL      180
REMARK 921   NORMALIZED FREE ENERGY PREDICTED BY IDOCK:   -2.35 KCAL/MOL
REMARK 922        TOTAL FREE ENERGY PREDICTED BY IDOCK:   -2.78 KCAL/MOL
REMARK 923 INTER-LIGAND FREE ENERGY PREDICTED BY IDOCK:   -3.48 KCAL/MOL
REMARK 924 INTRA-LIGAND FREE ENERGY PREDICTED BY IDOCK:    0.70 KCAL/MOL
REMARK 927      BINDING AFFINITY PREDICTED BY RF-SCORE:    0.00 PKD
ROOT
HETATM    1  N   UNL     1     -12.649   8.145  72.599  1.00  0.00    -0.602 NA 
HETATM    2  H2  UNL     1     -12.609   7.496  73.386  1.00  0.00     0.000 HD 
HETATM    3  C   UNL     1     -11.528   8.483  71.897  1.00  0.00    -0.335 C  
HETATM    4  H1  UNL     1     -13.529   8.570  72.305  1.00  0.00     0.000 HD 
HETATM    5  N   UNL     1     -10.412   7.944  72.271  1.00  0.00    -0.240 N  
HETATM    6  C   UNL     1      -9.248   8.237  71.605  1.00  0.00    -0.185 C  
HETATM    7  H   UNL     1     -10.398   7.299  73.061  1.00  0.00     0.000 HD 
HETATM    8  N   UNL     1      -9.267   9.249  70.623  1.00  0.00    -0.253 N  
HETATM    9  O   UNL     1      -8.216   7.632  71.883  1.00  0.00    -0.102 OA 
HETATM   10  C   UNL     1     -11.621   9.423  70.772  1.00  0.00    -0.364 C  
HETATM   11  C   UNL     1     -10.468   9.777  70.201  1.00  0.00    -0.286 C  
ENDROOT
BRANCH   8  12
HETATM   12  C   UNL     1      -7.975   9.540  69.993  1.00  0.00    -0.156 C  
HETATM   13  O   UNL     1      -7.987  10.933  69.597  1.00  0.00    -0.026 OA 
HETATM   14  C   UNL     1      -8.269  11.023  68.190  1.00  0.00    -0.124 C  
HETATM   15  C   UNL     1      -7.878   9.693  67.556  1.00  0.00    -0.095 C  
HETATM   16  F   UNL     1      -6.119   8.726  68.770  1.00  0.00    -0.042 F  
HETATM   17  C   UNL     1      -7.483   8.812  68.734  1.00  0.00    -0.084 C  
HETATM   18  O   UNL     1      -6.789   9.878  66.633  1.00  0.00    -0.081 OA 
HETATM   19  F   UNL     1      -7.926   7.551  68.578  1.00  0.00    -0.113 F  
HETATM   20  H   UNL     1      -6.545   9.049  66.238  1.00  0.00     0.000 HD 
BRANCH  14  21
HETATM   21  C   UNL     1      -9.767  11.316  68.029  1.00  0.00    -0.179 C  
HETATM   22  O   UNL     1     -10.168  11.120  66.675  1.00  0.00    -0.216 OA 
HETATM   23  H   UNL     1     -11.095  11.302  66.575  1.00  0.00     0.000 HD 
ENDBRANCH  14  21
ENDBRANCH   8  12
TORSDOF 2
ENDMDL
MODEL      181
REMARK 921   NORMALIZED FREE ENERGY PREDICTED BY IDOCK:   -2.34 KCAL/MOL
REMARK 922        TOTAL FREE ENERGY PREDICTED BY IDOCK:   -2.78 KCAL/MOL
REMARK 923 INTER-LIGAND FREE ENERGY PREDICTED BY IDOCK:   -3.02 KCAL/MOL
REMARK 924 INTRA-LIGAND FREE ENERGY PREDICTED BY IDOCK:    0.24 KCAL/MOL
REMARK 927      BINDING AFFINITY PREDICTED BY RF-SCORE:    0.00 PKD
ROOT
HETATM    1  N   UNL     1     -11.222   7.251  71.497  1.00  0.00    -0.242 NA 
HETATM    2  H2  UNL     1     -11.261   6.237  71.606  1.00  0.00     0.000 HD 
HETATM    3  C   UNL     1     -10.776   7.826  70.341  1.00  0.00    -0.236 C  
HETATM    4  H1  UNL     1     -11.513   7.878  72.247  1.00  0.00     0.000 HD 
HETATM    5  N   UNL     1     -10.407   7.030  69.390  1.00  0.00    -0.200 N  
HETATM    6  C   UNL     1      -9.952   7.542  68.201  1.00  0.00    -0.172 C  
HETATM    7  H   UNL     1     -10.454   6.020  69.524  1.00  0.00     0.000 HD 
HETATM    8  N   UNL     1      -9.746   8.934  68.098  1.00  0.00    -0.156 N  
HETATM    9  O   UNL     1      -9.719   6.789  67.259  1.00  0.00    -0.129 OA 
HETATM   10  C   UNL     1     -10.730   9.289  70.220  1.00  0.00    -0.284 C  
HETATM   11  C   UNL     1     -10.190   9.771  69.098  1.00  0.00    -0.199 C  
ENDROOT
BRANCH   8  12
HETATM   12  C   UNL     1      -9.211   9.399  66.814  1.00  0.00    -0.143 C  
HETATM   13  O   UNL     1      -8.031   8.610  66.522  1.00  0.00    -0.097 OA 
HETATM   14  C   UNL     1      -6.859   9.370  66.860  1.00  0.00    -0.080 C  
HETATM   15  C   UNL     1      -7.241  10.845  66.831  1.00  0.00    -0.124 C  
HETATM   16  F   UNL     1      -8.967  11.183  65.279  1.00  0.00    -0.196 F  
HETATM   17  C   UNL     1      -8.744  10.843  66.584  1.00  0.00    -0.155 C  
HETATM   18  O   UNL     1      -6.525  11.529  65.787  1.00  0.00    -0.346 OA 
HETATM   19  F   UNL     1      -9.367  11.782  67.320  1.00  0.00    -0.164 F  
HETATM   20  H   UNL     1      -6.763  12.449  65.769  1.00  0.00     0.000 HD 
BRANCH  14  21
HETATM   21  C   UNL     1      -6.395   8.925  68.254  1.00  0.00    -0.055 C  
HETATM   22  O   UNL     1      -6.473   7.507  68.374  1.00  0.00    -0.042 OA 
HETATM   23  H   UNL     1      -6.186   7.232  69.236  1.00  0.00     0.000 HD 
ENDBRANCH  14  21
ENDBRANCH   8  12
TORSDOF 2
ENDMDL
MODEL      182
REMARK 921   NORMALIZED FREE ENERGY PREDICTED BY IDOCK:   -2.34 KCAL/MOL
REMARK 922        TOTAL FREE ENERGY PREDICTED BY IDOCK:   -2.77 KCAL/MOL
REMARK 923 INTER-LIGAND FREE ENERGY PREDICTED BY IDOCK:   -2.95 KCAL/MOL
REMARK 924 INTRA-LIGAND FREE ENERGY PREDICTED BY IDOCK:    0.18 KCAL/MOL
REMARK 927      BINDING AFFINITY PREDICTED BY RF-SCORE:    0.00 PKD
ROOT
HETATM    1  N   UNL     1      -9.917  11.988  64.184  1.00  0.00    -0.443 NA 
HETATM    2  H2  UNL     1     -10.769  12.531  64.044  1.00  0.00     0.000 HD 
HETATM    3  C   UNL     1      -9.708  11.274  65.330  1.00  0.00    -0.239 C  
HETATM    4  H1  UNL     1      -9.184  11.955  63.476  1.00  0.00     0.000 HD 
HETATM    5  N   UNL     1     -10.638  11.316  66.229  1.00  0.00    -0.258 N  
HETATM    6  C   UNL     1     -10.494  10.619  67.403  1.00  0.00    -0.235 C  
HETATM    7  H   UNL     1     -11.480  11.869  66.065  1.00  0.00     0.000 HD 
HETATM    8  N   UNL     1      -9.258   9.996  67.672  1.00  0.00    -0.137 N  
HETATM    9  O   UNL     1     -11.428  10.561  68.198  1.00  0.00    -0.342 OA 
HETATM   10  C   UNL     1      -8.469  10.505  65.501  1.00  0.00    -0.177 C  
HETATM   11  C   UNL     1      -8.298   9.916  66.686  1.00  0.00    -0.125 C  
ENDROOT
BRANCH   8  12
HETATM   12  C   UNL     1      -9.165   9.314  68.967  1.00  0.00    -0.144 C  
HETATM   13  O   UNL     1      -8.359  10.143  69.839  1.00  0.00    -0.172 OA 
HETATM   14  C   UNL     1      -7.022   9.617  69.889  1.00  0.00    -0.081 C  
HETATM   15  C   UNL     1      -7.093   8.140  69.516  1.00  0.00    -0.051 C  
HETATM   16  F   UNL     1      -9.175   7.266  70.153  1.00  0.00    -0.150 F  
HETATM   17  C   UNL     1      -8.549   7.917  69.126  1.00  0.00    -0.138 C  
HETATM   18  O   UNL     1      -6.704   7.321  70.634  1.00  0.00    -0.047 OA 
HETATM   19  F   UNL     1      -8.655   7.106  68.058  1.00  0.00    -0.125 F  
HETATM   20  H   UNL     1      -6.748   6.401  70.402  1.00  0.00     0.000 HD 
BRANCH  14  21
HETATM   21  C   UNL     1      -6.164  10.417  68.898  1.00  0.00    -0.043 C  
HETATM   22  O   UNL     1      -5.261  11.268  69.599  1.00  0.00    -0.044 OA 
HETATM   23  H   UNL     1      -4.730  11.763  68.986  1.00  0.00     0.000 HD 
ENDBRANCH  14  21
ENDBRANCH   8  12
TORSDOF 2
ENDMDL
MODEL      183
REMARK 921   NORMALIZED FREE ENERGY PREDICTED BY IDOCK:   -2.30 KCAL/MOL
REMARK 922        TOTAL FREE ENERGY PREDICTED BY IDOCK:   -2.73 KCAL/MOL
REMARK 923 INTER-LIGAND FREE ENERGY PREDICTED BY IDOCK:   -3.41 KCAL/MOL
REMARK 924 INTRA-LIGAND FREE ENERGY PREDICTED BY IDOCK:    0.69 KCAL/MOL
REMARK 927      BINDING AFFINITY PREDICTED BY RF-SCORE:    0.00 PKD
ROOT
HETATM    1  N   UNL     1     -12.663   9.796  70.600  1.00  0.00    -0.524 NA 
HETATM    2  H2  UNL     1     -13.243  10.227  71.321  1.00  0.00     0.000 HD 
HETATM    3  C   UNL     1     -11.743   8.834  70.906  1.00  0.00    -0.258 C  
HETATM    4  H1  UNL     1     -12.745  10.066  69.620  1.00  0.00     0.000 HD 
HETATM    5  N   UNL     1     -11.639   8.492  72.151  1.00  0.00    -0.357 N  
HETATM    6  C   UNL     1     -10.737   7.528  72.527  1.00  0.00    -0.285 C  
HETATM    7  H   UNL     1     -12.230   8.939  72.853  1.00  0.00     0.000 HD 
HETATM    8  N   UNL     1      -9.826   7.043  71.566  1.00  0.00    -0.173 N  
HETATM    9  O   UNL     1     -10.727   7.119  73.685  1.00  0.00    -0.375 OA 
HETATM   10  C   UNL     1     -10.923   8.238  69.844  1.00  0.00    -0.166 C  
HETATM   11  C   UNL     1      -9.981   7.378  70.238  1.00  0.00    -0.188 C  
ENDROOT
BRANCH   8  12
HETATM   12  C   UNL     1      -8.861   6.053  72.057  1.00  0.00    -0.137 C  
HETATM   13  O   UNL     1      -7.668   6.166  71.242  1.00  0.00    -0.102 OA 
HETATM   14  C   UNL     1      -7.670   5.122  70.254  1.00  0.00    -0.071 C  
HETATM   15  C   UNL     1      -8.554   3.995  70.776  1.00  0.00    -0.072 C  
HETATM   16  F   UNL     1      -8.500   3.971  73.121  1.00  0.00    -0.089 F  
HETATM   17  C   UNL     1      -9.150   4.546  72.065  1.00  0.00    -0.130 C  
HETATM   18  O   UNL     1      -7.772   2.810  71.008  1.00  0.00    -0.039 OA 
HETATM   19  F   UNL     1     -10.444   4.201  72.198  1.00  0.00    -0.245 F  
HETATM   20  H   UNL     1      -8.323   2.107  71.334  1.00  0.00     0.000 HD 
BRANCH  14  21
HETATM   21  C   UNL     1      -8.210   5.714  68.944  1.00  0.00    -0.100 C  
HETATM   22  O   UNL     1      -8.970   4.739  68.235  1.00  0.00    -0.106 OA 
HETATM   23  H   UNL     1      -9.304   5.105  67.425  1.00  0.00     0.000 HD 
ENDBRANCH  14  21
ENDBRANCH   8  12
TORSDOF 2
ENDMDL
MODEL      184
REMARK 921   NORMALIZED FREE ENERGY PREDICTED BY IDOCK:   -2.27 KCAL/MOL
REMARK 922        TOTAL FREE ENERGY PREDICTED BY IDOCK:   -2.69 KCAL/MOL
REMARK 923 INTER-LIGAND FREE ENERGY PREDICTED BY IDOCK:   -2.61 KCAL/MOL
REMARK 924 INTRA-LIGAND FREE ENERGY PREDICTED BY IDOCK:   -0.08 KCAL/MOL
REMARK 927      BINDING AFFINITY PREDICTED BY RF-SCORE:    0.00 PKD
ROOT
HETATM    1  N   UNL     1      -8.543   6.416  64.190  1.00  0.00    -0.324 NA 
HETATM    2  H2  UNL     1      -7.728   6.844  63.748  1.00  0.00     0.000 HD 
HETATM    3  C   UNL     1      -8.751   6.506  65.537  1.00  0.00    -0.051 C  
HETATM    4  H1  UNL     1      -9.236   5.905  63.645  1.00  0.00     0.000 HD 
HETATM    5  N   UNL     1      -7.870   7.155  66.228  1.00  0.00    -0.103 N  
HETATM    6  C   UNL     1      -8.020   7.286  67.586  1.00  0.00    -0.114 C  
HETATM    7  H   UNL     1      -7.063   7.572  65.763  1.00  0.00     0.000 HD 
HETATM    8  N   UNL     1      -9.054   6.569  68.224  1.00  0.00    -0.120 N  
HETATM    9  O   UNL     1      -7.252   8.005  68.220  1.00  0.00    -0.088 OA 
HETATM   10  C   UNL     1      -9.933   5.876  66.140  1.00  0.00    -0.039 C  
HETATM   11  C   UNL     1     -10.011   5.924  67.472  1.00  0.00    -0.143 C  
ENDROOT
BRANCH   8  12
HETATM   12  C   UNL     1      -9.118   6.720  69.682  1.00  0.00    -0.143 C  
HETATM   13  O   UNL     1      -8.242   5.722  70.263  1.00  0.00    -0.106 OA 
HETATM   14  C   UNL     1      -9.030   4.609  70.718  1.00  0.00    -0.122 C  
HETATM   15  C   UNL     1     -10.448   5.116  70.959  1.00  0.00    -0.171 C  
HETATM   16  F   UNL     1     -10.384   7.380  71.569  1.00  0.00    -0.199 F  
HETATM   17  C   UNL     1     -10.422   6.560  70.475  1.00  0.00    -0.207 C  
HETATM   18  O   UNL     1     -10.784   5.021  72.355  1.00  0.00    -0.215 OA 
HETATM   19  F   UNL     1     -11.551   6.880  69.816  1.00  0.00    -0.308 F  
HETATM   20  H   UNL     1     -11.668   5.336  72.505  1.00  0.00     0.000 HD 
BRANCH  14  21
HETATM   21  C   UNL     1      -8.985   3.525  69.633  1.00  0.00    -0.110 C  
HETATM   22  O   UNL     1      -7.638   3.141  69.370  1.00  0.00    -0.047 OA 
HETATM   23  H   UNL     1      -7.610   2.470  68.699  1.00  0.00     0.000 HD 
ENDBRANCH  14  21
ENDBRANCH   8  12
TORSDOF 2
ENDMDL
MODEL      185
REMARK 921   NORMALIZED FREE ENERGY PREDICTED BY IDOCK:   -2.25 KCAL/MOL
REMARK 922        TOTAL FREE ENERGY PREDICTED BY IDOCK:   -2.67 KCAL/MOL
REMARK 923 INTER-LIGAND FREE ENERGY PREDICTED BY IDOCK:   -3.10 KCAL/MOL
REMARK 924 INTRA-LIGAND FREE ENERGY PREDICTED BY IDOCK:    0.43 KCAL/MOL
REMARK 927      BINDING AFFINITY PREDICTED BY RF-SCORE:    0.00 PKD
ROOT
HETATM    1  N   UNL     1     -11.250   7.087  67.987  1.00  0.00    -0.527 NA 
HETATM    2  H2  UNL     1     -11.863   6.464  67.460  1.00  0.00     0.000 HD 
HETATM    3  C   UNL     1     -10.531   6.640  69.059  1.00  0.00    -0.214 C  
HETATM    4  H1  UNL     1     -11.149   8.071  67.737  1.00  0.00     0.000 HD 
HETATM    5  N   UNL     1     -10.660   5.392  69.377  1.00  0.00    -0.266 N  
HETATM    6  C   UNL     1      -9.963   4.877  70.441  1.00  0.00    -0.246 C  
HETATM    7  H   UNL     1     -11.280   4.790  68.835  1.00  0.00     0.000 HD 
HETATM    8  N   UNL     1      -9.239   5.761  71.268  1.00  0.00    -0.146 N  
HETATM    9  O   UNL     1      -9.992   3.669  70.664  1.00  0.00    -0.125 OA 
HETATM   10  C   UNL     1      -9.661   7.565  69.797  1.00  0.00    -0.171 C  
HETATM   11  C   UNL     1      -9.070   7.075  70.889  1.00  0.00    -0.153 C  
ENDROOT
BRANCH   8  12
HETATM   12  C   UNL     1      -8.563   5.142  72.413  1.00  0.00    -0.125 C  
HETATM   13  O   UNL     1      -9.050   5.795  73.611  1.00  0.00    -0.128 OA 
HETATM   14  C   UNL     1      -8.085   6.768  74.045  1.00  0.00    -0.119 C  
HETATM   15  C   UNL     1      -6.731   6.359  73.477  1.00  0.00    -0.074 C  
HETATM   16  F   UNL     1      -6.646   4.027  73.238  1.00  0.00    -0.034 F  
HETATM   17  C   UNL     1      -7.038   5.163  72.586  1.00  0.00    -0.087 C  
HETATM   18  O   UNL     1      -5.823   6.019  74.541  1.00  0.00    -0.059 OA 
HETATM   19  F   UNL     1      -6.322   5.198  71.447  1.00  0.00    -0.025 F  
HETATM   20  H   UNL     1      -4.978   5.765  74.186  1.00  0.00     0.000 HD 
BRANCH  14  21
HETATM   21  C   UNL     1      -8.535   8.141  73.525  1.00  0.00    -0.246 C  
HETATM   22  O   UNL     1      -7.402   8.955  73.232  1.00  0.00    -0.358 OA 
HETATM   23  H   UNL     1      -7.681   9.804  72.910  1.00  0.00     0.000 HD 
ENDBRANCH  14  21
ENDBRANCH   8  12
TORSDOF 2
ENDMDL
MODEL      186
REMARK 921   NORMALIZED FREE ENERGY PREDICTED BY IDOCK:   -2.19 KCAL/MOL
REMARK 922        TOTAL FREE ENERGY PREDICTED BY IDOCK:   -2.61 KCAL/MOL
REMARK 923 INTER-LIGAND FREE ENERGY PREDICTED BY IDOCK:   -2.55 KCAL/MOL
REMARK 924 INTRA-LIGAND FREE ENERGY PREDICTED BY IDOCK:   -0.06 KCAL/MOL
REMARK 927      BINDING AFFINITY PREDICTED BY RF-SCORE:    0.00 PKD
ROOT
HETATM    1  N   UNL     1     -12.140   6.673  70.556  1.00  0.00    -0.503 NA 
HETATM    2  H2  UNL     1     -12.152   6.378  71.533  1.00  0.00     0.000 HD 
HETATM    3  C   UNL     1     -11.124   6.315  69.717  1.00  0.00    -0.406 C  
HETATM    4  H1  UNL     1     -12.887   7.247  70.165  1.00  0.00     0.000 HD 
HETATM    5  N   UNL     1     -10.177   5.586  70.214  1.00  0.00    -0.234 N  
HETATM    6  C   UNL     1      -9.127   5.189  69.424  1.00  0.00    -0.108 C  
HETATM    7  H   UNL     1     -10.211   5.306  71.194  1.00  0.00     0.000 HD 
HETATM    8  N   UNL     1      -9.022   5.719  68.121  1.00  0.00    -0.115 N  
HETATM    9  O   UNL     1      -8.297   4.398  69.863  1.00  0.00    -0.062 OA 
HETATM   10  C   UNL     1     -11.137   6.760  68.317  1.00  0.00    -0.222 C  
HETATM   11  C   UNL     1     -10.061   6.452  67.590  1.00  0.00    -0.151 C  
ENDROOT
BRANCH   8  12
HETATM   12  C   UNL     1      -7.847   5.287  67.358  1.00  0.00    -0.100 C  
HETATM   13  O   UNL     1      -6.721   6.084  67.802  1.00  0.00    -0.054 OA 
HETATM   14  C   UNL     1      -6.484   7.137  66.852  1.00  0.00    -0.054 C  
HETATM   15  C   UNL     1      -7.073   6.695  65.517  1.00  0.00    -0.064 C  
HETATM   16  F   UNL     1      -6.995   4.356  65.355  1.00  0.00    -0.053 F  
HETATM   17  C   UNL     1      -7.772   5.378  65.828  1.00  0.00    -0.087 C  
HETATM   18  O   UNL     1      -6.031   6.535  64.538  1.00  0.00    -0.032 OA 
HETATM   19  F   UNL     1      -8.946   5.277  65.178  1.00  0.00    -0.156 F  
HETATM   20  H   UNL     1      -6.398   6.260  63.706  1.00  0.00     0.000 HD 
BRANCH  14  21
HETATM   21  C   UNL     1      -7.159   8.410  67.384  1.00  0.00    -0.080 C  
HETATM   22  O   UNL     1      -6.488   9.568  66.894  1.00  0.00    -0.065 OA 
HETATM   23  H   UNL     1      -6.905  10.355  67.222  1.00  0.00     0.000 HD 
ENDBRANCH  14  21
ENDBRANCH   8  12
TORSDOF 2
ENDMDL
MODEL      187
REMARK 921   NORMALIZED FREE ENERGY PREDICTED BY IDOCK:   -2.17 KCAL/MOL
REMARK 922        TOTAL FREE ENERGY PREDICTED BY IDOCK:   -2.58 KCAL/MOL
REMARK 923 INTER-LIGAND FREE ENERGY PREDICTED BY IDOCK:   -2.55 KCAL/MOL
REMARK 924 INTRA-LIGAND FREE ENERGY PREDICTED BY IDOCK:   -0.02 KCAL/MOL
REMARK 927      BINDING AFFINITY PREDICTED BY RF-SCORE:    0.00 PKD
ROOT
HETATM    1  N   UNL     1     -11.119   2.732  63.781  1.00  0.00    -0.577 NA 
HETATM    2  H2  UNL     1     -10.937   2.314  62.868  1.00  0.00     0.000 HD 
HETATM    3  C   UNL     1     -10.374   3.777  64.247  1.00  0.00    -0.245 C  
HETATM    4  H1  UNL     1     -11.864   2.385  64.386  1.00  0.00     0.000 HD 
HETATM    5  N   UNL     1      -9.429   4.217  63.479  1.00  0.00    -0.147 N  
HETATM    6  C   UNL     1      -8.644   5.268  63.884  1.00  0.00    -0.052 C  
HETATM    7  H   UNL     1      -9.266   3.781  62.571  1.00  0.00     0.000 HD 
HETATM    8  N   UNL     1      -8.784   5.746  65.204  1.00  0.00    -0.113 N  
HETATM    9  O   UNL     1      -7.832   5.760  63.106  1.00  0.00    -0.088 OA 
HETATM   10  C   UNL     1     -10.660   4.353  65.567  1.00  0.00    -0.193 C  
HETATM   11  C   UNL     1      -9.826   5.304  65.990  1.00  0.00    -0.132 C  
ENDROOT
BRANCH   8  12
HETATM   12  C   UNL     1      -7.876   6.836  65.578  1.00  0.00    -0.112 C  
HETATM   13  O   UNL     1      -6.752   6.247  66.276  1.00  0.00    -0.053 OA 
HETATM   14  C   UNL     1      -6.934   6.415  67.692  1.00  0.00    -0.078 C  
HETATM   15  C   UNL     1      -7.871   7.600  67.899  1.00  0.00    -0.117 C  
HETATM   16  F   UNL     1      -7.621   9.123  66.132  1.00  0.00    -0.091 F  
HETATM   17  C   UNL     1      -8.303   7.993  66.492  1.00  0.00    -0.121 C  
HETATM   18  O   UNL     1      -7.185   8.671  68.571  1.00  0.00    -0.078 OA 
HETATM   19  F   UNL     1      -9.607   8.322  66.449  1.00  0.00    -0.232 F  
HETATM   20  H   UNL     1      -7.769   9.409  68.701  1.00  0.00     0.000 HD 
BRANCH  14  21
HETATM   21  C   UNL     1      -7.525   5.112  68.248  1.00  0.00    -0.075 C  
HETATM   22  O   UNL     1      -6.790   3.989  67.767  1.00  0.00    -0.049 OA 
HETATM   23  H   UNL     1      -7.156   3.183  68.111  1.00  0.00     0.000 HD 
ENDBRANCH  14  21
ENDBRANCH   8  12
TORSDOF 2
ENDMDL
MODEL      188
REMARK 921   NORMALIZED FREE ENERGY PREDICTED BY IDOCK:   -2.06 KCAL/MOL
REMARK 922        TOTAL FREE ENERGY PREDICTED BY IDOCK:   -2.46 KCAL/MOL
REMARK 923 INTER-LIGAND FREE ENERGY PREDICTED BY IDOCK:   -2.35 KCAL/MOL
REMARK 924 INTRA-LIGAND FREE ENERGY PREDICTED BY IDOCK:   -0.11 KCAL/MOL
REMARK 927      BINDING AFFINITY PREDICTED BY RF-SCORE:    0.00 PKD
ROOT
HETATM    1  N   UNL     1      -9.124   8.023  72.777  1.00  0.00    -0.211 NA 
HETATM    2  H2  UNL     1      -8.564   8.610  73.396  1.00  0.00     0.000 HD 
HETATM    3  C   UNL     1      -8.707   7.724  71.511  1.00  0.00    -0.121 C  
HETATM    4  H1  UNL     1     -10.018   7.633  73.077  1.00  0.00     0.000 HD 
HETATM    5  N   UNL     1      -7.572   8.218  71.131  1.00  0.00    -0.074 N  
HETATM    6  C   UNL     1      -7.093   7.954  69.873  1.00  0.00    -0.061 C  
HETATM    7  H   UNL     1      -7.033   8.804  71.769  1.00  0.00     0.000 HD 
HETATM    8  N   UNL     1      -7.928   7.277  68.959  1.00  0.00    -0.118 N  
HETATM    9  O   UNL     1      -5.963   8.320  69.559  1.00  0.00    -0.032 OA 
HETATM   10  C   UNL     1      -9.538   6.878  70.645  1.00  0.00    -0.171 C  
HETATM   11  C   UNL     1      -9.109   6.715  69.392  1.00  0.00    -0.143 C  
ENDROOT
BRANCH   8  12
HETATM   12  C   UNL     1      -7.364   7.077  67.620  1.00  0.00    -0.096 C  
HETATM   13  O   UNL     1      -7.320   8.371  66.968  1.00  0.00    -0.082 OA 
HETATM   14  C   UNL     1      -8.439   8.487  66.072  1.00  0.00    -0.140 C  
HETATM   15  C   UNL     1      -8.885   7.076  65.707  1.00  0.00    -0.064 C  
HETATM   16  F   UNL     1      -7.047   5.621  65.782  1.00  0.00    -0.060 F  
HETATM   17  C   UNL     1      -8.020   6.168  66.572  1.00  0.00    -0.105 C  
HETATM   18  O   UNL     1      -8.686   6.833  64.303  1.00  0.00    -0.291 OA 
HETATM   19  F   UNL     1      -8.724   5.130  67.058  1.00  0.00    -0.108 F  
HETATM   20  H   UNL     1      -8.965   5.954  64.076  1.00  0.00     0.000 HD 
BRANCH  14  21
HETATM   21  C   UNL     1      -9.543   9.269  66.797  1.00  0.00    -0.183 C  
HETATM   22  O   UNL     1     -10.723   8.477  66.904  1.00  0.00    -0.288 OA 
HETATM   23  H   UNL     1     -11.406   8.961  67.352  1.00  0.00     0.000 HD 
ENDBRANCH  14  21
ENDBRANCH   8  12
TORSDOF 2
ENDMDL
MODEL      189
REMARK 921   NORMALIZED FREE ENERGY PREDICTED BY IDOCK:   -2.04 KCAL/MOL
REMARK 922        TOTAL FREE ENERGY PREDICTED BY IDOCK:   -2.44 KCAL/MOL
REMARK 923 INTER-LIGAND FREE ENERGY PREDICTED BY IDOCK:   -2.96 KCAL/MOL
REMARK 924 INTRA-LIGAND FREE ENERGY PREDICTED BY IDOCK:    0.52 KCAL/MOL
REMARK 927      BINDING AFFINITY PREDICTED BY RF-SCORE:    0.00 PKD
ROOT
HETATM    1  N   UNL     1      -9.593   9.325  66.048  1.00  0.00    -0.251 NA 
HETATM    2  H2  UNL     1     -10.323   9.105  65.369  1.00  0.00     0.000 HD 
HETATM    3  C   UNL     1      -9.332  10.613  66.421  1.00  0.00    -0.169 C  
HETATM    4  H1  UNL     1      -9.027   8.592  66.477  1.00  0.00     0.000 HD 
HETATM    5  N   UNL     1     -10.051  11.542  65.876  1.00  0.00    -0.222 N  
HETATM    6  C   UNL     1      -9.843  12.857  66.209  1.00  0.00    -0.273 C  
HETATM    7  H   UNL     1     -10.772  11.296  65.199  1.00  0.00     0.000 HD 
HETATM    8  N   UNL     1      -8.738  13.182  67.024  1.00  0.00    -0.209 N  
HETATM    9  O   UNL     1     -10.605  13.722  65.786  1.00  0.00    -0.281 OA 
HETATM   10  C   UNL     1      -8.273  10.894  67.399  1.00  0.00    -0.117 C  
HETATM   11  C   UNL     1      -8.015  12.182  67.635  1.00  0.00    -0.157 C  
ENDROOT
BRANCH   8  12
HETATM   12  C   UNL     1      -8.554  14.612  67.293  1.00  0.00    -0.214 C  
HETATM   13  O   UNL     1      -7.203  14.959  66.901  1.00  0.00    -0.074 OA 
HETATM   14  C   UNL     1      -6.370  15.014  68.071  1.00  0.00    -0.149 C  
HETATM   15  C   UNL     1      -7.276  15.267  69.271  1.00  0.00    -0.184 C  
HETATM   16  F   UNL     1      -9.157  16.495  68.594  1.00  0.00    -0.202 F  
HETATM   17  C   UNL     1      -8.687  15.215  68.698  1.00  0.00    -0.174 C  
HETATM   18  O   UNL     1      -6.981  16.546  69.862  1.00  0.00    -0.014 OA 
HETATM   19  F   UNL     1      -9.534  14.580  69.529  1.00  0.00    -0.076 F  
HETATM   20  H   UNL     1      -7.546  16.703  70.610  1.00  0.00     0.000 HD 
BRANCH  14  21
HETATM   21  C   UNL     1      -5.629  13.674  68.185  1.00  0.00    -0.115 C  
HETATM   22  O   UNL     1      -5.551  13.264  69.547  1.00  0.00    -0.079 OA 
HETATM   23  H   UNL     1      -5.093  12.435  69.618  1.00  0.00     0.000 HD 
ENDBRANCH  14  21
ENDBRANCH   8  12
TORSDOF 2
ENDMDL
MODEL      190
REMARK 921   NORMALIZED FREE ENERGY PREDICTED BY IDOCK:   -2.02 KCAL/MOL
REMARK 922        TOTAL FREE ENERGY PREDICTED BY IDOCK:   -2.41 KCAL/MOL
REMARK 923 INTER-LIGAND FREE ENERGY PREDICTED BY IDOCK:   -2.36 KCAL/MOL
REMARK 924 INTRA-LIGAND FREE ENERGY PREDICTED BY IDOCK:   -0.05 KCAL/MOL
REMARK 927      BINDING AFFINITY PREDICTED BY RF-SCORE:    0.00 PKD
ROOT
HETATM    1  N   UNL     1     -12.366   9.834  70.706  1.00  0.00    -0.427 NA 
HETATM    2  H2  UNL     1     -12.796   9.834  71.632  1.00  0.00     0.000 HD 
HETATM    3  C   UNL     1     -11.349   8.977  70.395  1.00  0.00    -0.210 C  
HETATM    4  H1  UNL     1     -12.677  10.473  69.975  1.00  0.00     0.000 HD 
HETATM    5  N   UNL     1     -10.954   8.166  71.323  1.00  0.00    -0.235 N  
HETATM    6  C   UNL     1      -9.939   7.277  71.075  1.00  0.00    -0.187 C  
HETATM    7  H   UNL     1     -11.399   8.188  72.241  1.00  0.00     0.000 HD 
HETATM    8  N   UNL     1      -9.236   7.375  69.856  1.00  0.00    -0.145 N  
HETATM    9  O   UNL     1      -9.651   6.429  71.915  1.00  0.00    -0.154 OA 
HETATM   10  C   UNL     1     -10.751   9.004  69.053  1.00  0.00    -0.163 C  
HETATM   11  C   UNL     1      -9.699   8.207  68.860  1.00  0.00    -0.156 C  
ENDROOT
BRANCH   8  12
HETATM   12  C   UNL     1      -8.133   6.423  69.687  1.00  0.00    -0.124 C  
HETATM   13  O   UNL     1      -6.909   7.106  70.054  1.00  0.00    -0.053 OA 
HETATM   14  C   UNL     1      -6.229   7.531  68.861  1.00  0.00    -0.035 C  
HETATM   15  C   UNL     1      -6.702   6.641  67.718  1.00  0.00    -0.071 C  
HETATM   16  F   UNL     1      -7.285   4.528  68.552  1.00  0.00    -0.056 F  
HETATM   17  C   UNL     1      -7.795   5.778  68.336  1.00  0.00    -0.101 C  
HETATM   18  O   UNL     1      -5.612   5.850  67.213  1.00  0.00    -0.014 OA 
HETATM   19  F   UNL     1      -8.830   5.612  67.493  1.00  0.00    -0.110 F  
HETATM   20  H   UNL     1      -5.907   5.296  66.500  1.00  0.00     0.000 HD 
BRANCH  14  21
HETATM   21  C   UNL     1      -6.578   9.007  68.622  1.00  0.00    -0.054 C  
HETATM   22  O   UNL     1      -6.695   9.269  67.226  1.00  0.00    -0.067 OA 
HETATM   23  H   UNL     1      -6.911  10.182  67.078  1.00  0.00     0.000 HD 
ENDBRANCH  14  21
ENDBRANCH   8  12
TORSDOF 2
ENDMDL
MODEL      191
REMARK 921   NORMALIZED FREE ENERGY PREDICTED BY IDOCK:   -1.95 KCAL/MOL
REMARK 922        TOTAL FREE ENERGY PREDICTED BY IDOCK:   -2.33 KCAL/MOL
REMARK 923 INTER-LIGAND FREE ENERGY PREDICTED BY IDOCK:   -3.01 KCAL/MOL
REMARK 924 INTRA-LIGAND FREE ENERGY PREDICTED BY IDOCK:    0.68 KCAL/MOL
REMARK 927      BINDING AFFINITY PREDICTED BY RF-SCORE:    0.00 PKD
ROOT
HETATM    1  N   UNL     1      -9.667   9.943  68.520  1.00  0.00    -0.151 NA 
HETATM    2  H2  UNL     1      -9.931  10.887  68.804  1.00  0.00     0.000 HD 
HETATM    3  C   UNL     1      -9.584   8.924  69.426  1.00  0.00    -0.163 C  
HETATM    4  H1  UNL     1      -9.453   9.719  67.548  1.00  0.00     0.000 HD 
HETATM    5  N   UNL     1      -9.856   9.208  70.660  1.00  0.00    -0.228 N  
HETATM    6  C   UNL     1      -9.795   8.230  71.621  1.00  0.00    -0.199 C  
HETATM    7  H   UNL     1     -10.115  10.160  70.918  1.00  0.00     0.000 HD 
HETATM    8  N   UNL     1      -9.281   6.965  71.268  1.00  0.00    -0.157 N  
HETATM    9  O   UNL     1     -10.171   8.473  72.765  1.00  0.00    -0.256 OA 
HETATM   10  C   UNL     1      -9.198   7.578  68.984  1.00  0.00    -0.146 C  
HETATM   11  C   UNL     1      -9.044   6.663  69.944  1.00  0.00    -0.143 C  
ENDROOT
BRANCH   8  12
HETATM   12  C   UNL     1      -9.201   5.990  72.360  1.00  0.00    -0.142 C  
HETATM   13  O   UNL     1      -8.078   5.117  72.084  1.00  0.00    -0.109 OA 
HETATM   14  C   UNL     1      -8.563   3.886  71.522  1.00  0.00    -0.096 C  
HETATM   15  C   UNL     1     -10.015   3.722  71.956  1.00  0.00    -0.168 C  
HETATM   16  F   UNL     1     -10.341   4.764  74.033  1.00  0.00    -0.184 F  
HETATM   17  C   UNL     1     -10.341   5.017  72.689  1.00  0.00    -0.199 C  
HETATM   18  O   UNL     1     -10.157   2.571  72.808  1.00  0.00    -0.129 OA 
HETATM   19  F   UNL     1     -11.581   5.451  72.397  1.00  0.00    -0.311 F  
HETATM   20  H   UNL     1     -11.062   2.468  73.078  1.00  0.00     0.000 HD 
BRANCH  14  21
HETATM   21  C   UNL     1      -8.428   3.980  69.996  1.00  0.00    -0.064 C  
HETATM   22  O   UNL     1      -9.455   3.224  69.359  1.00  0.00    -0.167 OA 
HETATM   23  H   UNL     1      -9.371   3.282  68.415  1.00  0.00     0.000 HD 
ENDBRANCH  14  21
ENDBRANCH   8  12
TORSDOF 2
ENDMDL
MODEL      192
REMARK 921   NORMALIZED FREE ENERGY PREDICTED BY IDOCK:   -1.79 KCAL/MOL
REMARK 922        TOTAL FREE ENERGY PREDICTED BY IDOCK:   -2.16 KCAL/MOL
REMARK 923 INTER-LIGAND FREE ENERGY PREDICTED BY IDOCK:   -2.16 KCAL/MOL
REMARK 924 INTRA-LIGAND FREE ENERGY PREDICTED BY IDOCK:   -0.00 KCAL/MOL
REMARK 927      BINDING AFFINITY PREDICTED BY RF-SCORE:    0.00 PKD
ROOT
HETATM    1  N   UNL     1     -10.584   8.288  70.191  1.00  0.00    -0.230 NA 
HETATM    2  H2  UNL     1     -11.033   7.479  70.620  1.00  0.00     0.000 HD 
HETATM    3  C   UNL     1     -10.165   8.264  68.892  1.00  0.00    -0.210 C  
HETATM    4  H1  UNL     1     -10.428   9.150  70.714  1.00  0.00     0.000 HD 
HETATM    5  N   UNL     1     -10.363   7.171  68.228  1.00  0.00    -0.188 N  
HETATM    6  C   UNL     1      -9.969   7.080  66.916  1.00  0.00    -0.217 C  
HETATM    7  H   UNL     1     -10.813   6.375  68.680  1.00  0.00     0.000 HD 
HETATM    8  N   UNL     1      -9.210   8.132  66.364  1.00  0.00    -0.187 N  
HETATM    9  O   UNL     1     -10.268   6.089  66.255  1.00  0.00    -0.105 OA 
HETATM   10  C   UNL     1      -9.519   9.446  68.306  1.00  0.00    -0.147 C  
HETATM   11  C   UNL     1      -9.050   9.308  67.064  1.00  0.00    -0.130 C  
ENDROOT
BRANCH   8  12
HETATM   12  C   UNL     1      -8.784   7.939  64.973  1.00  0.00     0.104 C  
HETATM   13  O   UNL     1      -7.867   6.817  64.950  1.00  0.00    -0.106 OA 
HETATM   14  C   UNL     1      -6.517   7.311  64.901  1.00  0.00    -0.037 C  
HETATM   15  C   UNL     1      -6.562   8.719  64.319  1.00  0.00    -0.071 C  
HETATM   16  F   UNL     1      -8.383   8.909  62.853  1.00  0.00    -0.162 F  
HETATM   17  C   UNL     1      -8.048   9.023  64.174  1.00  0.00    -0.157 C  
HETATM   18  O   UNL     1      -5.877   8.762  63.054  1.00  0.00    -0.083 OA 
HETATM   19  F   UNL     1      -8.329  10.293  64.516  1.00  0.00    -0.150 F  
HETATM   20  H   UNL     1      -5.905   9.639  62.692  1.00  0.00     0.000 HD 
BRANCH  14  21
HETATM   21  C   UNL     1      -5.960   7.299  66.332  1.00  0.00    -0.036 C  
HETATM   22  O   UNL     1      -5.755   8.631  66.795  1.00  0.00    -0.045 OA 
HETATM   23  H   UNL     1      -5.410   8.624  67.680  1.00  0.00     0.000 HD 
ENDBRANCH  14  21
ENDBRANCH   8  12
TORSDOF 2
ENDMDL
MODEL      193
REMARK 921   NORMALIZED FREE ENERGY PREDICTED BY IDOCK:   -1.79 KCAL/MOL
REMARK 922        TOTAL FREE ENERGY PREDICTED BY IDOCK:   -2.16 KCAL/MOL
REMARK 923 INTER-LIGAND FREE ENERGY PREDICTED BY IDOCK:   -2.04 KCAL/MOL
REMARK 924 INTRA-LIGAND FREE ENERGY PREDICTED BY IDOCK:   -0.12 KCAL/MOL
REMARK 927      BINDING AFFINITY PREDICTED BY RF-SCORE:    0.00 PKD
ROOT
HETATM    1  N   UNL     1      -8.547   5.211  73.189  1.00  0.00    -0.110 NA 
HETATM    2  H2  UNL     1      -9.179   5.470  73.947  1.00  0.00     0.000 HD 
HETATM    3  C   UNL     1      -8.566   5.868  71.992  1.00  0.00    -0.137 C  
HETATM    4  H1  UNL     1      -7.876   4.450  73.291  1.00  0.00     0.000 HD 
HETATM    5  N   UNL     1      -9.418   6.834  71.862  1.00  0.00    -0.147 N  
HETATM    6  C   UNL     1      -9.486   7.539  70.686  1.00  0.00    -0.164 C  
HETATM    7  H   UNL     1     -10.040   7.072  72.635  1.00  0.00     0.000 HD 
HETATM    8  N   UNL     1      -8.731   7.089  69.583  1.00  0.00    -0.141 N  
HETATM    9  O   UNL     1     -10.207   8.530  70.609  1.00  0.00    -0.190 OA 
HETATM   10  C   UNL     1      -7.645   5.468  70.920  1.00  0.00    -0.090 C  
HETATM   11  C   UNL     1      -7.793   6.094  69.750  1.00  0.00    -0.106 C  
ENDROOT
BRANCH   8  12
HETATM   12  C   UNL     1      -8.897   7.864  68.348  1.00  0.00    -0.130 C  
HETATM   13  O   UNL     1     -10.002   7.283  67.614  1.00  0.00    -0.145 OA 
HETATM   14  C   UNL     1      -9.484   6.439  66.571  1.00  0.00    -0.156 C  
HETATM   15  C   UNL     1      -8.069   6.909  66.257  1.00  0.00    -0.112 C  
HETATM   16  F   UNL     1      -7.888   9.209  66.683  1.00  0.00    -0.096 F  
HETATM   17  C   UNL     1      -7.789   7.989  67.294  1.00  0.00    -0.109 C  
HETATM   18  O   UNL     1      -7.996   7.420  64.914  1.00  0.00    -0.120 OA 
HETATM   19  F   UNL     1      -6.528   7.914  67.759  1.00  0.00    -0.046 F  
HETATM   20  H   UNL     1      -7.113   7.713  64.718  1.00  0.00     0.000 HD 
BRANCH  14  21
HETATM   21  C   UNL     1      -9.507   4.991  67.083  1.00  0.00    -0.136 C  
HETATM   22  O   UNL     1     -10.606   4.796  67.969  1.00  0.00     0.093 OA 
HETATM   23  H   UNL     1     -10.620   3.900  68.285  1.00  0.00     0.000 HD 
ENDBRANCH  14  21
ENDBRANCH   8  12
TORSDOF 2
ENDMDL
MODEL      194
REMARK 921   NORMALIZED FREE ENERGY PREDICTED BY IDOCK:   -1.56 KCAL/MOL
REMARK 922        TOTAL FREE ENERGY PREDICTED BY IDOCK:   -1.90 KCAL/MOL
REMARK 923 INTER-LIGAND FREE ENERGY PREDICTED BY IDOCK:   -2.70 KCAL/MOL
REMARK 924 INTRA-LIGAND FREE ENERGY PREDICTED BY IDOCK:    0.80 KCAL/MOL
REMARK 927      BINDING AFFINITY PREDICTED BY RF-SCORE:    0.00 PKD
ROOT
HETATM    1  N   UNL     1     -11.232   2.851  63.732  1.00  0.00    -0.548 NA 
HETATM    2  H2  UNL     1     -10.931   2.370  62.883  1.00  0.00     0.000 HD 
HETATM    3  C   UNL     1     -10.473   3.835  64.299  1.00  0.00    -0.241 C  
HETATM    4  H1  UNL     1     -12.111   2.618  64.193  1.00  0.00     0.000 HD 
HETATM    5  N   UNL     1      -9.357   4.131  63.714  1.00  0.00    -0.147 N  
HETATM    6  C   UNL     1      -8.548   5.113  64.230  1.00  0.00    -0.110 C  
HETATM    7  H   UNL     1      -9.078   3.634  62.868  1.00  0.00     0.000 HD 
HETATM    8  N   UNL     1      -8.877   5.671  65.483  1.00  0.00    -0.151 N  
HETATM    9  O   UNL     1      -7.554   5.475  63.607  1.00  0.00    -0.061 OA 
HETATM   10  C   UNL     1     -10.934   4.505  65.522  1.00  0.00     0.049 C  
HETATM   11  C   UNL     1     -10.091   5.384  66.068  1.00  0.00    -0.075 C  
ENDROOT
BRANCH   8  12
HETATM   12  C   UNL     1      -7.937   6.677  65.990  1.00  0.00    -0.112 C  
HETATM   13  O   UNL     1      -8.119   6.758  67.425  1.00  0.00    -0.116 OA 
HETATM   14  C   UNL     1      -8.930   7.904  67.735  1.00  0.00    -0.128 C  
HETATM   15  C   UNL     1      -8.804   8.885  66.575  1.00  0.00    -0.136 C  
HETATM   16  F   UNL     1      -6.699   8.649  65.567  1.00  0.00    -0.060 F  
HETATM   17  C   UNL     1      -7.970   8.144  65.539  1.00  0.00    -0.112 C  
HETATM   18  O   UNL     1      -8.165  10.099  67.013  1.00  0.00    -0.117 OA 
HETATM   19  F   UNL     1      -8.424   8.361  64.291  1.00  0.00    -0.167 F  
HETATM   20  H   UNL     1      -8.086  10.711  66.290  1.00  0.00     0.000 HD 
BRANCH  14  21
HETATM   21  C   UNL     1     -10.376   7.420  67.922  1.00  0.00    -0.204 C  
HETATM   22  O   UNL     1     -10.778   7.572  69.280  1.00  0.00    -0.262 OA 
HETATM   23  H   UNL     1     -11.672   7.273  69.396  1.00  0.00     0.000 HD 
ENDBRANCH  14  21
ENDBRANCH   8  12
TORSDOF 2
ENDMDL
MODEL      195
REMARK 921   NORMALIZED FREE ENERGY PREDICTED BY IDOCK:   -1.45 KCAL/MOL
REMARK 922        TOTAL FREE ENERGY PREDICTED BY IDOCK:   -1.78 KCAL/MOL
REMARK 923 INTER-LIGAND FREE ENERGY PREDICTED BY IDOCK:   -4.82 KCAL/MOL
REMARK 924 INTRA-LIGAND FREE ENERGY PREDICTED BY IDOCK:    3.04 KCAL/MOL
REMARK 927      BINDING AFFINITY PREDICTED BY RF-SCORE:    0.00 PKD
ROOT
HETATM    1  N   UNL     1     -10.874   9.702  69.299  1.00  0.00    -0.274 NA 
HETATM    2  H2  UNL     1     -10.075   9.108  69.076  1.00  0.00     0.000 HD 
HETATM    3  C   UNL     1     -10.837  11.052  69.093  1.00  0.00    -0.237 C  
HETATM    4  H1  UNL     1     -11.734   9.314  69.686  1.00  0.00     0.000 HD 
HETATM    5  N   UNL     1      -9.745  11.544  68.602  1.00  0.00    -0.279 N  
HETATM    6  C   UNL     1      -9.643  12.892  68.367  1.00  0.00    -0.176 C  
HETATM    7  H   UNL     1      -8.959  10.929  68.390  1.00  0.00     0.000 HD 
HETATM    8  N   UNL     1     -10.678  13.738  68.816  1.00  0.00    -0.251 N  
HETATM    9  O   UNL     1      -8.655  13.339  67.789  1.00  0.00    -0.160 OA 
HETATM   10  C   UNL     1     -12.005  11.878  69.427  1.00  0.00    -0.350 C  
HETATM   11  C   UNL     1     -11.853  13.197  69.289  1.00  0.00    -0.323 C  
ENDROOT
BRANCH   8  12
HETATM   12  C   UNL     1     -10.472  15.170  68.573  1.00  0.00    -0.233 C  
HETATM   13  O   UNL     1     -11.328  15.552  67.467  1.00  0.00    -0.314 OA 
HETATM   14  C   UNL     1     -10.544  15.617  66.264  1.00  0.00    -0.307 C  
HETATM   15  C   UNL     1      -9.092  15.839  66.670  1.00  0.00    -0.268 C  
HETATM   16  F   UNL     1      -9.011  17.028  68.691  1.00  0.00    -0.237 F  
HETATM   17  C   UNL     1      -9.107  15.758  68.191  1.00  0.00    -0.185 C  
HETATM   18  O   UNL     1      -8.630  17.120  66.203  1.00  0.00    -0.406 OA 
HETATM   19  F   UNL     1      -8.034  15.097  68.661  1.00  0.00    -0.124 F  
HETATM   20  H   UNL     1      -7.725  17.258  66.456  1.00  0.00     0.000 HD 
BRANCH  14  21
HETATM   21  C   UNL     1     -10.732  14.294  65.508  1.00  0.00    -0.331 C  
HETATM   22  O   UNL     1     -11.993  13.713  65.831  1.00  0.00    -0.362 OA 
HETATM   23  H   UNL     1     -12.109  12.895  65.363  1.00  0.00     0.000 HD 
ENDBRANCH  14  21
ENDBRANCH   8  12
TORSDOF 2
ENDMDL
MODEL      196
REMARK 921   NORMALIZED FREE ENERGY PREDICTED BY IDOCK:   -1.44 KCAL/MOL
REMARK 922        TOTAL FREE ENERGY PREDICTED BY IDOCK:   -1.76 KCAL/MOL
REMARK 923 INTER-LIGAND FREE ENERGY PREDICTED BY IDOCK:   -2.48 KCAL/MOL
REMARK 924 INTRA-LIGAND FREE ENERGY PREDICTED BY IDOCK:    0.71 KCAL/MOL
REMARK 927      BINDING AFFINITY PREDICTED BY RF-SCORE:    0.00 PKD
ROOT
HETATM    1  N   UNL     1      -9.282   4.334  72.515  1.00  0.00    -0.114 NA 
HETATM    2  H2  UNL     1      -9.281   4.218  73.528  1.00  0.00     0.000 HD 
HETATM    3  C   UNL     1      -9.063   5.551  71.937  1.00  0.00    -0.138 C  
HETATM    4  H1  UNL     1      -9.447   3.545  71.889  1.00  0.00     0.000 HD 
HETATM    5  N   UNL     1      -8.853   6.552  72.731  1.00  0.00    -0.124 N  
HETATM    6  C   UNL     1      -8.622   7.803  72.216  1.00  0.00    -0.132 C  
HETATM    7  H   UNL     1      -8.860   6.411  73.741  1.00  0.00     0.000 HD 
HETATM    8  N   UNL     1      -8.777   8.003  70.828  1.00  0.00    -0.135 N  
HETATM    9  O   UNL     1      -8.303   8.723  72.964  1.00  0.00    -0.412 OA 
HETATM   10  C   UNL     1      -9.074   5.683  70.474  1.00  0.00    -0.164 C  
HETATM   11  C   UNL     1      -8.950   6.921  69.992  1.00  0.00    -0.142 C  
ENDROOT
BRANCH   8  12
HETATM   12  C   UNL     1      -8.563   9.377  70.361  1.00  0.00    -0.230 C  
HETATM   13  O   UNL     1      -9.417   9.584  69.210  1.00  0.00    -0.155 OA 
HETATM   14  C   UNL     1      -8.635   9.453  68.011  1.00  0.00    -0.120 C  
HETATM   15  C   UNL     1      -7.181   9.728  68.377  1.00  0.00    -0.077 C  
HETATM   16  F   UNL     1      -7.090  11.221  70.184  1.00  0.00    -0.082 F  
HETATM   17  C   UNL     1      -7.195   9.889  69.892  1.00  0.00    -0.129 C  
HETATM   18  O   UNL     1      -6.712  10.916  67.713  1.00  0.00    -0.063 OA 
HETATM   19  F   UNL     1      -6.125   9.304  70.460  1.00  0.00    -0.035 F  
HETATM   20  H   UNL     1      -5.806  11.087  67.941  1.00  0.00     0.000 HD 
BRANCH  14  21
HETATM   21  C   UNL     1      -8.832   8.029  67.474  1.00  0.00    -0.128 C  
HETATM   22  O   UNL     1      -8.019   7.816  66.323  1.00  0.00    -0.094 OA 
HETATM   23  H   UNL     1      -8.140   6.934  65.991  1.00  0.00     0.000 HD 
ENDBRANCH  14  21
ENDBRANCH   8  12
TORSDOF 2
ENDMDL
MODEL      197
REMARK 921   NORMALIZED FREE ENERGY PREDICTED BY IDOCK:   -1.34 KCAL/MOL
REMARK 922        TOTAL FREE ENERGY PREDICTED BY IDOCK:   -1.65 KCAL/MOL
REMARK 923 INTER-LIGAND FREE ENERGY PREDICTED BY IDOCK:   -1.58 KCAL/MOL
REMARK 924 INTRA-LIGAND FREE ENERGY PREDICTED BY IDOCK:   -0.07 KCAL/MOL
REMARK 927      BINDING AFFINITY PREDICTED BY RF-SCORE:    0.00 PKD
ROOT
HETATM    1  N   UNL     1      -7.091  15.357  68.040  1.00  0.00    -0.114 NA 
HETATM    2  H2  UNL     1      -6.551  15.886  67.354  1.00  0.00     0.000 HD 
HETATM    3  C   UNL     1      -7.060  13.993  68.072  1.00  0.00    -0.145 C  
HETATM    4  H1  UNL     1      -7.678  15.826  68.730  1.00  0.00     0.000 HD 
HETATM    5  N   UNL     1      -6.315  13.398  67.196  1.00  0.00    -0.054 N  
HETATM    6  C   UNL     1      -6.235  12.028  67.175  1.00  0.00    -0.151 C  
HETATM    7  H   UNL     1      -5.786  13.949  66.520  1.00  0.00     0.000 HD 
HETATM    8  N   UNL     1      -7.096  11.288  68.012  1.00  0.00    -0.068 N  
HETATM    9  O   UNL     1      -5.436  11.474  66.426  1.00  0.00    -0.175 OA 
HETATM   10  C   UNL     1      -7.853  13.263  69.071  1.00  0.00     0.210 C  
HETATM   11  C   UNL     1      -7.845  11.932  68.973  1.00  0.00     0.101 C  
ENDROOT
BRANCH   8  12
HETATM   12  C   UNL     1      -6.987   9.830  67.896  1.00  0.00    -0.078 C  
HETATM   13  O   UNL     1      -7.968   9.395  66.922  1.00  0.00    -0.107 OA 
HETATM   14  C   UNL     1      -9.120   8.879  67.610  1.00  0.00    -0.134 C  
HETATM   15  C   UNL     1      -8.671   8.447  69.001  1.00  0.00    -0.142 C  
HETATM   16  F   UNL     1      -6.424   7.779  68.934  1.00  0.00    -0.036 F  
HETATM   17  C   UNL     1      -7.215   8.884  69.083  1.00  0.00    -0.067 C  
HETATM   18  O   UNL     1      -8.816   7.023  69.155  1.00  0.00    -0.135 OA 
HETATM   19  F   UNL     1      -6.918   9.386  70.296  1.00  0.00    -0.048 F  
HETATM   20  H   UNL     1      -8.537   6.753  70.022  1.00  0.00     0.000 HD 
BRANCH  14  21
HETATM   21  C   UNL     1     -10.173   9.995  67.667  1.00  0.00    -0.204 C  
HETATM   22  O   UNL     1     -10.352  10.575  66.378  1.00  0.00    -0.232 OA 
HETATM   23  H   UNL     1     -11.004  11.266  66.414  1.00  0.00     0.000 HD 
ENDBRANCH  14  21
ENDBRANCH   8  12
TORSDOF 2
ENDMDL
MODEL      198
REMARK 921   NORMALIZED FREE ENERGY PREDICTED BY IDOCK:   -1.15 KCAL/MOL
REMARK 922        TOTAL FREE ENERGY PREDICTED BY IDOCK:   -1.45 KCAL/MOL
REMARK 923 INTER-LIGAND FREE ENERGY PREDICTED BY IDOCK:   -2.23 KCAL/MOL
REMARK 924 INTRA-LIGAND FREE ENERGY PREDICTED BY IDOCK:    0.79 KCAL/MOL
REMARK 927      BINDING AFFINITY PREDICTED BY RF-SCORE:    0.00 PKD
ROOT
HETATM    1  N   UNL     1      -7.533   8.713  73.617  1.00  0.00    -0.384 NA 
HETATM    2  H2  UNL     1      -7.951   9.644  73.626  1.00  0.00     0.000 HD 
HETATM    3  C   UNL     1      -7.934   7.761  72.724  1.00  0.00    -0.118 C  
HETATM    4  H1  UNL     1      -6.797   8.454  74.274  1.00  0.00     0.000 HD 
HETATM    5  N   UNL     1      -8.868   8.091  71.889  1.00  0.00    -0.129 N  
HETATM    6  C   UNL     1      -9.315   7.183  70.963  1.00  0.00    -0.158 C  
HETATM    7  H   UNL     1      -9.271   9.027  71.920  1.00  0.00     0.000 HD 
HETATM    8  N   UNL     1      -8.857   5.851  71.044  1.00  0.00    -0.138 N  
HETATM    9  O   UNL     1     -10.111   7.535  70.096  1.00  0.00    -0.192 OA 
HETATM   10  C   UNL     1      -7.313   6.431  72.740  1.00  0.00    -0.090 C  
HETATM   11  C   UNL     1      -7.829   5.528  71.903  1.00  0.00    -0.109 C  
ENDROOT
BRANCH   8  12
HETATM   12  C   UNL     1      -9.420   4.929  70.052  1.00  0.00    -0.166 C  
HETATM   13  O   UNL     1      -9.295   3.587  70.583  1.00  0.00    -0.130 OA 
HETATM   14  C   UNL     1      -8.157   2.945  69.983  1.00  0.00    -0.041 C  
HETATM   15  C   UNL     1      -7.880   3.643  68.657  1.00  0.00    -0.055 C  
HETATM   16  F   UNL     1      -9.884   4.485  67.774  1.00  0.00    -0.188 F  
HETATM   17  C   UNL     1      -8.864   4.806  68.626  1.00  0.00    -0.099 C  
HETATM   18  O   UNL     1      -8.086   2.735  67.559  1.00  0.00    -0.074 OA 
HETATM   19  F   UNL     1      -8.299   5.918  68.121  1.00  0.00    -0.111 F  
HETATM   20  H   UNL     1      -7.913   3.170  66.732  1.00  0.00     0.000 HD 
BRANCH  14  21
HETATM   21  C   UNL     1      -6.977   3.074  70.956  1.00  0.00    -0.033 C  
HETATM   22  O   UNL     1      -6.531   1.785  71.370  1.00  0.00    -0.018 OA 
HETATM   23  H   UNL     1      -5.801   1.865  71.972  1.00  0.00     0.000 HD 
ENDBRANCH  14  21
ENDBRANCH   8  12
TORSDOF 2
ENDMDL
MODEL      199
REMARK 921   NORMALIZED FREE ENERGY PREDICTED BY IDOCK:   -0.86 KCAL/MOL
REMARK 922        TOTAL FREE ENERGY PREDICTED BY IDOCK:   -1.12 KCAL/MOL
REMARK 923 INTER-LIGAND FREE ENERGY PREDICTED BY IDOCK:   -4.18 KCAL/MOL
REMARK 924 INTRA-LIGAND FREE ENERGY PREDICTED BY IDOCK:    3.06 KCAL/MOL
REMARK 927      BINDING AFFINITY PREDICTED BY RF-SCORE:    0.00 PKD
ROOT
HETATM    1  N   UNL     1     -11.787  14.580  68.910  1.00  0.00    -0.372 NA 
HETATM    2  H2  UNL     1     -11.396  15.200  68.200  1.00  0.00     0.000 HD 
HETATM    3  C   UNL     1     -11.573  13.232  68.874  1.00  0.00    -0.314 C  
HETATM    4  H1  UNL     1     -12.355  14.940  69.677  1.00  0.00     0.000 HD 
HETATM    5  N   UNL     1     -10.852  12.775  67.900  1.00  0.00    -0.214 N  
HETATM    6  C   UNL     1     -10.595  11.430  67.807  1.00  0.00    -0.195 C  
HETATM    7  H   UNL     1     -10.474  13.415  67.202  1.00  0.00     0.000 HD 
HETATM    8  N   UNL     1     -11.257  10.551  68.689  1.00  0.00    -0.268 N  
HETATM    9  O   UNL     1      -9.812  11.015  66.956  1.00  0.00    -0.177 OA 
HETATM   10  C   UNL     1     -12.152  12.368  69.910  1.00  0.00    -0.317 C  
HETATM   11  C   UNL     1     -11.979  11.054  69.749  1.00  0.00    -0.356 C  
ENDROOT
BRANCH   8  12
HETATM   12  C   UNL     1     -10.969   9.126  68.493  1.00  0.00     0.052 C  
HETATM   13  O   UNL     1     -10.185   8.680  69.627  1.00  0.00    -0.197 OA 
HETATM   14  C   UNL     1      -8.798   8.628  69.251  1.00  0.00    -0.137 C  
HETATM   15  C   UNL     1      -8.737   8.485  67.735  1.00  0.00    -0.137 C  
HETATM   16  F   UNL     1     -10.639   7.344  66.971  1.00  0.00    -0.318 F  
HETATM   17  C   UNL     1     -10.187   8.597  67.283  1.00  0.00    -0.268 C  
HETATM   18  O   UNL     1      -8.156   7.219  67.373  1.00  0.00    -0.110 OA 
HETATM   19  F   UNL     1     -10.299   9.319  66.154  1.00  0.00    -0.349 F  
HETATM   20  H   UNL     1      -8.117   7.130  66.428  1.00  0.00     0.000 HD 
BRANCH  14  21
HETATM   21  C   UNL     1      -8.131   9.924  69.733  1.00  0.00    -0.176 C  
HETATM   22  O   UNL     1      -7.467   9.708  70.975  1.00  0.00    -0.327 OA 
HETATM   23  H   UNL     1      -7.054  10.510  71.273  1.00  0.00     0.000 HD 
ENDBRANCH  14  21
ENDBRANCH   8  12
TORSDOF 2
ENDMDL
MODEL      200
REMARK 921   NORMALIZED FREE ENERGY PREDICTED BY IDOCK:   -0.74 KCAL/MOL
REMARK 922        TOTAL FREE ENERGY PREDICTED BY IDOCK:   -0.98 KCAL/MOL
REMARK 923 INTER-LIGAND FREE ENERGY PREDICTED BY IDOCK:   -2.41 KCAL/MOL
REMARK 924 INTRA-LIGAND FREE ENERGY PREDICTED BY IDOCK:    1.42 KCAL/MOL
REMARK 927      BINDING AFFINITY PREDICTED BY RF-SCORE:    0.00 PKD
ROOT
HETATM    1  N   UNL     1      -5.461  15.093  69.897  1.00  0.00    -0.105 NA 
HETATM    2  H2  UNL     1      -5.279  14.135  69.596  1.00  0.00     0.000 HD 
HETATM    3  C   UNL     1      -6.236  15.937  69.153  1.00  0.00    -0.140 C  
HETATM    4  H1  UNL     1      -5.073  15.461  70.765  1.00  0.00     0.000 HD 
HETATM    5  N   UNL     1      -6.728  15.469  68.051  1.00  0.00    -0.127 N  
HETATM    6  C   UNL     1      -7.518  16.262  67.258  1.00  0.00    -0.178 C  
HETATM    7  H   UNL     1      -6.529  14.508  67.772  1.00  0.00     0.000 HD 
HETATM    8  N   UNL     1      -7.647  17.629  67.583  1.00  0.00    -0.201 N  
HETATM    9  O   UNL     1      -8.083  15.780  66.279  1.00  0.00    -0.197 OA 
HETATM   10  C   UNL     1      -6.477  17.310  69.614  1.00  0.00    -0.165 C  
HETATM   11  C   UNL     1      -7.161  18.100  68.783  1.00  0.00    -0.279 C  
ENDROOT
BRANCH   8  12
HETATM   12  C   UNL     1      -8.466  18.422  66.660  1.00  0.00    -0.269 C  
HETATM   13  O   UNL     1      -8.504  19.779  67.166  1.00  0.00    -0.293 OA 
HETATM   14  C   UNL     1      -9.747  19.991  67.857  1.00  0.00    -0.390 C  
HETATM   15  C   UNL     1     -10.752  18.979  67.319  1.00  0.00    -0.470 C  
HETATM   16  F   UNL     1     -10.236  18.463  65.090  1.00  0.00     0.220 F  
HETATM   17  C   UNL     1      -9.940  18.102  66.375  1.00  0.00    -0.376 C  
HETATM   18  O   UNL     1     -11.826  19.653  66.639  1.00  0.00     0.903 OA 
HETATM   19  F   UNL     1     -10.288  16.807  66.482  1.00  0.00    -0.286 F  
HETATM   20  H   UNL     1     -12.453  19.022  66.303  1.00  0.00     0.000 HD 
BRANCH  14  21
HETATM   21  C   UNL     1      -9.488  19.799  69.359  1.00  0.00     0.046 C  
HETATM   22  O   UNL     1     -10.122  18.611  69.824  1.00  0.00    -0.096 OA 
HETATM   23  H   UNL     1      -9.962  18.493  70.753  1.00  0.00     0.000 HD 
ENDBRANCH  14  21
ENDBRANCH   8  12
TORSDOF 2
ENDMDL
MODEL      201
REMARK 921   NORMALIZED FREE ENERGY PREDICTED BY IDOCK:   -0.67 KCAL/MOL
REMARK 922        TOTAL FREE ENERGY PREDICTED BY IDOCK:   -0.91 KCAL/MOL
REMARK 923 INTER-LIGAND FREE ENERGY PREDICTED BY IDOCK:   -1.56 KCAL/MOL
REMARK 924 INTRA-LIGAND FREE ENERGY PREDICTED BY IDOCK:    0.65 KCAL/MOL
REMARK 927      BINDING AFFINITY PREDICTED BY RF-SCORE:    0.00 PKD
ROOT
HETATM    1  N   UNL     1      -9.630  10.458  70.847  1.00  0.00     0.496 NA 
HETATM    2  H2  UNL     1      -9.680   9.545  71.300  1.00  0.00     0.000 HD 
HETATM    3  C   UNL     1      -9.948  10.617  69.528  1.00  0.00    -0.106 C  
HETATM    4  H1  UNL     1      -9.341  11.291  71.359  1.00  0.00     0.000 HD 
HETATM    5  N   UNL     1     -10.316   9.559  68.878  1.00  0.00    -0.202 N  
HETATM    6  C   UNL     1     -10.653   9.649  67.551  1.00  0.00    -0.277 C  
HETATM    7  H   UNL     1     -10.356   8.657  69.354  1.00  0.00     0.000 HD 
HETATM    8  N   UNL     1     -10.437  10.871  66.879  1.00  0.00    -0.239 N  
HETATM    9  O   UNL     1     -11.118   8.672  66.971  1.00  0.00     0.071 OA 
HETATM   10  C   UNL     1      -9.863  11.945  68.907  1.00  0.00     0.008 C  
HETATM   11  C   UNL     1     -10.094  11.998  67.594  1.00  0.00    -0.197 C  
ENDROOT
BRANCH   8  12
HETATM   12  C   UNL     1     -10.774  10.873  65.452  1.00  0.00    -0.119 C  
HETATM   13  O   UNL     1     -10.473   9.555  64.931  1.00  0.00     0.707 OA 
HETATM   14  C   UNL     1      -9.208   9.594  64.249  1.00  0.00    -0.178 C  
HETATM   15  C   UNL     1      -8.955  11.037  63.829  1.00  0.00    -0.064 C  
HETATM   16  F   UNL     1     -11.002  12.121  63.454  1.00  0.00    -0.406 F  
HETATM   17  C   UNL     1     -10.108  11.820  64.444  1.00  0.00    -0.282 C  
HETATM   18  O   UNL     1      -8.936  11.146  62.394  1.00  0.00    -0.319 OA 
HETATM   19  F   UNL     1      -9.696  13.002  64.938  1.00  0.00    -0.197 F  
HETATM   20  H   UNL     1      -8.778  12.046  62.132  1.00  0.00     0.000 HD 
BRANCH  14  21
HETATM   21  C   UNL     1      -8.134   9.083  65.220  1.00  0.00    -0.126 C  
HETATM   22  O   UNL     1      -8.490   7.798  65.721  1.00  0.00    -0.133 OA 
HETATM   23  H   UNL     1      -7.825   7.482  66.322  1.00  0.00     0.000 HD 
ENDBRANCH  14  21
ENDBRANCH   8  12
TORSDOF 2
ENDMDL
MODEL      202
REMARK 921   NORMALIZED FREE ENERGY PREDICTED BY IDOCK:   -0.64 KCAL/MOL
REMARK 922        TOTAL FREE ENERGY PREDICTED BY IDOCK:   -0.87 KCAL/MOL
REMARK 923 INTER-LIGAND FREE ENERGY PREDICTED BY IDOCK:   -1.39 KCAL/MOL
REMARK 924 INTRA-LIGAND FREE ENERGY PREDICTED BY IDOCK:    0.52 KCAL/MOL
REMARK 927      BINDING AFFINITY PREDICTED BY RF-SCORE:    0.00 PKD
ROOT
HETATM    1  N   UNL     1      -9.738  14.339  65.059  1.00  0.00    -0.492 NA 
HETATM    2  H2  UNL     1     -10.300  14.310  64.208  1.00  0.00     0.000 HD 
HETATM    3  C   UNL     1      -9.639  15.477  65.808  1.00  0.00    -0.332 C  
HETATM    4  H1  UNL     1      -9.225  13.521  65.387  1.00  0.00     0.000 HD 
HETATM    5  N   UNL     1     -10.290  16.516  65.393  1.00  0.00    -0.278 N  
HETATM    6  C   UNL     1     -10.237  17.691  66.101  1.00  0.00    -0.343 C  
HETATM    7  H   UNL     1     -10.844  16.461  64.538  1.00  0.00     0.000 HD 
HETATM    8  N   UNL     1      -9.342  17.786  67.186  1.00  0.00    -0.258 N  
HETATM    9  O   UNL     1     -10.951  18.635  65.773  1.00  0.00    -0.196 OA 
HETATM   10  C   UNL     1      -8.819  15.485  67.027  1.00  0.00    -0.255 C  
HETATM   11  C   UNL     1      -8.695  16.660  67.647  1.00  0.00    -0.202 C  
ENDROOT
BRANCH   8  12
HETATM   12  C   UNL     1      -9.306  19.089  67.860  1.00  0.00    -0.308 C  
HETATM   13  O   UNL     1      -7.935  19.556  67.834  1.00  0.00    -0.285 OA 
HETATM   14  C   UNL     1      -7.323  19.299  69.109  1.00  0.00    -0.306 C  
HETATM   15  C   UNL     1      -8.439  19.193  70.142  1.00  0.00     1.479 C  
HETATM   16  F   UNL     1     -10.254  20.525  69.484  1.00  0.00    -0.243 F  
HETATM   17  C   UNL     1      -9.722  19.276  69.325  1.00  0.00    -0.233 C  
HETATM   18  O   UNL     1      -8.340  20.263  71.100  1.00  0.00     1.232 OA 
HETATM   19  F   UNL     1     -10.655  18.419  69.782  1.00  0.00     0.045 F  
HETATM   20  H   UNL     1      -9.036  20.196  71.744  1.00  0.00     0.000 HD 
BRANCH  14  21
HETATM   21  C   UNL     1      -6.523  17.994  68.993  1.00  0.00    -0.240 C  
HETATM   22  O   UNL     1      -5.130  18.251  69.145  1.00  0.00    -0.177 OA 
HETATM   23  H   UNL     1      -4.635  17.444  69.074  1.00  0.00     0.000 HD 
ENDBRANCH  14  21
ENDBRANCH   8  12
TORSDOF 2
ENDMDL
MODEL      203
REMARK 921   NORMALIZED FREE ENERGY PREDICTED BY IDOCK:   -0.62 KCAL/MOL
REMARK 922        TOTAL FREE ENERGY PREDICTED BY IDOCK:   -0.85 KCAL/MOL
REMARK 923 INTER-LIGAND FREE ENERGY PREDICTED BY IDOCK:   -4.26 KCAL/MOL
REMARK 924 INTRA-LIGAND FREE ENERGY PREDICTED BY IDOCK:    3.41 KCAL/MOL
REMARK 927      BINDING AFFINITY PREDICTED BY RF-SCORE:    0.00 PKD
ROOT
HETATM    1  N   UNL     1     -12.613   9.050  72.638  1.00  0.00    -0.296 NA 
HETATM    2  H2  UNL     1     -13.628   9.117  72.552  1.00  0.00     0.000 HD 
HETATM    3  C   UNL     1     -11.786   9.427  71.619  1.00  0.00    -0.394 C  
HETATM    4  H1  UNL     1     -12.174   8.698  73.489  1.00  0.00     0.000 HD 
HETATM    5  N   UNL     1     -12.345   9.873  70.540  1.00  0.00    -0.468 N  
HETATM    6  C   UNL     1     -11.571  10.272  69.478  1.00  0.00    -0.168 C  
HETATM    7  H   UNL     1     -13.362   9.929  70.478  1.00  0.00     0.000 HD 
HETATM    8  N   UNL     1     -10.182  10.036  69.528  1.00  0.00    -0.219 N  
HETATM    9  O   UNL     1     -12.097  10.808  68.507  1.00  0.00    -0.493 OA 
HETATM   10  C   UNL     1     -10.330   9.314  71.775  1.00  0.00    -0.204 C  
HETATM   11  C   UNL     1      -9.597   9.608  70.700  1.00  0.00    -0.147 C  
ENDROOT
BRANCH   8  12
HETATM   12  C   UNL     1      -9.431  10.444  68.335  1.00  0.00    -0.149 C  
HETATM   13  O   UNL     1      -8.914  11.776  68.580  1.00  0.00    -0.180 OA 
HETATM   14  C   UNL     1      -9.755  12.737  67.921  1.00  0.00    -0.217 C  
HETATM   15  C   UNL     1     -10.476  12.018  66.786  1.00  0.00    -0.214 C  
HETATM   16  F   UNL     1      -9.143  10.258  65.994  1.00  0.00    -0.159 F  
HETATM   17  C   UNL     1     -10.077  10.558  66.948  1.00  0.00    -0.216 C  
HETATM   18  O   UNL     1     -10.066  12.552  65.514  1.00  0.00    -0.267 OA 
HETATM   19  F   UNL     1     -11.115   9.733  66.717  1.00  0.00    -0.194 F  
HETATM   20  H   UNL     1     -10.516  12.104  64.806  1.00  0.00     0.000 HD 
BRANCH  14  21
HETATM   21  C   UNL     1     -10.736  13.296  68.961  1.00  0.00    -0.121 C  
HETATM   22  O   UNL     1     -10.056  14.154  69.874  1.00  0.00    -0.156 OA 
HETATM   23  H   UNL     1     -10.664  14.499  70.517  1.00  0.00     0.000 HD 
ENDBRANCH  14  21
ENDBRANCH   8  12
TORSDOF 2
ENDMDL
MODEL      204
REMARK 921   NORMALIZED FREE ENERGY PREDICTED BY IDOCK:   -0.58 KCAL/MOL
REMARK 922        TOTAL FREE ENERGY PREDICTED BY IDOCK:   -0.81 KCAL/MOL
REMARK 923 INTER-LIGAND FREE ENERGY PREDICTED BY IDOCK:   -1.76 KCAL/MOL
REMARK 924 INTRA-LIGAND FREE ENERGY PREDICTED BY IDOCK:    0.95 KCAL/MOL
REMARK 927      BINDING AFFINITY PREDICTED BY RF-SCORE:    0.00 PKD
ROOT
HETATM    1  N   UNL     1     -10.927  14.802  64.382  1.00  0.00    -0.618 NA 
HETATM    2  H2  UNL     1     -11.582  15.541  64.125  1.00  0.00     0.000 HD 
HETATM    3  C   UNL     1      -9.987  14.990  65.354  1.00  0.00    -0.330 C  
HETATM    4  H1  UNL     1     -10.946  13.891  63.924  1.00  0.00     0.000 HD 
HETATM    5  N   UNL     1      -9.963  16.147  65.936  1.00  0.00    -0.338 N  
HETATM    6  C   UNL     1      -9.046  16.402  66.925  1.00  0.00    -0.216 C  
HETATM    7  H   UNL     1     -10.628  16.870  65.659  1.00  0.00     0.000 HD 
HETATM    8  N   UNL     1      -8.039  15.446  67.176  1.00  0.00    -0.200 N  
HETATM    9  O   UNL     1      -9.105  17.453  67.557  1.00  0.00    -0.230 OA 
HETATM   10  C   UNL     1      -9.058  13.906  65.698  1.00  0.00     0.621 C  
HETATM   11  C   UNL     1      -8.107  14.202  66.587  1.00  0.00     0.479 C  
ENDROOT
BRANCH   8  12
HETATM   12  C   UNL     1      -7.067  15.813  68.211  1.00  0.00    -0.113 C  
HETATM   13  O   UNL     1      -5.765  15.357  67.768  1.00  0.00    -0.137 OA 
HETATM   14  C   UNL     1      -5.444  14.124  68.433  1.00  0.00    -0.107 C  
HETATM   15  C   UNL     1      -6.260  14.068  69.719  1.00  0.00    -0.137 C  
HETATM   16  F   UNL     1      -6.652  16.245  70.501  1.00  0.00     0.078 F  
HETATM   17  C   UNL     1      -7.157  15.297  69.654  1.00  0.00    -0.187 C  
HETATM   18  O   UNL     1      -5.391  14.095  70.866  1.00  0.00    -0.116 OA 
HETATM   19  F   UNL     1      -8.397  15.028  70.102  1.00  0.00    -0.059 F  
HETATM   20  H   UNL     1      -5.899  14.060  71.668  1.00  0.00     0.000 HD 
BRANCH  14  21
HETATM   21  C   UNL     1      -5.795  12.971  67.481  1.00  0.00    -0.092 C  
HETATM   22  O   UNL     1      -6.721  12.082  68.098  1.00  0.00    -0.057 OA 
HETATM   23  H   UNL     1      -6.938  11.369  67.509  1.00  0.00     0.000 HD 
ENDBRANCH  14  21
ENDBRANCH   8  12
TORSDOF 2
ENDMDL
MODEL      205
REMARK 921   NORMALIZED FREE ENERGY PREDICTED BY IDOCK:   -0.09 KCAL/MOL
REMARK 922        TOTAL FREE ENERGY PREDICTED BY IDOCK:   -0.25 KCAL/MOL
REMARK 923 INTER-LIGAND FREE ENERGY PREDICTED BY IDOCK:   -3.30 KCAL/MOL
REMARK 924 INTRA-LIGAND FREE ENERGY PREDICTED BY IDOCK:    3.05 KCAL/MOL
REMARK 927      BINDING AFFINITY PREDICTED BY RF-SCORE:    0.00 PKD
ROOT
HETATM    1  N   UNL     1     -11.281   5.428  71.741  1.00  0.00    -0.095 NA 
HETATM    2  H2  UNL     1     -10.616   4.656  71.799  1.00  0.00     0.000 HD 
HETATM    3  C   UNL     1     -10.932   6.628  71.189  1.00  0.00    -0.257 C  
HETATM    4  H1  UNL     1     -12.235   5.337  72.092  1.00  0.00     0.000 HD 
HETATM    5  N   UNL     1      -9.722   6.743  70.744  1.00  0.00    -0.179 N  
HETATM    6  C   UNL     1      -9.307   7.921  70.175  1.00  0.00    -0.156 C  
HETATM    7  H   UNL     1      -9.076   5.957  70.816  1.00  0.00     0.000 HD 
HETATM    8  N   UNL     1     -10.165   9.039  70.231  1.00  0.00    -0.190 N  
HETATM    9  O   UNL     1      -8.201   7.987  69.644  1.00  0.00    -0.117 OA 
HETATM   10  C   UNL     1     -11.913   7.719  71.123  1.00  0.00    -0.312 C  
HETATM   11  C   UNL     1     -11.465   8.889  70.662  1.00  0.00    -0.242 C  
ENDROOT
BRANCH   8  12
HETATM   12  C   UNL     1      -9.630  10.274  69.647  1.00  0.00    -0.162 C  
HETATM   13  O   UNL     1     -10.424  10.580  68.474  1.00  0.00    -0.169 OA 
HETATM   14  C   UNL     1      -9.712  10.159  67.298  1.00  0.00    -0.167 C  
HETATM   15  C   UNL     1      -8.230  10.104  67.652  1.00  0.00    -0.110 C  
HETATM   16  F   UNL     1      -7.757  11.683  69.320  1.00  0.00    -0.093 F  
HETATM   17  C   UNL     1      -8.185  10.396  69.146  1.00  0.00    -0.157 C  
HETATM   18  O   UNL     1      -7.496  11.079  66.889  1.00  0.00    -0.119 OA 
HETATM   19  F   UNL     1      -7.281   9.621  69.773  1.00  0.00    -0.058 F  
HETATM   20  H   UNL     1      -6.572  11.045  67.109  1.00  0.00     0.000 HD 
BRANCH  14  21
HETATM   21  C   UNL     1     -10.255   8.782  66.888  1.00  0.00    -0.287 C  
HETATM   22  O   UNL     1      -9.671   8.366  65.657  1.00  0.00    -0.437 OA 
HETATM   23  H   UNL     1     -10.007   7.515  65.403  1.00  0.00     0.000 HD 
ENDBRANCH  14  21
ENDBRANCH   8  12
TORSDOF 2
ENDMDL
MODEL      206
REMARK 921   NORMALIZED FREE ENERGY PREDICTED BY IDOCK:   -0.02 KCAL/MOL
REMARK 922        TOTAL FREE ENERGY PREDICTED BY IDOCK:   -0.19 KCAL/MOL
REMARK 923 INTER-LIGAND FREE ENERGY PREDICTED BY IDOCK:   -2.24 KCAL/MOL
REMARK 924 INTRA-LIGAND FREE ENERGY PREDICTED BY IDOCK:    2.06 KCAL/MOL
REMARK 927      BINDING AFFINITY PREDICTED BY RF-SCORE:    0.00 PKD
ROOT
HETATM    1  N   UNL     1     -10.935   7.625  67.356  1.00  0.00    -0.546 NA 
HETATM    2  H2  UNL     1     -11.548   7.087  66.743  1.00  0.00     0.000 HD 
HETATM    3  C   UNL     1     -10.358   7.061  68.458  1.00  0.00    -0.186 C  
HETATM    4  H1  UNL     1     -10.728   8.607  67.173  1.00  0.00     0.000 HD 
HETATM    5  N   UNL     1     -10.621   5.815  68.690  1.00  0.00    -0.236 N  
HETATM    6  C   UNL     1     -10.071   5.186  69.779  1.00  0.00    -0.266 C  
HETATM    7  H   UNL     1     -11.239   5.300  68.063  1.00  0.00     0.000 HD 
HETATM    8  N   UNL     1      -9.352   5.959  70.715  1.00  0.00    -0.159 N  
HETATM    9  O   UNL     1     -10.223   3.977  69.928  1.00  0.00     0.049 OA 
HETATM   10  C   UNL     1      -9.482   7.865  69.321  1.00  0.00    -0.152 C  
HETATM   11  C   UNL     1      -9.038   7.270  70.429  1.00  0.00    -0.155 C  
ENDROOT
BRANCH   8  12
HETATM   12  C   UNL     1      -8.838   5.225  71.876  1.00  0.00    -0.135 C  
HETATM   13  O   UNL     1      -7.830   6.054  72.505  1.00  0.00    -0.103 OA 
HETATM   14  C   UNL     1      -6.526   5.594  72.109  1.00  0.00    -0.056 C  
HETATM   15  C   UNL     1      -6.660   4.134  71.691  1.00  0.00    -0.022 C  
HETATM   16  F   UNL     1      -8.410   3.128  72.885  1.00  0.00    -0.074 F  
HETATM   17  C   UNL     1      -8.156   3.856  71.756  1.00  0.00    -0.078 C  
HETATM   18  O   UNL     1      -5.915   3.286  72.584  1.00  0.00    -0.008 OA 
HETATM   19  F   UNL     1      -8.561   3.089  70.726  1.00  0.00    -0.080 F  
HETATM   20  H   UNL     1      -5.997   2.376  72.323  1.00  0.00     0.000 HD 
BRANCH  14  21
HETATM   21  C   UNL     1      -6.046   6.481  70.950  1.00  0.00    -0.031 C  
HETATM   22  O   UNL     1      -5.145   5.760  70.115  1.00  0.00    -0.004 OA 
HETATM   23  H   UNL     1      -4.848   6.308  69.399  1.00  0.00     0.000 HD 
ENDBRANCH  14  21
ENDBRANCH   8  12
TORSDOF 2
ENDMDL
MODEL      207
REMARK 921   NORMALIZED FREE ENERGY PREDICTED BY IDOCK:    0.29 KCAL/MOL
REMARK 922        TOTAL FREE ENERGY PREDICTED BY IDOCK:    0.17 KCAL/MOL
REMARK 923 INTER-LIGAND FREE ENERGY PREDICTED BY IDOCK:   -2.68 KCAL/MOL
REMARK 924 INTRA-LIGAND FREE ENERGY PREDICTED BY IDOCK:    2.85 KCAL/MOL
REMARK 927      BINDING AFFINITY PREDICTED BY RF-SCORE:    0.00 PKD
ROOT
HETATM    1  N   UNL     1      -9.747   3.005  65.368  1.00  0.00    -0.370 NA 
HETATM    2  H2  UNL     1     -10.574   2.682  65.872  1.00  0.00     0.000 HD 
HETATM    3  C   UNL     1      -9.377   4.320  65.377  1.00  0.00    -0.164 C  
HETATM    4  H1  UNL     1      -9.162   2.360  64.837  1.00  0.00     0.000 HD 
HETATM    5  N   UNL     1     -10.119   5.138  66.051  1.00  0.00    -0.312 N  
HETATM    6  C   UNL     1      -9.802   6.472  66.104  1.00  0.00     0.127 C  
HETATM    7  H   UNL     1     -10.942   4.790  66.544  1.00  0.00     0.000 HD 
HETATM    8  N   UNL     1      -8.757   6.952  65.287  1.00  0.00     0.006 N  
HETATM    9  O   UNL     1     -10.435   7.222  66.842  1.00  0.00    -0.291 OA 
HETATM   10  C   UNL     1      -8.182   4.751  64.639  1.00  0.00    -0.113 C  
HETATM   11  C   UNL     1      -7.945   6.064  64.615  1.00  0.00    -0.130 C  
ENDROOT
BRANCH   8  12
HETATM   12  C   UNL     1      -8.511   8.396  65.361  1.00  0.00    -0.176 C  
HETATM   13  O   UNL     1      -7.239   8.588  66.028  1.00  0.00    -0.075 OA 
HETATM   14  C   UNL     1      -7.474   8.936  67.403  1.00  0.00    -0.085 C  
HETATM   15  C   UNL     1      -8.875   9.528  67.495  1.00  0.00    -0.125 C  
HETATM   16  F   UNL     1      -9.426  10.576  65.470  1.00  0.00    -0.198 F  
HETATM   17  C   UNL     1      -9.453   9.360  66.096  1.00  0.00    -0.226 C  
HETATM   18  O   UNL     1      -8.811  10.911  67.889  1.00  0.00    -0.130 OA 
HETATM   19  F   UNL     1     -10.747   8.996  66.136  1.00  0.00    -0.188 F  
HETATM   20  H   UNL     1      -9.684  11.280  67.948  1.00  0.00     0.000 HD 
BRANCH  14  21
HETATM   21  C   UNL     1      -7.334   7.658  68.242  1.00  0.00    -0.099 C  
HETATM   22  O   UNL     1      -8.290   7.652  69.299  1.00  0.00    -0.131 OA 
HETATM   23  H   UNL     1      -8.204   6.861  69.818  1.00  0.00     0.000 HD 
ENDBRANCH  14  21
ENDBRANCH   8  12
TORSDOF 2
ENDMDL
MODEL      208
REMARK 921   NORMALIZED FREE ENERGY PREDICTED BY IDOCK:    0.84 KCAL/MOL
REMARK 922        TOTAL FREE ENERGY PREDICTED BY IDOCK:    0.78 KCAL/MOL
REMARK 923 INTER-LIGAND FREE ENERGY PREDICTED BY IDOCK:   -2.16 KCAL/MOL
REMARK 924 INTRA-LIGAND FREE ENERGY PREDICTED BY IDOCK:    2.93 KCAL/MOL
REMARK 927      BINDING AFFINITY PREDICTED BY RF-SCORE:    0.00 PKD
ROOT
HETATM    1  N   UNL     1      -8.703   8.317  74.198  1.00  0.00    -0.320 NA 
HETATM    2  H2  UNL     1      -9.538   8.590  74.717  1.00  0.00     0.000 HD 
HETATM    3  C   UNL     1      -8.787   7.582  73.050  1.00  0.00    -0.154 C  
HETATM    4  H1  UNL     1      -7.770   8.581  74.514  1.00  0.00     0.000 HD 
HETATM    5  N   UNL     1      -9.972   7.248  72.648  1.00  0.00    -0.175 N  
HETATM    6  C   UNL     1     -10.128   6.513  71.500  1.00  0.00    -0.190 C  
HETATM    7  H   UNL     1     -10.791   7.532  73.186  1.00  0.00     0.000 HD 
HETATM    8  N   UNL     1      -8.978   5.999  70.864  1.00  0.00    -0.142 N  
HETATM    9  O   UNL     1     -11.254   6.303  71.056  1.00  0.00    -0.288 OA 
HETATM   10  C   UNL     1      -7.565   7.204  72.329  1.00  0.00    -0.089 C  
HETATM   11  C   UNL     1      -7.726   6.404  71.273  1.00  0.00    -0.095 C  
ENDROOT
BRANCH   8  12
HETATM   12  C   UNL     1      -9.230   5.181  69.672  1.00  0.00    -0.119 C  
HETATM   13  O   UNL     1      -8.180   5.470  68.717  1.00  0.00    -0.101 OA 
HETATM   14  C   UNL     1      -8.678   6.390  67.731  1.00  0.00    -0.114 C  
HETATM   15  C   UNL     1     -10.196   6.261  67.705  1.00  0.00    -0.170 C  
HETATM   16  F   UNL     1     -10.813   4.078  68.303  1.00  0.00     0.775 F  
HETATM   17  C   UNL     1     -10.515   5.299  68.842  1.00  0.00    -0.120 C  
HETATM   18  O   UNL     1     -10.635   5.755  66.432  1.00  0.00    -0.412 OA 
HETATM   19  F   UNL     1     -11.614   5.680  69.518  1.00  0.00    -0.254 F  
HETATM   20  H   UNL     1     -11.582   5.674  66.415  1.00  0.00     0.000 HD 
BRANCH  14  21
HETATM   21  C   UNL     1      -8.229   7.802  68.136  1.00  0.00    -0.124 C  
HETATM   22  O   UNL     1      -6.807   7.890  68.134  1.00  0.00    -0.064 OA 
HETATM   23  H   UNL     1      -6.529   8.763  68.384  1.00  0.00     0.000 HD 
ENDBRANCH  14  21
ENDBRANCH   8  12
TORSDOF 2
ENDMDL
MODEL      209
REMARK 921   NORMALIZED FREE ENERGY PREDICTED BY IDOCK:    1.83 KCAL/MOL
REMARK 922        TOTAL FREE ENERGY PREDICTED BY IDOCK:    1.89 KCAL/MOL
REMARK 923 INTER-LIGAND FREE ENERGY PREDICTED BY IDOCK:   -1.05 KCAL/MOL
REMARK 924 INTRA-LIGAND FREE ENERGY PREDICTED BY IDOCK:    2.93 KCAL/MOL
REMARK 927      BINDING AFFINITY PREDICTED BY RF-SCORE:    0.00 PKD
ROOT
HETATM    1  N   UNL     1      -9.398   3.583  64.515  1.00  0.00    -0.138 NA 
HETATM    2  H2  UNL     1      -9.350   3.298  65.494  1.00  0.00     0.000 HD 
HETATM    3  C   UNL     1      -9.043   4.842  64.122  1.00  0.00    -0.056 C  
HETATM    4  H1  UNL     1      -9.714   2.940  63.789  1.00  0.00     0.000 HD 
HETATM    5  N   UNL     1      -8.642   5.657  65.044  1.00  0.00    -0.233 N  
HETATM    6  C   UNL     1      -8.267   6.936  64.717  1.00  0.00    -0.050 C  
HETATM    7  H   UNL     1      -8.605   5.348  66.016  1.00  0.00     0.000 HD 
HETATM    8  N   UNL     1      -8.479   7.386  63.397  1.00  0.00     0.200 N  
HETATM    9  O   UNL     1      -7.772   7.666  65.572  1.00  0.00    -0.090 OA 
HETATM   10  C   UNL     1      -9.128   5.220  62.705  1.00  0.00     0.160 C  
HETATM   11  C   UNL     1      -8.858   6.494  62.417  1.00  0.00     0.384 C  
ENDROOT
BRANCH   8  12
HETATM   12  C   UNL     1      -8.100   8.780  63.138  1.00  0.00    -0.176 C  
HETATM   13  O   UNL     1      -6.866   8.762  62.379  1.00  0.00    -0.095 OA 
HETATM   14  C   UNL     1      -5.763   9.019  63.265  1.00  0.00    -0.076 C  
HETATM   15  C   UNL     1      -6.309   9.764  64.477  1.00  0.00    -0.111 C  
HETATM   16  F   UNL     1      -8.176  11.036  63.846  1.00  0.00    -0.030 F  
HETATM   17  C   UNL     1      -7.817   9.784  64.263  1.00  0.00    -0.134 C  
HETATM   18  O   UNL     1      -5.756  11.092  64.540  1.00  0.00    -0.413 OA 
HETATM   19  F   UNL     1      -8.482   9.576  65.414  1.00  0.00    -0.126 F  
HETATM   20  H   UNL     1      -6.096  11.556  65.296  1.00  0.00     0.000 HD 
BRANCH  14  21
HETATM   21  C   UNL     1      -5.146   7.667  63.653  1.00  0.00    -0.033 C  
HETATM   22  O   UNL     1      -5.137   7.514  65.069  1.00  0.00    -0.028 OA 
HETATM   23  H   UNL     1      -4.756   6.678  65.309  1.00  0.00     0.000 HD 
ENDBRANCH  14  21
ENDBRANCH   8  12
TORSDOF 2
ENDMDL
MODEL      210
REMARK 921   NORMALIZED FREE ENERGY PREDICTED BY IDOCK:    2.65 KCAL/MOL
REMARK 922        TOTAL FREE ENERGY PREDICTED BY IDOCK:    2.80 KCAL/MOL
REMARK 923 INTER-LIGAND FREE ENERGY PREDICTED BY IDOCK:    2.94 KCAL/MOL
REMARK 924 INTRA-LIGAND FREE ENERGY PREDICTED BY IDOCK:   -0.14 KCAL/MOL
REMARK 927      BINDING AFFINITY PREDICTED BY RF-SCORE:    0.00 PKD
ROOT
HETATM    1  N   UNL     1      -9.738   7.552  65.804  1.00  0.00    -0.232 NA 
HETATM    2  H2  UNL     1      -9.421   7.274  64.875  1.00  0.00     0.000 HD 
HETATM    3  C   UNL     1      -9.530   8.815  66.279  1.00  0.00    -0.234 C  
HETATM    4  H1  UNL     1     -10.224   6.898  66.419  1.00  0.00     0.000 HD 
HETATM    5  N   UNL     1      -8.913   9.645  65.499  1.00  0.00    -0.170 N  
HETATM    6  C   UNL     1      -8.674  10.931  65.913  1.00  0.00    -0.183 C  
HETATM    7  H   UNL     1      -8.605   9.341  64.575  1.00  0.00     0.000 HD 
HETATM    8  N   UNL     1      -8.967  11.278  67.248  1.00  0.00    -0.148 N  
HETATM    9  O   UNL     1      -8.201  11.748  65.127  1.00  0.00     0.683 OA 
HETATM   10  C   UNL     1      -9.996   9.182  67.622  1.00  0.00    -0.245 C  
HETATM   11  C   UNL     1      -9.667  10.402  68.049  1.00  0.00    -0.150 C  
ENDROOT
BRANCH   8  12
HETATM   12  C   UNL     1      -8.637  12.656  67.628  1.00  0.00    -0.180 C  
HETATM   13  O   UNL     1      -7.221  12.696  67.934  1.00  0.00    -0.091 OA 
HETATM   14  C   UNL     1      -7.045  12.658  69.360  1.00  0.00     0.183 C  
HETATM   15  C   UNL     1      -8.332  13.166  69.998  1.00  0.00     2.945 C  
HETATM   16  F   UNL     1      -9.372  14.702  68.562  1.00  0.00    -0.177 F  
HETATM   17  C   UNL     1      -9.285  13.363  68.826  1.00  0.00     0.112 C  
HETATM   18  O   UNL     1      -8.090  14.395  70.708  1.00  0.00     1.177 OA 
HETATM   19  F   UNL     1     -10.534  12.968  69.133  1.00  0.00    -0.186 F  
HETATM   20  H   UNL     1      -8.892  14.712  71.106  1.00  0.00     0.000 HD 
BRANCH  14  21
HETATM   21  C   UNL     1      -6.742  11.206  69.758  1.00  0.00    -0.121 C  
HETATM   22  O   UNL     1      -5.851  10.610  68.820  1.00  0.00    -0.041 OA 
HETATM   23  H   UNL     1      -5.663   9.712  69.066  1.00  0.00     0.000 HD 
ENDBRANCH  14  21
ENDBRANCH   8  12
TORSDOF 2
ENDMDL
MODEL      211
REMARK 921   NORMALIZED FREE ENERGY PREDICTED BY IDOCK:    3.25 KCAL/MOL
REMARK 922        TOTAL FREE ENERGY PREDICTED BY IDOCK:    3.47 KCAL/MOL
REMARK 923 INTER-LIGAND FREE ENERGY PREDICTED BY IDOCK:    2.51 KCAL/MOL
REMARK 924 INTRA-LIGAND FREE ENERGY PREDICTED BY IDOCK:    0.96 KCAL/MOL
REMARK 927      BINDING AFFINITY PREDICTED BY RF-SCORE:    0.00 PKD
ROOT
HETATM    1  N   UNL     1     -12.411   4.019  63.061  1.00  0.00     2.769 NA 
HETATM    2  H2  UNL     1     -12.724   4.754  62.426  1.00  0.00     0.000 HD 
HETATM    3  C   UNL     1     -11.117   3.956  63.494  1.00  0.00     0.176 C  
HETATM    4  H1  UNL     1     -13.050   3.299  63.398  1.00  0.00     0.000 HD 
HETATM    5  N   UNL     1     -10.306   4.869  63.065  1.00  0.00     0.061 N  
HETATM    6  C   UNL     1      -8.992   4.866  63.465  1.00  0.00    -0.021 C  
HETATM    7  H   UNL     1     -10.643   5.592  62.430  1.00  0.00     0.000 HD 
HETATM    8  N   UNL     1      -8.515   3.769  64.212  1.00  0.00    -0.090 N  
HETATM    9  O   UNL     1      -8.258   5.801  63.156  1.00  0.00    -0.120 OA 
HETATM   10  C   UNL     1     -10.699   2.882  64.405  1.00  0.00     0.327 C  
HETATM   11  C   UNL     1      -9.399   2.833  64.702  1.00  0.00    -0.147 C  
ENDROOT
BRANCH   8  12
HETATM   12  C   UNL     1      -7.090   3.815  64.557  1.00  0.00    -0.058 C  
HETATM   13  O   UNL     1      -6.740   2.533  65.134  1.00  0.00    -0.037 OA 
HETATM   14  C   UNL     1      -6.707   2.652  66.567  1.00  0.00    -0.040 C  
HETATM   15  C   UNL     1      -6.472   4.120  66.901  1.00  0.00    -0.041 C  
HETATM   16  F   UNL     1      -5.228   5.131  65.189  1.00  0.00    -0.011 F  
HETATM   17  C   UNL     1      -6.510   4.828  65.553  1.00  0.00    -0.040 C  
HETATM   18  O   UNL     1      -5.204   4.287  67.562  1.00  0.00    -0.010 OA 
HETATM   19  F   UNL     1      -7.157   6.006  65.632  1.00  0.00    -0.064 F  
HETATM   20  H   UNL     1      -5.057   5.203  67.771  1.00  0.00     0.000 HD 
BRANCH  14  21
HETATM   21  C   UNL     1      -8.051   2.148  67.112  1.00  0.00    -0.068 C  
HETATM   22  O   UNL     1      -8.510   2.996  68.162  1.00  0.00    -0.076 OA 
HETATM   23  H   UNL     1      -9.341   2.684  68.499  1.00  0.00     0.000 HD 
ENDBRANCH  14  21
ENDBRANCH   8  12
TORSDOF 2
ENDMDL
MODEL      212
REMARK 921   NORMALIZED FREE ENERGY PREDICTED BY IDOCK:    3.50 KCAL/MOL
REMARK 922        TOTAL FREE ENERGY PREDICTED BY IDOCK:    3.75 KCAL/MOL
REMARK 923 INTER-LIGAND FREE ENERGY PREDICTED BY IDOCK:   -2.14 KCAL/MOL
REMARK 924 INTRA-LIGAND FREE ENERGY PREDICTED BY IDOCK:    5.89 KCAL/MOL
REMARK 927      BINDING AFFINITY PREDICTED BY RF-SCORE:    0.00 PKD
ROOT
HETATM    1  N   UNL     1     -10.003  11.904  65.060  1.00  0.00    -0.259 NA 
HETATM    2  H2  UNL     1     -10.955  12.179  65.305  1.00  0.00     0.000 HD 
HETATM    3  C   UNL     1      -9.331  10.952  65.773  1.00  0.00    -0.203 C  
HETATM    4  H1  UNL     1      -9.513  12.328  64.273  1.00  0.00     0.000 HD 
HETATM    5  N   UNL     1      -9.954  10.414  66.773  1.00  0.00    -0.198 N  
HETATM    6  C   UNL     1      -9.337   9.449  67.529  1.00  0.00    -0.127 C  
HETATM    7  H   UNL     1     -10.904  10.708  66.998  1.00  0.00     0.000 HD 
HETATM    8  N   UNL     1      -7.973   9.176  67.297  1.00  0.00    -0.102 N  
HETATM    9  O   UNL     1      -9.972   8.854  68.396  1.00  0.00    -0.166 OA 
HETATM   10  C   UNL     1      -7.961  10.582  65.395  1.00  0.00    -0.129 C  
HETATM   11  C   UNL     1      -7.339   9.718  66.200  1.00  0.00    -0.101 C  
ENDROOT
BRANCH   8  12
HETATM   12  C   UNL     1      -7.373   8.169  68.179  1.00  0.00    -0.096 C  
HETATM   13  O   UNL     1      -6.308   7.522  67.440  1.00  0.00    -0.049 OA 
HETATM   14  C   UNL     1      -6.779   6.260  66.939  1.00  0.00    -0.061 C  
HETATM   15  C   UNL     1      -7.944   5.821  67.819  1.00  0.00    -0.098 C  
HETATM   16  F   UNL     1      -7.661   6.670  69.987  1.00  0.00    -0.088 F  
HETATM   17  C   UNL     1      -8.172   6.995  68.761  1.00  0.00    -0.122 C  
HETATM   18  O   UNL     1      -7.609   4.616  68.531  1.00  0.00    -0.068 OA 
HETATM   19  F   UNL     1      -9.483   7.223  68.959  1.00  0.00    -0.147 F  
HETATM   20  H   UNL     1      -8.336   4.342  69.079  1.00  0.00     0.000 HD 
BRANCH  14  21
HETATM   21  C   UNL     1      -7.207   6.463  65.479  1.00  0.00    -0.070 C  
HETATM   22  O   UNL     1      -7.263   7.852  65.167  1.00  0.00    -0.059 OA 
HETATM   23  H   UNL     1      -7.528   7.977  64.263  1.00  0.00     0.000 HD 
ENDBRANCH  14  21
ENDBRANCH   8  12
TORSDOF 2
ENDMDL
MODEL      213
REMARK 921   NORMALIZED FREE ENERGY PREDICTED BY IDOCK:    4.98 KCAL/MOL
REMARK 922        TOTAL FREE ENERGY PREDICTED BY IDOCK:    5.41 KCAL/MOL
REMARK 923 INTER-LIGAND FREE ENERGY PREDICTED BY IDOCK:    0.64 KCAL/MOL
REMARK 924 INTRA-LIGAND FREE ENERGY PREDICTED BY IDOCK:    4.77 KCAL/MOL
REMARK 927      BINDING AFFINITY PREDICTED BY RF-SCORE:    0.00 PKD
ROOT
HETATM    1  N   UNL     1      -8.453  17.349  66.189  1.00  0.00    -0.484 NA 
HETATM    2  H2  UNL     1      -8.093  17.799  67.031  1.00  0.00     0.000 HD 
HETATM    3  C   UNL     1      -9.269  16.256  66.259  1.00  0.00    -0.328 C  
HETATM    4  H1  UNL     1      -8.219  17.695  65.259  1.00  0.00     0.000 HD 
HETATM    5  N   UNL     1      -9.566  15.816  67.440  1.00  0.00    -0.216 N  
HETATM    6  C   UNL     1     -10.384  14.723  67.583  1.00  0.00    -0.237 C  
HETATM    7  H   UNL     1      -9.191  16.283  68.267  1.00  0.00     0.000 HD 
HETATM    8  N   UNL     1     -10.756  14.002  66.429  1.00  0.00    -0.277 N  
HETATM    9  O   UNL     1     -10.762  14.384  68.701  1.00  0.00    -0.238 OA 
HETATM   10  C   UNL     1      -9.767  15.630  65.027  1.00  0.00     0.308 C  
HETATM   11  C   UNL     1     -10.476  14.510  65.179  1.00  0.00    -0.416 C  
ENDROOT
BRANCH   8  12
HETATM   12  C   UNL     1     -11.589  12.818  66.668  1.00  0.00    -0.370 C  
HETATM   13  O   UNL     1     -12.934  13.280  66.947  1.00  0.00     0.361 OA 
HETATM   14  C   UNL     1     -13.155  13.260  68.367  1.00  0.00     2.766 C  
HETATM   15  C   UNL     1     -12.179  12.258  68.972  1.00  0.00     0.004 C  
HETATM   16  F   UNL     1     -11.707  10.574  67.408  1.00  0.00    -0.271 F  
HETATM   17  C   UNL     1     -11.308  11.822  67.801  1.00  0.00    -0.289 C  
HETATM   18  O   UNL     1     -12.892  11.151  69.554  1.00  0.00    -0.217 OA 
HETATM   19  F   UNL     1     -10.018  11.698  68.163  1.00  0.00    -0.171 F  
HETATM   20  H   UNL     1     -12.284  10.527  69.931  1.00  0.00     0.000 HD 
BRANCH  14  21
HETATM   21  C   UNL     1     -12.922  14.681  68.900  1.00  0.00     1.287 C  
HETATM   22  O   UNL     1     -13.358  14.781  70.253  1.00  0.00    -0.577 OA 
HETATM   23  H   UNL     1     -13.214  15.660  70.582  1.00  0.00     0.000 HD 
ENDBRANCH  14  21
ENDBRANCH   8  12
TORSDOF 2
ENDMDL
MODEL      214
REMARK 921   NORMALIZED FREE ENERGY PREDICTED BY IDOCK:    5.30 KCAL/MOL
REMARK 922        TOTAL FREE ENERGY PREDICTED BY IDOCK:    5.76 KCAL/MOL
REMARK 923 INTER-LIGAND FREE ENERGY PREDICTED BY IDOCK:    2.72 KCAL/MOL
REMARK 924 INTRA-LIGAND FREE ENERGY PREDICTED BY IDOCK:    3.05 KCAL/MOL
REMARK 927      BINDING AFFINITY PREDICTED BY RF-SCORE:    0.00 PKD
ROOT
HETATM    1  N   UNL     1      -9.839  12.754  64.518  1.00  0.00    -0.570 NA 
HETATM    2  H2  UNL     1     -10.531  13.501  64.574  1.00  0.00     0.000 HD 
HETATM    3  C   UNL     1     -10.030  11.558  65.150  1.00  0.00    -0.262 C  
HETATM    4  H1  UNL     1      -8.975  12.867  63.988  1.00  0.00     0.000 HD 
HETATM    5  N   UNL     1     -11.127  11.415  65.823  1.00  0.00    -0.210 N  
HETATM    6  C   UNL     1     -11.384  10.237  66.479  1.00  0.00     0.711 C  
HETATM    7  H   UNL     1     -11.802  12.178  65.865  1.00  0.00     0.000 HD 
HETATM    8  N   UNL     1     -10.368   9.260  66.537  1.00  0.00    -0.238 N  
HETATM    9  O   UNL     1     -12.476  10.059  67.012  1.00  0.00     4.189 OA 
HETATM   10  C   UNL     1      -9.013  10.504  65.051  1.00  0.00    -0.223 C  
HETATM   11  C   UNL     1      -9.228   9.405  65.776  1.00  0.00    -0.219 C  
ENDROOT
BRANCH   8  12
HETATM   12  C   UNL     1     -10.700   8.051  67.299  1.00  0.00    -0.210 C  
HETATM   13  O   UNL     1      -9.945   8.094  68.535  1.00  0.00    -0.178 OA 
HETATM   14  C   UNL     1      -8.790   7.247  68.414  1.00  0.00    -0.128 C  
HETATM   15  C   UNL     1      -9.085   6.217  67.330  1.00  0.00    -0.116 C  
HETATM   16  F   UNL     1     -11.390   5.788  67.255  1.00  0.00    -0.241 F  
HETATM   17  C   UNL     1     -10.436   6.636  66.765  1.00  0.00    -0.228 C  
HETATM   18  O   UNL     1      -9.124   4.893  67.893  1.00  0.00    -0.108 OA 
HETATM   19  F   UNL     1     -10.476   6.500  65.427  1.00  0.00     0.956 F  
HETATM   20  H   UNL     1      -9.307   4.251  67.217  1.00  0.00     0.000 HD 
BRANCH  14  21
HETATM   21  C   UNL     1      -7.592   8.136  68.049  1.00  0.00    -0.106 C  
HETATM   22  O   UNL     1      -8.037   9.430  67.651  1.00  0.00    -0.106 OA 
HETATM   23  H   UNL     1      -7.296   9.979  67.425  1.00  0.00     0.000 HD 
ENDBRANCH  14  21
ENDBRANCH   8  12
TORSDOF 2
ENDMDL
MODEL      215
REMARK 921   NORMALIZED FREE ENERGY PREDICTED BY IDOCK:   14.90 KCAL/MOL
REMARK 922        TOTAL FREE ENERGY PREDICTED BY IDOCK:   16.48 KCAL/MOL
REMARK 923 INTER-LIGAND FREE ENERGY PREDICTED BY IDOCK:   11.93 KCAL/MOL
REMARK 924 INTRA-LIGAND FREE ENERGY PREDICTED BY IDOCK:    4.55 KCAL/MOL
REMARK 927      BINDING AFFINITY PREDICTED BY RF-SCORE:    0.00 PKD
ROOT
HETATM    1  N   UNL     1     -12.485  18.526  73.030  1.00  0.00     6.160 NA 
HETATM    2  H2  UNL     1     -12.898  18.127  73.873  1.00  0.00     0.000 HD 
HETATM    3  C   UNL     1     -11.827  17.746  72.122  1.00  0.00     3.478 C  
HETATM    4  H1  UNL     1     -12.547  19.524  72.828  1.00  0.00     0.000 HD 
HETATM    5  N   UNL     1     -11.750  16.479  72.378  1.00  0.00    -0.502 N  
HETATM    6  C   UNL     1     -11.105  15.638  71.506  1.00  0.00    -0.180 C  
HETATM    7  H   UNL     1     -12.169  16.105  73.230  1.00  0.00     0.000 HD 
HETATM    8  N   UNL     1     -10.399  16.200  70.422  1.00  0.00     0.063 N  
HETATM    9  O   UNL     1     -11.140  14.424  71.689  1.00  0.00     0.557 OA 
HETATM   10  C   UNL     1     -11.242  18.353  70.920  1.00  0.00     3.963 C  
HETATM   11  C   UNL     1     -10.532  17.541  70.134  1.00  0.00     0.837 C  
ENDROOT
BRANCH   8  12
HETATM   12  C   UNL     1      -9.694  15.241  69.564  1.00  0.00    -0.219 C  
HETATM   13  O   UNL     1      -9.072  15.991  68.492  1.00  0.00    -0.189 OA 
HETATM   14  C   UNL     1      -9.881  15.884  67.309  1.00  0.00    -0.234 C  
HETATM   15  C   UNL     1     -10.717  14.616  67.436  1.00  0.00    -0.280 C  
HETATM   16  F   UNL     1      -9.561  13.033  68.724  1.00  0.00    -0.169 F  
HETATM   17  C   UNL     1     -10.412  14.098  68.835  1.00  0.00    -0.222 C  
HETATM   18  O   UNL     1     -10.348  13.667  66.418  1.00  0.00    -0.276 OA 
HETATM   19  F   UNL     1     -11.517  13.623  69.438  1.00  0.00    -0.280 F  
HETATM   20  H   UNL     1     -10.870  12.877  66.496  1.00  0.00     0.000 HD 
BRANCH  14  21
HETATM   21  C   UNL     1     -10.756  17.142  67.222  1.00  0.00    -0.208 C  
HETATM   22  O   UNL     1     -10.385  18.076  68.232  1.00  0.00    -0.368 OA 
HETATM   23  H   UNL     1     -10.926  18.854  68.178  1.00  0.00     0.000 HD 
ENDBRANCH  14  21
ENDBRANCH   8  12
TORSDOF 2
ENDMDL
MODEL      216
REMARK 921   NORMALIZED FREE ENERGY PREDICTED BY IDOCK:   26.38 KCAL/MOL
REMARK 922        TOTAL FREE ENERGY PREDICTED BY IDOCK:   29.31 KCAL/MOL
REMARK 923 INTER-LIGAND FREE ENERGY PREDICTED BY IDOCK:   28.82 KCAL/MOL
REMARK 924 INTRA-LIGAND FREE ENERGY PREDICTED BY IDOCK:    0.48 KCAL/MOL
REMARK 927      BINDING AFFINITY PREDICTED BY RF-SCORE:    0.00 PKD
ROOT
HETATM    1  N   UNL     1      -8.211  10.198  64.279  1.00  0.00    -0.161 NA 
HETATM    2  H2  UNL     1      -8.903  10.927  64.452  1.00  0.00     0.000 HD 
HETATM    3  C   UNL     1      -8.583   8.934  63.920  1.00  0.00    -0.091 C  
HETATM    4  H1  UNL     1      -7.211  10.381  64.367  1.00  0.00     0.000 HD 
HETATM    5  N   UNL     1      -9.851   8.701  63.809  1.00  0.00     1.617 N  
HETATM    6  C   UNL     1     -10.294   7.453  63.448  1.00  0.00     9.224 C  
HETATM    7  H   UNL     1     -10.524   9.447  63.989  1.00  0.00     0.000 HD 
HETATM    8  N   UNL     1      -9.357   6.402  63.361  1.00  0.00     1.622 N  
HETATM    9  O   UNL     1     -11.487   7.268  63.224  1.00  0.00    16.237 OA 
HETATM   10  C   UNL     1      -7.560   7.907  63.682  1.00  0.00    -0.130 C  
HETATM   11  C   UNL     1      -8.008   6.675  63.433  1.00  0.00    -0.072 C  
ENDROOT
BRANCH   8  12
HETATM   12  C   UNL     1      -9.913   5.088  63.021  1.00  0.00     0.731 C  
HETATM   13  O   UNL     1     -11.150   4.934  63.759  1.00  0.00     0.997 OA 
HETATM   14  C   UNL     1     -10.910   4.116  64.917  1.00  0.00    -0.068 C  
HETATM   15  C   UNL     1      -9.674   3.271  64.636  1.00  0.00    -0.149 C  
HETATM   16  F   UNL     1      -9.503   2.862  62.332  1.00  0.00    -0.092 F  
HETATM   17  C   UNL     1      -9.165   3.776  63.292  1.00  0.00    -0.108 C  
HETATM   18  O   UNL     1     -10.020   1.874  64.590  1.00  0.00    -0.334 OA 
HETATM   19  F   UNL     1      -7.822   3.853  63.268  1.00  0.00    -0.068 F  
HETATM   20  H   UNL     1      -9.249   1.347  64.416  1.00  0.00     0.000 HD 
BRANCH  14  21
HETATM   21  C   UNL     1     -10.706   5.049  66.119  1.00  0.00    -0.203 C  
HETATM   22  O   UNL     1      -9.369   4.951  66.602  1.00  0.00    -0.127 OA 
HETATM   23  H   UNL     1      -9.243   5.528  67.345  1.00  0.00     0.000 HD 
ENDBRANCH  14  21
ENDBRANCH   8  12
TORSDOF 2
ENDMDL
