MODEL        1
REMARK 921   NORMALIZED FREE ENERGY PREDICTED BY IDOCK:   -6.47 KCAL/MOL
REMARK 922        TOTAL FREE ENERGY PREDICTED BY IDOCK:   -8.84 KCAL/MOL
REMARK 923 INTER-LIGAND FREE ENERGY PREDICTED BY IDOCK:   -8.36 KCAL/MOL
REMARK 924 INTRA-LIGAND FREE ENERGY PREDICTED BY IDOCK:   -0.48 KCAL/MOL
REMARK 927      BINDING AFFINITY PREDICTED BY RF-SCORE:    0.00 PKD
ROOT
HETATM    1  C   UNL     1     -13.261  15.486  71.402  1.00  0.00    -0.587 C  
HETATM    2  C   UNL     1     -12.969  14.020  71.277  1.00  0.00    -0.418 A  
HETATM    3  C   UNL     1     -12.220  13.525  70.199  1.00  0.00    -0.400 A  
HETATM    4  C   UNL     1     -11.980  12.153  70.055  1.00  0.00    -0.315 A  
HETATM    5  C   UNL     1     -13.485  13.123  72.214  1.00  0.00    -0.665 A  
HETATM    6  C   UNL     1     -12.533  11.252  70.980  1.00  0.00    -0.503 A  
HETATM    7  C   UNL     1     -13.270  11.752  72.065  1.00  0.00    -0.460 A  
HETATM    8  C   UNL     1     -12.374   9.763  70.857  1.00  0.00    -0.379 C  
ENDROOT
BRANCH   4   9
HETATM    9  O   UNL     1     -11.298  11.614  68.997  1.00  0.00    -0.229 OA 
BRANCH   9  10
HETATM   10  C   UNL     1     -10.752  12.510  68.026  1.00  0.00    -0.221 C  
BRANCH  10  11
HETATM   11  C   UNL     1     -11.725  12.731  66.866  1.00  0.00    -0.447 C  
BRANCH  11  12
HETATM   12  C   UNL     1     -11.836  14.216  66.481  1.00  0.00    -0.439 C  
BRANCH  12  13
HETATM   13  C   UNL     1     -10.891  14.680  65.343  1.00  0.00    -0.365 C  
HETATM   14  C   UNL     1     -10.363  13.499  64.513  1.00  0.00    -0.381 C  
HETATM   15  C   UNL     1      -9.684  15.445  65.923  1.00  0.00    -0.392 C  
HETATM   16  C   UNL     1     -11.658  15.638  64.417  1.00  0.00    -0.249 C  
HETATM   17  O   UNL     1     -11.364  16.812  64.236  1.00  0.00    -1.170 OA 
HETATM   18  O   UNL     1     -12.723  15.085  63.790  1.00  0.00    -0.741 OA 
ENDBRANCH  12  13
ENDBRANCH  11  12
ENDBRANCH  10  11
ENDBRANCH   9  10
ENDBRANCH   4   9
TORSDOF 5
ENDMDL
MODEL        2
REMARK 921   NORMALIZED FREE ENERGY PREDICTED BY IDOCK:   -6.43 KCAL/MOL
REMARK 922        TOTAL FREE ENERGY PREDICTED BY IDOCK:   -8.80 KCAL/MOL
REMARK 923 INTER-LIGAND FREE ENERGY PREDICTED BY IDOCK:   -8.17 KCAL/MOL
REMARK 924 INTRA-LIGAND FREE ENERGY PREDICTED BY IDOCK:   -0.63 KCAL/MOL
REMARK 927      BINDING AFFINITY PREDICTED BY RF-SCORE:    0.00 PKD
ROOT
HETATM    1  C   UNL     1     -12.985   9.693  71.909  1.00  0.00    -0.527 C  
HETATM    2  C   UNL     1     -12.859  11.137  71.523  1.00  0.00    -0.542 A  
HETATM    3  C   UNL     1     -12.102  11.519  70.406  1.00  0.00    -0.471 A  
HETATM    4  C   UNL     1     -11.947  12.868  70.065  1.00  0.00    -0.309 A  
HETATM    5  C   UNL     1     -13.460  12.124  72.306  1.00  0.00    -0.298 A  
HETATM    6  C   UNL     1     -12.522  13.858  70.877  1.00  0.00    -0.447 A  
HETATM    7  C   UNL     1     -13.291  13.472  71.987  1.00  0.00    -0.563 A  
HETATM    8  C   UNL     1     -12.346  15.328  70.615  1.00  0.00    -0.427 C  
ENDROOT
BRANCH   4   9
HETATM    9  O   UNL     1     -11.180  13.296  69.015  1.00  0.00    -0.256 OA 
BRANCH   9  10
HETATM   10  C   UNL     1     -10.879  12.359  67.978  1.00  0.00    -0.221 C  
BRANCH  10  11
HETATM   11  C   UNL     1     -11.783  12.569  66.761  1.00  0.00    -0.453 C  
BRANCH  11  12
HETATM   12  C   UNL     1     -11.918  14.057  66.393  1.00  0.00    -0.462 C  
BRANCH  12  13
HETATM   13  C   UNL     1     -10.932  14.565  65.310  1.00  0.00    -0.366 C  
HETATM   14  C   UNL     1     -10.493  13.443  64.356  1.00  0.00    -0.403 C  
HETATM   15  C   UNL     1      -9.673  15.167  65.967  1.00  0.00    -0.361 C  
HETATM   16  C   UNL     1     -11.617  15.675  64.495  1.00  0.00    -0.262 C  
HETATM   17  O   UNL     1     -11.230  16.835  64.441  1.00  0.00    -1.112 OA 
HETATM   18  O   UNL     1     -12.717  15.278  63.815  1.00  0.00    -0.687 OA 
ENDBRANCH  12  13
ENDBRANCH  11  12
ENDBRANCH  10  11
ENDBRANCH   9  10
ENDBRANCH   4   9
TORSDOF 5
ENDMDL
MODEL        3
REMARK 921   NORMALIZED FREE ENERGY PREDICTED BY IDOCK:   -6.40 KCAL/MOL
REMARK 922        TOTAL FREE ENERGY PREDICTED BY IDOCK:   -8.75 KCAL/MOL
REMARK 923 INTER-LIGAND FREE ENERGY PREDICTED BY IDOCK:   -8.02 KCAL/MOL
REMARK 924 INTRA-LIGAND FREE ENERGY PREDICTED BY IDOCK:   -0.73 KCAL/MOL
REMARK 927      BINDING AFFINITY PREDICTED BY RF-SCORE:    0.00 PKD
ROOT
HETATM    1  C   UNL     1     -14.053  15.589  72.448  1.00  0.00    -0.627 C  
HETATM    2  C   UNL     1     -13.411  14.394  71.808  1.00  0.00    -0.446 A  
HETATM    3  C   UNL     1     -12.559  14.541  70.703  1.00  0.00    -0.416 A  
HETATM    4  C   UNL     1     -11.989  13.426  70.076  1.00  0.00    -0.337 A  
HETATM    5  C   UNL     1     -13.695  13.111  72.280  1.00  0.00    -0.647 A  
HETATM    6  C   UNL     1     -12.309  12.137  70.531  1.00  0.00    -0.358 A  
HETATM    7  C   UNL     1     -13.151  11.994  71.646  1.00  0.00    -0.422 A  
HETATM    8  C   UNL     1     -11.791  10.890  69.870  1.00  0.00    -0.427 C  
ENDROOT
BRANCH   4   9
HETATM    9  O   UNL     1     -11.192  13.512  68.966  1.00  0.00    -0.251 OA 
BRANCH   9  10
HETATM   10  C   UNL     1     -11.486  14.530  68.006  1.00  0.00    -0.321 C  
BRANCH  10  11
HETATM   11  C   UNL     1     -12.267  13.963  66.818  1.00  0.00    -0.438 C  
BRANCH  11  12
HETATM   12  C   UNL     1     -11.707  12.608  66.354  1.00  0.00    -0.466 C  
BRANCH  12  13
HETATM   13  C   UNL     1     -11.245  12.551  64.875  1.00  0.00    -0.344 C  
HETATM   14  C   UNL     1     -10.653  11.182  64.507  1.00  0.00    -0.397 C  
HETATM   15  C   UNL     1     -10.179  13.632  64.601  1.00  0.00    -0.338 C  
HETATM   16  C   UNL     1     -12.452  12.835  63.965  1.00  0.00    -0.360 C  
HETATM   17  O   UNL     1     -12.538  13.791  63.206  1.00  0.00    -0.830 OA 
HETATM   18  O   UNL     1     -13.454  11.931  64.058  1.00  0.00    -0.600 OA 
ENDBRANCH  12  13
ENDBRANCH  11  12
ENDBRANCH  10  11
ENDBRANCH   9  10
ENDBRANCH   4   9
TORSDOF 5
ENDMDL
MODEL        4
REMARK 921   NORMALIZED FREE ENERGY PREDICTED BY IDOCK:   -6.33 KCAL/MOL
REMARK 922        TOTAL FREE ENERGY PREDICTED BY IDOCK:   -8.67 KCAL/MOL
REMARK 923 INTER-LIGAND FREE ENERGY PREDICTED BY IDOCK:   -8.16 KCAL/MOL
REMARK 924 INTRA-LIGAND FREE ENERGY PREDICTED BY IDOCK:   -0.50 KCAL/MOL
REMARK 927      BINDING AFFINITY PREDICTED BY RF-SCORE:    0.00 PKD
ROOT
HETATM    1  C   UNL     1     -12.084   9.972  70.740  1.00  0.00    -0.418 C  
HETATM    2  C   UNL     1     -12.445  11.416  70.923  1.00  0.00    -0.478 A  
HETATM    3  C   UNL     1     -11.917  12.403  70.077  1.00  0.00    -0.372 A  
HETATM    4  C   UNL     1     -12.218  13.756  70.269  1.00  0.00    -0.359 A  
HETATM    5  C   UNL     1     -13.279  11.799  71.976  1.00  0.00    -0.460 A  
HETATM    6  C   UNL     1     -13.027  14.139  71.352  1.00  0.00    -0.422 A  
HETATM    7  C   UNL     1     -13.564  13.148  72.189  1.00  0.00    -0.637 A  
HETATM    8  C   UNL     1     -13.341  15.576  71.663  1.00  0.00    -0.585 C  
ENDROOT
BRANCH   4   9
HETATM    9  O   UNL     1     -11.691  14.761  69.503  1.00  0.00    -0.286 OA 
BRANCH   9  10
HETATM   10  C   UNL     1     -10.931  14.396  68.349  1.00  0.00    -0.248 C  
BRANCH  10  11
HETATM   11  C   UNL     1     -11.823  14.285  67.110  1.00  0.00    -0.454 C  
BRANCH  11  12
HETATM   12  C   UNL     1     -11.787  12.874  66.499  1.00  0.00    -0.473 C  
BRANCH  12  13
HETATM   13  C   UNL     1     -11.288  12.797  65.033  1.00  0.00    -0.344 C  
HETATM   14  C   UNL     1     -10.590  11.462  64.729  1.00  0.00    -0.377 C  
HETATM   15  C   UNL     1     -10.296  13.942  64.740  1.00  0.00    -0.419 C  
HETATM   16  C   UNL     1     -12.490  12.959  64.087  1.00  0.00    -0.335 C  
HETATM   17  O   UNL     1     -12.626  13.877  63.291  1.00  0.00    -0.824 OA 
HETATM   18  O   UNL     1     -13.426  11.988  64.194  1.00  0.00    -0.672 OA 
ENDBRANCH  12  13
ENDBRANCH  11  12
ENDBRANCH  10  11
ENDBRANCH   9  10
ENDBRANCH   4   9
TORSDOF 5
ENDMDL
MODEL        5
REMARK 921   NORMALIZED FREE ENERGY PREDICTED BY IDOCK:   -6.22 KCAL/MOL
REMARK 922        TOTAL FREE ENERGY PREDICTED BY IDOCK:   -8.53 KCAL/MOL
REMARK 923 INTER-LIGAND FREE ENERGY PREDICTED BY IDOCK:   -8.08 KCAL/MOL
REMARK 924 INTRA-LIGAND FREE ENERGY PREDICTED BY IDOCK:   -0.44 KCAL/MOL
REMARK 927      BINDING AFFINITY PREDICTED BY RF-SCORE:    0.00 PKD
ROOT
HETATM    1  C   UNL     1     -11.571  10.589  69.977  1.00  0.00    -0.392 C  
HETATM    2  C   UNL     1     -12.194  11.858  70.480  1.00  0.00    -0.426 A  
HETATM    3  C   UNL     1     -11.954  13.081  69.837  1.00  0.00    -0.381 A  
HETATM    4  C   UNL     1     -12.500  14.274  70.327  1.00  0.00    -0.361 A  
HETATM    5  C   UNL     1     -12.986  11.838  71.630  1.00  0.00    -0.467 A  
HETATM    6  C   UNL     1     -13.264  14.254  71.504  1.00  0.00    -0.420 A  
HETATM    7  C   UNL     1     -13.514  13.026  72.138  1.00  0.00    -0.638 A  
HETATM    8  C   UNL     1     -13.829  15.500  72.128  1.00  0.00    -0.621 C  
ENDROOT
BRANCH   4   9
HETATM    9  O   UNL     1     -12.257  15.499  69.766  1.00  0.00    -0.355 OA 
BRANCH   9  10
HETATM   10  C   UNL     1     -11.028  16.154  70.092  1.00  0.00    -0.358 C  
BRANCH  10  11
HETATM   11  C   UNL     1     -10.434  16.859  68.870  1.00  0.00    -0.346 C  
BRANCH  11  12
HETATM   12  C   UNL     1     -10.875  16.198  67.553  1.00  0.00    -0.284 C  
BRANCH  12  13
HETATM   13  C   UNL     1     -10.222  16.774  66.270  1.00  0.00    -0.341 C  
HETATM   14  C   UNL     1      -8.701  16.557  66.249  1.00  0.00    -0.369 C  
HETATM   15  C   UNL     1     -10.499  18.286  66.155  1.00  0.00    -0.403 C  
HETATM   16  C   UNL     1     -10.842  16.085  65.042  1.00  0.00    -0.404 C  
HETATM   17  O   UNL     1     -11.481  16.661  64.173  1.00  0.00    -1.131 OA 
HETATM   18  O   UNL     1     -10.632  14.749  64.979  1.00  0.00    -0.386 OA 
ENDBRANCH  12  13
ENDBRANCH  11  12
ENDBRANCH  10  11
ENDBRANCH   9  10
ENDBRANCH   4   9
TORSDOF 5
ENDMDL
MODEL        6
REMARK 921   NORMALIZED FREE ENERGY PREDICTED BY IDOCK:   -6.01 KCAL/MOL
REMARK 922        TOTAL FREE ENERGY PREDICTED BY IDOCK:   -8.24 KCAL/MOL
REMARK 923 INTER-LIGAND FREE ENERGY PREDICTED BY IDOCK:   -7.99 KCAL/MOL
REMARK 924 INTRA-LIGAND FREE ENERGY PREDICTED BY IDOCK:   -0.26 KCAL/MOL
REMARK 927      BINDING AFFINITY PREDICTED BY RF-SCORE:    0.00 PKD
ROOT
HETATM    1  C   UNL     1     -13.156  15.714  71.438  1.00  0.00    -0.559 C  
HETATM    2  C   UNL     1     -12.890  14.241  71.331  1.00  0.00    -0.415 A  
HETATM    3  C   UNL     1     -12.057  13.733  70.322  1.00  0.00    -0.425 A  
HETATM    4  C   UNL     1     -11.838  12.357  70.192  1.00  0.00    -0.262 A  
HETATM    5  C   UNL     1     -13.511  13.353  72.211  1.00  0.00    -0.683 A  
HETATM    6  C   UNL     1     -12.495  11.466  71.056  1.00  0.00    -0.486 A  
HETATM    7  C   UNL     1     -13.317  11.979  72.073  1.00  0.00    -0.447 A  
HETATM    8  C   UNL     1     -12.363   9.973  70.938  1.00  0.00    -0.438 C  
ENDROOT
BRANCH   4   9
HETATM    9  O   UNL     1     -11.076  11.806  69.197  1.00  0.00    -0.232 OA 
BRANCH   9  10
HETATM   10  C   UNL     1     -11.725  11.447  67.975  1.00  0.00    -0.254 C  
BRANCH  10  11
HETATM   11  C   UNL     1     -11.354  12.411  66.846  1.00  0.00    -0.392 C  
BRANCH  11  12
HETATM   12  C   UNL     1     -11.284  11.702  65.482  1.00  0.00    -0.267 C  
BRANCH  12  13
HETATM   13  C   UNL     1     -10.963  12.618  64.273  1.00  0.00    -0.404 C  
HETATM   14  C   UNL     1     -10.088  11.909  63.228  1.00  0.00    -0.427 C  
HETATM   15  C   UNL     1     -10.228  13.891  64.740  1.00  0.00    -0.353 C  
HETATM   16  C   UNL     1     -12.283  13.050  63.611  1.00  0.00    -0.491 C  
HETATM   17  O   UNL     1     -12.672  14.207  63.532  1.00  0.00    -0.794 OA 
HETATM   18  O   UNL     1     -13.016  12.034  63.101  1.00  0.00    -0.662 OA 
ENDBRANCH  12  13
ENDBRANCH  11  12
ENDBRANCH  10  11
ENDBRANCH   9  10
ENDBRANCH   4   9
TORSDOF 5
ENDMDL
MODEL        7
REMARK 921   NORMALIZED FREE ENERGY PREDICTED BY IDOCK:   -5.95 KCAL/MOL
REMARK 922        TOTAL FREE ENERGY PREDICTED BY IDOCK:   -8.18 KCAL/MOL
REMARK 923 INTER-LIGAND FREE ENERGY PREDICTED BY IDOCK:   -7.60 KCAL/MOL
REMARK 924 INTRA-LIGAND FREE ENERGY PREDICTED BY IDOCK:   -0.58 KCAL/MOL
REMARK 927      BINDING AFFINITY PREDICTED BY RF-SCORE:    0.00 PKD
ROOT
HETATM    1  C   UNL     1     -13.727  13.242  72.429  1.00  0.00    -0.678 C  
HETATM    2  C   UNL     1     -12.833  14.035  71.522  1.00  0.00    -0.440 A  
HETATM    3  C   UNL     1     -12.279  13.455  70.371  1.00  0.00    -0.415 A  
HETATM    4  C   UNL     1     -11.412  14.177  69.543  1.00  0.00    -0.281 A  
HETATM    5  C   UNL     1     -12.504  15.353  71.843  1.00  0.00    -0.452 A  
HETATM    6  C   UNL     1     -11.054  15.490  69.892  1.00  0.00    -0.318 A  
HETATM    7  C   UNL     1     -11.621  16.072  71.037  1.00  0.00    -0.472 A  
HETATM    8  C   UNL     1     -10.079  16.306  69.090  1.00  0.00    -0.264 C  
ENDROOT
BRANCH   4   9
HETATM    9  O   UNL     1     -10.807  13.643  68.437  1.00  0.00    -0.241 OA 
BRANCH   9  10
HETATM   10  C   UNL     1     -10.468  12.254  68.463  1.00  0.00    -0.232 C  
BRANCH  10  11
HETATM   11  C   UNL     1     -10.450  11.661  67.052  1.00  0.00    -0.258 C  
BRANCH  11  12
HETATM   12  C   UNL     1     -11.540  12.272  66.156  1.00  0.00    -0.450 C  
BRANCH  12  13
HETATM   13  C   UNL     1     -11.044  12.847  64.804  1.00  0.00    -0.337 C  
HETATM   14  C   UNL     1     -10.048  11.907  64.108  1.00  0.00    -0.338 C  
HETATM   15  C   UNL     1     -10.358  14.212  65.017  1.00  0.00    -0.443 C  
HETATM   16  C   UNL     1     -12.255  13.065  63.881  1.00  0.00    -0.437 C  
HETATM   17  O   UNL     1     -12.611  14.154  63.451  1.00  0.00    -0.818 OA 
HETATM   18  O   UNL     1     -12.930  11.937  63.560  1.00  0.00    -0.724 OA 
ENDBRANCH  12  13
ENDBRANCH  11  12
ENDBRANCH  10  11
ENDBRANCH   9  10
ENDBRANCH   4   9
TORSDOF 5
ENDMDL
MODEL        8
REMARK 921   NORMALIZED FREE ENERGY PREDICTED BY IDOCK:   -5.93 KCAL/MOL
REMARK 922        TOTAL FREE ENERGY PREDICTED BY IDOCK:   -8.15 KCAL/MOL
REMARK 923 INTER-LIGAND FREE ENERGY PREDICTED BY IDOCK:   -7.73 KCAL/MOL
REMARK 924 INTRA-LIGAND FREE ENERGY PREDICTED BY IDOCK:   -0.42 KCAL/MOL
REMARK 927      BINDING AFFINITY PREDICTED BY RF-SCORE:    0.00 PKD
ROOT
HETATM    1  C   UNL     1     -11.606  10.719  70.120  1.00  0.00    -0.424 C  
HETATM    2  C   UNL     1     -12.271  11.955  70.652  1.00  0.00    -0.424 A  
HETATM    3  C   UNL     1     -12.049  13.205  70.054  1.00  0.00    -0.375 A  
HETATM    4  C   UNL     1     -12.634  14.367  70.571  1.00  0.00    -0.353 A  
HETATM    5  C   UNL     1     -13.086  11.878  71.783  1.00  0.00    -0.465 A  
HETATM    6  C   UNL     1     -13.422  14.289  71.731  1.00  0.00    -0.464 A  
HETATM    7  C   UNL     1     -13.654  13.034  72.318  1.00  0.00    -0.643 A  
HETATM    8  C   UNL     1     -14.031  15.499  72.383  1.00  0.00    -0.653 C  
ENDROOT
BRANCH   4   9
HETATM    9  O   UNL     1     -12.411  15.616  70.057  1.00  0.00    -0.369 OA 
BRANCH   9  10
HETATM   10  C   UNL     1     -11.065  16.098  70.027  1.00  0.00    -0.363 C  
BRANCH  10  11
HETATM   11  C   UNL     1     -10.753  16.790  68.698  1.00  0.00    -0.352 C  
BRANCH  11  12
HETATM   12  C   UNL     1      -9.318  17.341  68.658  1.00  0.00    -0.267 C  
BRANCH  12  13
HETATM   13  C   UNL     1      -9.158  18.730  67.986  1.00  0.00    -0.328 C  
HETATM   14  C   UNL     1      -7.792  19.365  68.291  1.00  0.00    -0.363 C  
HETATM   15  C   UNL     1     -10.261  19.693  68.470  1.00  0.00    -0.529 C  
HETATM   16  C   UNL     1      -9.306  18.567  66.464  1.00  0.00    -0.313 C  
HETATM   17  O   UNL     1     -10.188  19.086  65.794  1.00  0.00    -0.517 OA 
HETATM   18  O   UNL     1      -8.366  17.784  65.887  1.00  0.00    -0.524 OA 
ENDBRANCH  12  13
ENDBRANCH  11  12
ENDBRANCH  10  11
ENDBRANCH   9  10
ENDBRANCH   4   9
TORSDOF 5
ENDMDL
MODEL        9
REMARK 921   NORMALIZED FREE ENERGY PREDICTED BY IDOCK:   -5.92 KCAL/MOL
REMARK 922        TOTAL FREE ENERGY PREDICTED BY IDOCK:   -8.13 KCAL/MOL
REMARK 923 INTER-LIGAND FREE ENERGY PREDICTED BY IDOCK:   -7.61 KCAL/MOL
REMARK 924 INTRA-LIGAND FREE ENERGY PREDICTED BY IDOCK:   -0.52 KCAL/MOL
REMARK 927      BINDING AFFINITY PREDICTED BY RF-SCORE:    0.00 PKD
ROOT
HETATM    1  C   UNL     1     -10.589   7.943  69.754  1.00  0.00    -0.242 C  
HETATM    2  C   UNL     1     -11.355   9.135  70.248  1.00  0.00    -0.217 A  
HETATM    3  C   UNL     1     -11.202  10.390  69.641  1.00  0.00    -0.333 A  
HETATM    4  C   UNL     1     -11.883  11.514  70.124  1.00  0.00    -0.356 A  
HETATM    5  C   UNL     1     -12.196   9.013  71.356  1.00  0.00    -0.387 A  
HETATM    6  C   UNL     1     -12.699  11.394  71.261  1.00  0.00    -0.498 A  
HETATM    7  C   UNL     1     -12.860  10.133  71.858  1.00  0.00    -0.526 A  
HETATM    8  C   UNL     1     -13.410  12.566  71.878  1.00  0.00    -0.467 C  
ENDROOT
BRANCH   4   9
HETATM    9  O   UNL     1     -11.732  12.770  69.599  1.00  0.00    -0.304 OA 
BRANCH   9  10
HETATM   10  C   UNL     1     -10.869  12.925  68.470  1.00  0.00    -0.257 C  
BRANCH  10  11
HETATM   11  C   UNL     1     -11.650  13.372  67.232  1.00  0.00    -0.400 C  
BRANCH  11  12
HETATM   12  C   UNL     1     -11.557  12.345  66.090  1.00  0.00    -0.452 C  
BRANCH  12  13
HETATM   13  C   UNL     1     -11.046  12.902  64.736  1.00  0.00    -0.337 C  
HETATM   14  C   UNL     1     -10.056  11.944  64.055  1.00  0.00    -0.361 C  
HETATM   15  C   UNL     1     -10.346  14.260  64.941  1.00  0.00    -0.429 C  
HETATM   16  C   UNL     1     -12.249  13.125  63.803  1.00  0.00    -0.456 C  
HETATM   17  O   UNL     1     -12.590  14.213  63.361  1.00  0.00    -0.818 OA 
HETATM   18  O   UNL     1     -12.934  12.002  63.489  1.00  0.00    -0.774 OA 
ENDBRANCH  12  13
ENDBRANCH  11  12
ENDBRANCH  10  11
ENDBRANCH   9  10
ENDBRANCH   4   9
TORSDOF 5
ENDMDL
MODEL       10
REMARK 921   NORMALIZED FREE ENERGY PREDICTED BY IDOCK:   -5.90 KCAL/MOL
REMARK 922        TOTAL FREE ENERGY PREDICTED BY IDOCK:   -8.10 KCAL/MOL
REMARK 923 INTER-LIGAND FREE ENERGY PREDICTED BY IDOCK:   -6.94 KCAL/MOL
REMARK 924 INTRA-LIGAND FREE ENERGY PREDICTED BY IDOCK:   -1.16 KCAL/MOL
REMARK 927      BINDING AFFINITY PREDICTED BY RF-SCORE:    0.00 PKD
ROOT
HETATM    1  C   UNL     1     -10.393  19.735  66.009  1.00  0.00    -0.612 C  
HETATM    2  C   UNL     1      -9.765  18.607  66.774  1.00  0.00    -0.348 A  
HETATM    3  C   UNL     1     -10.499  17.890  67.730  1.00  0.00    -0.409 A  
HETATM    4  C   UNL     1      -9.906  16.864  68.476  1.00  0.00    -0.267 A  
HETATM    5  C   UNL     1      -8.419  18.292  66.573  1.00  0.00    -0.287 A  
HETATM    6  C   UNL     1      -8.543  16.576  68.296  1.00  0.00    -0.200 A  
HETATM    7  C   UNL     1      -7.815  17.287  67.329  1.00  0.00    -0.211 A  
HETATM    8  C   UNL     1      -7.820  15.535  69.104  1.00  0.00    -0.215 C  
ENDROOT
BRANCH   4   9
HETATM    9  O   UNL     1     -10.563  16.167  69.454  1.00  0.00    -0.254 OA 
BRANCH   9  10
HETATM   10  C   UNL     1     -11.707  15.398  69.075  1.00  0.00    -0.361 C  
BRANCH  10  11
HETATM   11  C   UNL     1     -11.302  14.160  68.272  1.00  0.00    -0.319 C  
BRANCH  11  12
HETATM   12  C   UNL     1     -12.133  14.009  66.986  1.00  0.00    -0.455 C  
BRANCH  12  13
HETATM   13  C   UNL     1     -11.313  13.842  65.681  1.00  0.00    -0.310 C  
HETATM   14  C   UNL     1     -10.286  12.703  65.786  1.00  0.00    -0.298 C  
HETATM   15  C   UNL     1     -10.560  15.146  65.346  1.00  0.00    -0.410 C  
HETATM   16  C   UNL     1     -12.277  13.541  64.521  1.00  0.00    -0.398 C  
HETATM   17  O   UNL     1     -12.431  14.260  63.544  1.00  0.00    -0.798 OA 
HETATM   18  O   UNL     1     -12.974  12.389  64.652  1.00  0.00    -0.793 OA 
ENDBRANCH  12  13
ENDBRANCH  11  12
ENDBRANCH  10  11
ENDBRANCH   9  10
ENDBRANCH   4   9
TORSDOF 5
ENDMDL
MODEL       11
REMARK 921   NORMALIZED FREE ENERGY PREDICTED BY IDOCK:   -5.89 KCAL/MOL
REMARK 922        TOTAL FREE ENERGY PREDICTED BY IDOCK:   -8.10 KCAL/MOL
REMARK 923 INTER-LIGAND FREE ENERGY PREDICTED BY IDOCK:   -7.53 KCAL/MOL
REMARK 924 INTRA-LIGAND FREE ENERGY PREDICTED BY IDOCK:   -0.57 KCAL/MOL
REMARK 927      BINDING AFFINITY PREDICTED BY RF-SCORE:    0.00 PKD
ROOT
HETATM    1  C   UNL     1     -13.848  15.666  72.687  1.00  0.00    -0.648 C  
HETATM    2  C   UNL     1     -13.306  14.532  71.867  1.00  0.00    -0.450 A  
HETATM    3  C   UNL     1     -12.623  14.776  70.666  1.00  0.00    -0.414 A  
HETATM    4  C   UNL     1     -12.151  13.721  69.877  1.00  0.00    -0.348 A  
HETATM    5  C   UNL     1     -13.519  13.213  72.272  1.00  0.00    -0.665 A  
HETATM    6  C   UNL     1     -12.401  12.396  70.270  1.00  0.00    -0.264 A  
HETATM    7  C   UNL     1     -13.072  12.156  71.479  1.00  0.00    -0.357 A  
HETATM    8  C   UNL     1     -11.984  11.211  69.444  1.00  0.00    -0.420 C  
ENDROOT
BRANCH   4   9
HETATM    9  O   UNL     1     -11.522  13.903  68.674  1.00  0.00    -0.258 OA 
BRANCH   9  10
HETATM   10  C   UNL     1     -10.103  14.078  68.679  1.00  0.00    -0.217 C  
BRANCH  10  11
HETATM   11  C   UNL     1      -9.725  15.541  68.439  1.00  0.00    -0.203 C  
BRANCH  11  12
HETATM   12  C   UNL     1     -10.737  16.257  67.528  1.00  0.00    -0.300 C  
BRANCH  12  13
HETATM   13  C   UNL     1     -10.160  16.813  66.201  1.00  0.00    -0.360 C  
HETATM   14  C   UNL     1      -8.638  16.618  66.107  1.00  0.00    -0.324 C  
HETATM   15  C   UNL     1     -10.467  18.318  66.067  1.00  0.00    -0.380 C  
HETATM   16  C   UNL     1     -10.830  16.086  65.023  1.00  0.00    -0.404 C  
HETATM   17  O   UNL     1     -11.522  16.632  64.175  1.00  0.00    -1.131 OA 
HETATM   18  O   UNL     1     -10.602  14.753  64.979  1.00  0.00    -0.386 OA 
ENDBRANCH  12  13
ENDBRANCH  11  12
ENDBRANCH  10  11
ENDBRANCH   9  10
ENDBRANCH   4   9
TORSDOF 5
ENDMDL
MODEL       12
REMARK 921   NORMALIZED FREE ENERGY PREDICTED BY IDOCK:   -5.88 KCAL/MOL
REMARK 922        TOTAL FREE ENERGY PREDICTED BY IDOCK:   -8.08 KCAL/MOL
REMARK 923 INTER-LIGAND FREE ENERGY PREDICTED BY IDOCK:   -7.44 KCAL/MOL
REMARK 924 INTRA-LIGAND FREE ENERGY PREDICTED BY IDOCK:   -0.65 KCAL/MOL
REMARK 927      BINDING AFFINITY PREDICTED BY RF-SCORE:    0.00 PKD
ROOT
HETATM    1  C   UNL     1     -13.172   9.442  72.238  1.00  0.00    -0.528 C  
HETATM    2  C   UNL     1     -12.166   9.982  71.264  1.00  0.00    -0.498 A  
HETATM    3  C   UNL     1     -12.517  10.988  70.351  1.00  0.00    -0.397 A  
HETATM    4  C   UNL     1     -11.595  11.466  69.413  1.00  0.00    -0.323 A  
HETATM    5  C   UNL     1     -10.876   9.449  71.225  1.00  0.00    -0.431 A  
HETATM    6  C   UNL     1     -10.311  10.900  69.353  1.00  0.00    -0.174 A  
HETATM    7  C   UNL     1      -9.959   9.903  70.277  1.00  0.00    -0.261 A  
HETATM    8  C   UNL     1      -9.287  11.313  68.333  1.00  0.00    -0.181 C  
ENDROOT
BRANCH   4   9
HETATM    9  O   UNL     1     -11.900  12.410  68.470  1.00  0.00    -0.314 OA 
BRANCH   9  10
HETATM   10  C   UNL     1     -11.984  13.774  68.890  1.00  0.00    -0.359 C  
BRANCH  10  11
HETATM   11  C   UNL     1     -11.677  14.730  67.734  1.00  0.00    -0.368 C  
BRANCH  11  12
HETATM   12  C   UNL     1     -11.872  14.059  66.364  1.00  0.00    -0.437 C  
BRANCH  12  13
HETATM   13  C   UNL     1     -10.862  14.484  65.267  1.00  0.00    -0.377 C  
HETATM   14  C   UNL     1     -10.345  13.282  64.460  1.00  0.00    -0.394 C  
HETATM   15  C   UNL     1      -9.651  15.203  65.897  1.00  0.00    -0.373 C  
HETATM   16  C   UNL     1     -11.552  15.470  64.309  1.00  0.00    -0.194 C  
HETATM   17  O   UNL     1     -11.205  16.630  64.140  1.00  0.00    -1.103 OA 
HETATM   18  O   UNL     1     -12.609  14.957  63.638  1.00  0.00    -0.724 OA 
ENDBRANCH  12  13
ENDBRANCH  11  12
ENDBRANCH  10  11
ENDBRANCH   9  10
ENDBRANCH   4   9
TORSDOF 5
ENDMDL
MODEL       13
REMARK 921   NORMALIZED FREE ENERGY PREDICTED BY IDOCK:   -5.74 KCAL/MOL
REMARK 922        TOTAL FREE ENERGY PREDICTED BY IDOCK:   -7.90 KCAL/MOL
REMARK 923 INTER-LIGAND FREE ENERGY PREDICTED BY IDOCK:   -7.39 KCAL/MOL
REMARK 924 INTRA-LIGAND FREE ENERGY PREDICTED BY IDOCK:   -0.51 KCAL/MOL
REMARK 927      BINDING AFFINITY PREDICTED BY RF-SCORE:    0.00 PKD
ROOT
HETATM    1  C   UNL     1     -13.516   9.043  72.682  1.00  0.00    -0.400 C  
HETATM    2  C   UNL     1     -12.401   9.431  71.756  1.00  0.00    -0.471 A  
HETATM    3  C   UNL     1     -12.643  10.248  70.641  1.00  0.00    -0.391 A  
HETATM    4  C   UNL     1     -11.615  10.579  69.751  1.00  0.00    -0.294 A  
HETATM    5  C   UNL     1     -11.112   8.940  71.971  1.00  0.00    -0.421 A  
HETATM    6  C   UNL     1     -10.329  10.052  69.951  1.00  0.00    -0.315 A  
HETATM    7  C   UNL     1     -10.087   9.246  71.076  1.00  0.00    -0.373 A  
HETATM    8  C   UNL     1      -9.189  10.308  69.005  1.00  0.00    -0.188 C  
ENDROOT
BRANCH   4   9
HETATM    9  O   UNL     1     -11.808  11.331  68.623  1.00  0.00    -0.382 OA 
BRANCH   9  10
HETATM   10  C   UNL     1     -11.864  12.753  68.767  1.00  0.00    -0.307 C  
BRANCH  10  11
HETATM   11  C   UNL     1     -11.761  13.452  67.409  1.00  0.00    -0.415 C  
BRANCH  11  12
HETATM   12  C   UNL     1     -11.526  12.453  66.263  1.00  0.00    -0.423 C  
BRANCH  12  13
HETATM   13  C   UNL     1     -11.012  13.072  64.938  1.00  0.00    -0.329 C  
HETATM   14  C   UNL     1      -9.984  12.169  64.239  1.00  0.00    -0.262 C  
HETATM   15  C   UNL     1     -10.356  14.443  65.201  1.00  0.00    -0.447 C  
HETATM   16  C   UNL     1     -12.207  13.292  63.994  1.00  0.00    -0.410 C  
HETATM   17  O   UNL     1     -12.575  14.384  63.585  1.00  0.00    -0.817 OA 
HETATM   18  O   UNL     1     -12.854  12.161  63.630  1.00  0.00    -0.746 OA 
ENDBRANCH  12  13
ENDBRANCH  11  12
ENDBRANCH  10  11
ENDBRANCH   9  10
ENDBRANCH   4   9
TORSDOF 5
ENDMDL
MODEL       14
REMARK 921   NORMALIZED FREE ENERGY PREDICTED BY IDOCK:   -5.68 KCAL/MOL
REMARK 922        TOTAL FREE ENERGY PREDICTED BY IDOCK:   -7.82 KCAL/MOL
REMARK 923 INTER-LIGAND FREE ENERGY PREDICTED BY IDOCK:   -7.37 KCAL/MOL
REMARK 924 INTRA-LIGAND FREE ENERGY PREDICTED BY IDOCK:   -0.45 KCAL/MOL
REMARK 927      BINDING AFFINITY PREDICTED BY RF-SCORE:    0.00 PKD
ROOT
HETATM    1  C   UNL     1      -6.300  17.560  69.243  1.00  0.00    -0.244 C  
HETATM    2  C   UNL     1      -7.465  18.015  68.414  1.00  0.00    -0.281 A  
HETATM    3  C   UNL     1      -8.048  17.164  67.464  1.00  0.00    -0.196 A  
HETATM    4  C   UNL     1      -9.108  17.597  66.659  1.00  0.00    -0.264 A  
HETATM    5  C   UNL     1      -7.952  19.317  68.550  1.00  0.00    -0.396 A  
HETATM    6  C   UNL     1      -9.569  18.919  66.774  1.00  0.00    -0.354 A  
HETATM    7  C   UNL     1      -8.992  19.764  67.735  1.00  0.00    -0.396 A  
HETATM    8  C   UNL     1     -10.658  19.478  65.901  1.00  0.00    -0.572 C  
ENDROOT
BRANCH   4   9
HETATM    9  O   UNL     1      -9.679  16.824  65.685  1.00  0.00    -0.539 OA 
BRANCH   9  10
HETATM   10  C   UNL     1     -10.620  15.825  66.087  1.00  0.00    -0.313 C  
BRANCH  10  11
HETATM   11  C   UNL     1     -10.001  14.427  66.035  1.00  0.00    -0.337 C  
BRANCH  11  12
HETATM   12  C   UNL     1     -10.308  13.710  64.709  1.00  0.00    -0.414 C  
BRANCH  12  13
HETATM   13  C   UNL     1     -11.089  12.377  64.840  1.00  0.00    -0.344 C  
HETATM   14  C   UNL     1     -11.127  11.870  66.290  1.00  0.00    -0.364 C  
HETATM   15  C   UNL     1     -10.447  11.286  63.959  1.00  0.00    -0.440 C  
HETATM   16  C   UNL     1     -12.531  12.594  64.349  1.00  0.00    -0.428 C  
HETATM   17  O   UNL     1     -13.030  12.020  63.391  1.00  0.00    -0.772 OA 
HETATM   18  O   UNL     1     -13.241  13.494  65.067  1.00  0.00    -0.721 OA 
ENDBRANCH  12  13
ENDBRANCH  11  12
ENDBRANCH  10  11
ENDBRANCH   9  10
ENDBRANCH   4   9
TORSDOF 5
ENDMDL
MODEL       15
REMARK 921   NORMALIZED FREE ENERGY PREDICTED BY IDOCK:   -5.61 KCAL/MOL
REMARK 922        TOTAL FREE ENERGY PREDICTED BY IDOCK:   -7.73 KCAL/MOL
REMARK 923 INTER-LIGAND FREE ENERGY PREDICTED BY IDOCK:   -7.25 KCAL/MOL
REMARK 924 INTRA-LIGAND FREE ENERGY PREDICTED BY IDOCK:   -0.48 KCAL/MOL
REMARK 927      BINDING AFFINITY PREDICTED BY RF-SCORE:    0.00 PKD
ROOT
HETATM    1  C   UNL     1     -12.442  15.827  74.478  1.00  0.00    -0.755 C  
HETATM    2  C   UNL     1     -12.382  15.369  73.050  1.00  0.00    -0.535 A  
HETATM    3  C   UNL     1     -12.816  14.085  72.688  1.00  0.00    -0.403 A  
HETATM    4  C   UNL     1     -12.724  13.637  71.365  1.00  0.00    -0.352 A  
HETATM    5  C   UNL     1     -11.845  16.206  72.070  1.00  0.00    -0.615 A  
HETATM    6  C   UNL     1     -12.148  14.469  70.391  1.00  0.00    -0.389 A  
HETATM    7  C   UNL     1     -11.727  15.758  70.754  1.00  0.00    -0.430 A  
HETATM    8  C   UNL     1     -11.955  14.036  68.965  1.00  0.00    -0.392 C  
ENDROOT
BRANCH   4   9
HETATM    9  O   UNL     1     -13.088  12.378  70.969  1.00  0.00    -0.136 OA 
BRANCH   9  10
HETATM   10  C   UNL     1     -13.237  11.375  71.976  1.00  0.00    -0.327 C  
BRANCH  10  11
HETATM   11  C   UNL     1     -13.145   9.969  71.378  1.00  0.00    -0.512 C  
BRANCH  11  12
HETATM   12  C   UNL     1     -11.717   9.632  70.915  1.00  0.00    -0.412 C  
BRANCH  12  13
HETATM   13  C   UNL     1     -11.261   8.173  71.175  1.00  0.00    -0.289 C  
HETATM   14  C   UNL     1     -10.470   7.596  69.991  1.00  0.00    -0.229 C  
HETATM   15  C   UNL     1     -12.480   7.265  71.435  1.00  0.00    -0.418 C  
HETATM   16  C   UNL     1     -10.374   8.145  72.431  1.00  0.00    -0.311 C  
HETATM   17  O   UNL     1     -10.645   7.538  73.458  1.00  0.00    -0.373 OA 
HETATM   18  O   UNL     1      -9.230   8.862  72.330  1.00  0.00    -0.376 OA 
ENDBRANCH  12  13
ENDBRANCH  11  12
ENDBRANCH  10  11
ENDBRANCH   9  10
ENDBRANCH   4   9
TORSDOF 5
ENDMDL
MODEL       16
REMARK 921   NORMALIZED FREE ENERGY PREDICTED BY IDOCK:   -5.58 KCAL/MOL
REMARK 922        TOTAL FREE ENERGY PREDICTED BY IDOCK:   -7.70 KCAL/MOL
REMARK 923 INTER-LIGAND FREE ENERGY PREDICTED BY IDOCK:   -6.90 KCAL/MOL
REMARK 924 INTRA-LIGAND FREE ENERGY PREDICTED BY IDOCK:   -0.80 KCAL/MOL
REMARK 927      BINDING AFFINITY PREDICTED BY RF-SCORE:    0.00 PKD
ROOT
HETATM    1  C   UNL     1     -13.963  15.591  72.571  1.00  0.00    -0.646 C  
HETATM    2  C   UNL     1     -13.337  14.408  71.892  1.00  0.00    -0.456 A  
HETATM    3  C   UNL     1     -12.659  14.555  70.672  1.00  0.00    -0.416 A  
HETATM    4  C   UNL     1     -12.110  13.448  70.014  1.00  0.00    -0.334 A  
HETATM    5  C   UNL     1     -13.466  13.134  72.449  1.00  0.00    -0.643 A  
HETATM    6  C   UNL     1     -12.275  12.165  70.559  1.00  0.00    -0.392 A  
HETATM    7  C   UNL     1     -12.942  12.024  71.787  1.00  0.00    -0.445 A  
HETATM    8  C   UNL     1     -11.771  10.922  69.880  1.00  0.00    -0.418 C  
ENDROOT
BRANCH   4   9
HETATM    9  O   UNL     1     -11.482  13.530  68.799  1.00  0.00    -0.266 OA 
BRANCH   9  10
HETATM   10  C   UNL     1     -12.008  14.443  67.833  1.00  0.00    -0.313 C  
BRANCH  10  11
HETATM   11  C   UNL     1     -12.379  13.724  66.534  1.00  0.00    -0.432 C  
BRANCH  11  12
HETATM   12  C   UNL     1     -11.683  12.358  66.413  1.00  0.00    -0.453 C  
BRANCH  12  13
HETATM   13  C   UNL     1     -10.542  12.284  65.366  1.00  0.00    -0.309 C  
HETATM   14  C   UNL     1     -10.432  13.575  64.540  1.00  0.00    -0.426 C  
HETATM   15  C   UNL     1     -10.772  11.106  64.399  1.00  0.00    -0.388 C  
HETATM   16  C   UNL     1      -9.210  12.044  66.097  1.00  0.00    -0.179 C  
HETATM   17  O   UNL     1      -8.507  11.053  65.950  1.00  0.00    -0.167 OA 
HETATM   18  O   UNL     1      -8.848  13.031  66.949  1.00  0.00    -0.214 OA 
ENDBRANCH  12  13
ENDBRANCH  11  12
ENDBRANCH  10  11
ENDBRANCH   9  10
ENDBRANCH   4   9
TORSDOF 5
ENDMDL
MODEL       17
REMARK 921   NORMALIZED FREE ENERGY PREDICTED BY IDOCK:   -5.54 KCAL/MOL
REMARK 922        TOTAL FREE ENERGY PREDICTED BY IDOCK:   -7.64 KCAL/MOL
REMARK 923 INTER-LIGAND FREE ENERGY PREDICTED BY IDOCK:   -7.13 KCAL/MOL
REMARK 924 INTRA-LIGAND FREE ENERGY PREDICTED BY IDOCK:   -0.52 KCAL/MOL
REMARK 927      BINDING AFFINITY PREDICTED BY RF-SCORE:    0.00 PKD
ROOT
HETATM    1  C   UNL     1     -11.949   9.970  70.746  1.00  0.00    -0.426 C  
HETATM    2  C   UNL     1     -12.358  11.408  70.879  1.00  0.00    -0.483 A  
HETATM    3  C   UNL     1     -11.904  12.372  69.967  1.00  0.00    -0.363 A  
HETATM    4  C   UNL     1     -12.250  13.721  70.110  1.00  0.00    -0.356 A  
HETATM    5  C   UNL     1     -13.162  11.809  71.948  1.00  0.00    -0.468 A  
HETATM    6  C   UNL     1     -13.027  14.124  71.207  1.00  0.00    -0.426 A  
HETATM    7  C   UNL     1     -13.491  13.155  72.111  1.00  0.00    -0.653 A  
HETATM    8  C   UNL     1     -13.384  15.561  71.465  1.00  0.00    -0.593 C  
ENDROOT
BRANCH   4   9
HETATM    9  O   UNL     1     -11.794  14.707  69.277  1.00  0.00    -0.294 OA 
BRANCH   9  10
HETATM   10  C   UNL     1     -10.415  14.682  68.899  1.00  0.00    -0.248 C  
BRANCH  10  11
HETATM   11  C   UNL     1      -9.816  16.090  68.894  1.00  0.00    -0.232 C  
BRANCH  11  12
HETATM   12  C   UNL     1     -10.604  17.049  67.986  1.00  0.00    -0.373 C  
BRANCH  12  13
HETATM   13  C   UNL     1      -9.769  18.178  67.328  1.00  0.00    -0.297 C  
HETATM   14  C   UNL     1     -10.617  19.054  66.393  1.00  0.00    -0.492 C  
HETATM   15  C   UNL     1      -8.604  17.581  66.511  1.00  0.00    -0.293 C  
HETATM   16  C   UNL     1      -9.168  19.062  68.433  1.00  0.00    -0.352 C  
HETATM   17  O   UNL     1      -7.969  19.204  68.633  1.00  0.00    -0.340 OA 
HETATM   18  O   UNL     1     -10.080  19.699  69.204  1.00  0.00    -0.438 OA 
ENDBRANCH  12  13
ENDBRANCH  11  12
ENDBRANCH  10  11
ENDBRANCH   9  10
ENDBRANCH   4   9
TORSDOF 5
ENDMDL
MODEL       18
REMARK 921   NORMALIZED FREE ENERGY PREDICTED BY IDOCK:   -5.52 KCAL/MOL
REMARK 922        TOTAL FREE ENERGY PREDICTED BY IDOCK:   -7.62 KCAL/MOL
REMARK 923 INTER-LIGAND FREE ENERGY PREDICTED BY IDOCK:   -7.06 KCAL/MOL
REMARK 924 INTRA-LIGAND FREE ENERGY PREDICTED BY IDOCK:   -0.56 KCAL/MOL
REMARK 927      BINDING AFFINITY PREDICTED BY RF-SCORE:    0.00 PKD
ROOT
HETATM    1  C   UNL     1      -9.957  10.378  69.097  1.00  0.00    -0.237 C  
HETATM    2  C   UNL     1     -10.525  11.351  68.105  1.00  0.00    -0.212 A  
HETATM    3  C   UNL     1     -10.805  12.675  68.475  1.00  0.00    -0.279 A  
HETATM    4  C   UNL     1     -11.374  13.574  67.566  1.00  0.00    -0.308 A  
HETATM    5  C   UNL     1     -10.828  10.929  66.809  1.00  0.00    -0.283 A  
HETATM    6  C   UNL     1     -11.710  13.135  66.275  1.00  0.00    -0.424 A  
HETATM    7  C   UNL     1     -11.417  11.813  65.904  1.00  0.00    -0.273 A  
HETATM    8  C   UNL     1     -12.383  14.021  65.265  1.00  0.00    -0.480 C  
ENDROOT
BRANCH   4   9
HETATM    9  O   UNL     1     -11.711  14.861  67.890  1.00  0.00    -0.340 OA 
BRANCH   9  10
HETATM   10  C   UNL     1     -11.009  15.487  68.967  1.00  0.00    -0.256 C  
BRANCH  10  11
HETATM   11  C   UNL     1     -11.953  15.830  70.121  1.00  0.00    -0.364 C  
BRANCH  11  12
HETATM   12  C   UNL     1     -11.921  14.763  71.228  1.00  0.00    -0.404 C  
BRANCH  12  13
HETATM   13  C   UNL     1     -13.198  14.675  72.103  1.00  0.00    -0.450 C  
HETATM   14  C   UNL     1     -13.600  13.221  72.395  1.00  0.00    -0.694 C  
HETATM   15  C   UNL     1     -14.381  15.375  71.404  1.00  0.00    -0.500 C  
HETATM   16  C   UNL     1     -12.941  15.399  73.436  1.00  0.00    -0.538 C  
HETATM   17  O   UNL     1     -13.553  16.387  73.817  1.00  0.00    -0.547 OA 
HETATM   18  O   UNL     1     -11.956  14.859  74.190  1.00  0.00    -0.474 OA 
ENDBRANCH  12  13
ENDBRANCH  11  12
ENDBRANCH  10  11
ENDBRANCH   9  10
ENDBRANCH   4   9
TORSDOF 5
ENDMDL
MODEL       19
REMARK 921   NORMALIZED FREE ENERGY PREDICTED BY IDOCK:   -5.44 KCAL/MOL
REMARK 922        TOTAL FREE ENERGY PREDICTED BY IDOCK:   -7.51 KCAL/MOL
REMARK 923 INTER-LIGAND FREE ENERGY PREDICTED BY IDOCK:   -7.10 KCAL/MOL
REMARK 924 INTRA-LIGAND FREE ENERGY PREDICTED BY IDOCK:   -0.41 KCAL/MOL
REMARK 927      BINDING AFFINITY PREDICTED BY RF-SCORE:    0.00 PKD
ROOT
HETATM    1  C   UNL     1     -13.767  15.727  73.058  1.00  0.00    -0.583 C  
HETATM    2  C   UNL     1     -13.224  14.650  72.165  1.00  0.00    -0.450 A  
HETATM    3  C   UNL     1     -12.603  14.970  70.949  1.00  0.00    -0.419 A  
HETATM    4  C   UNL     1     -12.131  13.967  70.093  1.00  0.00    -0.351 A  
HETATM    5  C   UNL     1     -13.376  13.308  72.519  1.00  0.00    -0.569 A  
HETATM    6  C   UNL     1     -12.320  12.619  70.435  1.00  0.00    -0.315 A  
HETATM    7  C   UNL     1     -12.930  12.303  71.660  1.00  0.00    -0.416 A  
HETATM    8  C   UNL     1     -11.901  11.486  69.540  1.00  0.00    -0.419 C  
ENDROOT
BRANCH   4   9
HETATM    9  O   UNL     1     -11.563  14.223  68.874  1.00  0.00    -0.267 OA 
BRANCH   9  10
HETATM   10  C   UNL     1     -10.167  14.530  68.836  1.00  0.00    -0.229 C  
BRANCH  10  11
HETATM   11  C   UNL     1      -9.876  15.672  67.859  1.00  0.00    -0.217 C  
BRANCH  11  12
HETATM   12  C   UNL     1     -10.499  17.000  68.322  1.00  0.00    -0.363 C  
BRANCH  12  13
HETATM   13  C   UNL     1      -9.770  18.280  67.838  1.00  0.00    -0.314 C  
HETATM   14  C   UNL     1      -8.292  18.014  67.512  1.00  0.00    -0.233 C  
HETATM   15  C   UNL     1      -9.839  19.380  68.917  1.00  0.00    -0.523 C  
HETATM   16  C   UNL     1     -10.473  18.808  66.577  1.00  0.00    -0.427 C  
HETATM   17  O   UNL     1     -11.026  19.896  66.496  1.00  0.00    -0.359 OA 
HETATM   18  O   UNL     1     -10.445  17.963  65.520  1.00  0.00    -0.650 OA 
ENDBRANCH  12  13
ENDBRANCH  11  12
ENDBRANCH  10  11
ENDBRANCH   9  10
ENDBRANCH   4   9
TORSDOF 5
ENDMDL
MODEL       20
REMARK 921   NORMALIZED FREE ENERGY PREDICTED BY IDOCK:   -5.43 KCAL/MOL
REMARK 922        TOTAL FREE ENERGY PREDICTED BY IDOCK:   -7.50 KCAL/MOL
REMARK 923 INTER-LIGAND FREE ENERGY PREDICTED BY IDOCK:   -7.04 KCAL/MOL
REMARK 924 INTRA-LIGAND FREE ENERGY PREDICTED BY IDOCK:   -0.46 KCAL/MOL
REMARK 927      BINDING AFFINITY PREDICTED BY RF-SCORE:    0.00 PKD
ROOT
HETATM    1  C   UNL     1     -12.770  15.757  74.033  1.00  0.00    -0.718 C  
HETATM    2  C   UNL     1     -12.626  15.187  72.653  1.00  0.00    -0.466 A  
HETATM    3  C   UNL     1     -12.801  13.814  72.420  1.00  0.00    -0.353 A  
HETATM    4  C   UNL     1     -12.628  13.271  71.141  1.00  0.00    -0.325 A  
HETATM    5  C   UNL     1     -12.268  16.016  71.588  1.00  0.00    -0.514 A  
HETATM    6  C   UNL     1     -12.231  14.103  70.083  1.00  0.00    -0.415 A  
HETATM    7  C   UNL     1     -12.070  15.479  70.316  1.00  0.00    -0.415 A  
HETATM    8  C   UNL     1     -11.962  13.584  68.698  1.00  0.00    -0.378 C  
ENDROOT
BRANCH   4   9
HETATM    9  O   UNL     1     -12.738  11.933  70.870  1.00  0.00    -0.297 OA 
BRANCH   9  10
HETATM   10  C   UNL     1     -13.388  11.105  71.837  1.00  0.00    -0.304 C  
BRANCH  10  11
HETATM   11  C   UNL     1     -13.313   9.628  71.443  1.00  0.00    -0.444 C  
BRANCH  11  12
HETATM   12  C   UNL     1     -12.456   8.811  72.425  1.00  0.00    -0.421 C  
BRANCH  12  13
HETATM   13  C   UNL     1     -11.207   8.129  71.809  1.00  0.00    -0.329 C  
HETATM   14  C   UNL     1     -10.095   7.915  72.848  1.00  0.00    -0.376 C  
HETATM   15  C   UNL     1     -10.639   8.982  70.657  1.00  0.00    -0.290 C  
HETATM   16  C   UNL     1     -11.619   6.765  71.231  1.00  0.00    -0.320 C  
HETATM   17  O   UNL     1     -11.544   6.463  70.048  1.00  0.00    -0.425 OA 
HETATM   18  O   UNL     1     -12.091   5.884  72.143  1.00  0.00    -0.252 OA 
ENDBRANCH  12  13
ENDBRANCH  11  12
ENDBRANCH  10  11
ENDBRANCH   9  10
ENDBRANCH   4   9
TORSDOF 5
ENDMDL
MODEL       21
REMARK 921   NORMALIZED FREE ENERGY PREDICTED BY IDOCK:   -5.39 KCAL/MOL
REMARK 922        TOTAL FREE ENERGY PREDICTED BY IDOCK:   -7.45 KCAL/MOL
REMARK 923 INTER-LIGAND FREE ENERGY PREDICTED BY IDOCK:   -6.92 KCAL/MOL
REMARK 924 INTRA-LIGAND FREE ENERGY PREDICTED BY IDOCK:   -0.53 KCAL/MOL
REMARK 927      BINDING AFFINITY PREDICTED BY RF-SCORE:    0.00 PKD
ROOT
HETATM    1  C   UNL     1      -6.502  19.279  69.534  1.00  0.00    -0.338 C  
HETATM    2  C   UNL     1      -7.654  19.362  68.575  1.00  0.00    -0.369 A  
HETATM    3  C   UNL     1      -8.754  18.500  68.697  1.00  0.00    -0.325 A  
HETATM    4  C   UNL     1      -9.812  18.546  67.781  1.00  0.00    -0.312 A  
HETATM    5  C   UNL     1      -7.617  20.272  67.517  1.00  0.00    -0.341 A  
HETATM    6  C   UNL     1      -9.752  19.437  66.698  1.00  0.00    -0.441 A  
HETATM    7  C   UNL     1      -8.656  20.307  66.587  1.00  0.00    -0.303 A  
HETATM    8  C   UNL     1     -10.816  19.500  65.638  1.00  0.00    -0.354 C  
ENDROOT
BRANCH   4   9
HETATM    9  O   UNL     1     -10.885  17.696  67.826  1.00  0.00    -0.367 OA 
BRANCH   9  10
HETATM   10  C   UNL     1     -10.829  16.594  68.736  1.00  0.00    -0.331 C  
BRANCH  10  11
HETATM   11  C   UNL     1     -10.499  15.289  68.007  1.00  0.00    -0.248 C  
BRANCH  11  12
HETATM   12  C   UNL     1     -11.720  14.719  67.265  1.00  0.00    -0.366 C  
BRANCH  12  13
HETATM   13  C   UNL     1     -11.433  14.155  65.850  1.00  0.00    -0.338 C  
HETATM   14  C   UNL     1      -9.938  13.872  65.633  1.00  0.00    -0.298 C  
HETATM   15  C   UNL     1     -11.902  15.148  64.767  1.00  0.00    -0.291 C  
HETATM   16  C   UNL     1     -12.221  12.846  65.666  1.00  0.00    -0.463 C  
HETATM   17  O   UNL     1     -13.096  12.677  64.829  1.00  0.00    -0.852 OA 
HETATM   18  O   UNL     1     -11.875  11.855  66.520  1.00  0.00    -0.579 OA 
ENDBRANCH  12  13
ENDBRANCH  11  12
ENDBRANCH  10  11
ENDBRANCH   9  10
ENDBRANCH   4   9
TORSDOF 5
ENDMDL
MODEL       22
REMARK 921   NORMALIZED FREE ENERGY PREDICTED BY IDOCK:   -5.38 KCAL/MOL
REMARK 922        TOTAL FREE ENERGY PREDICTED BY IDOCK:   -7.43 KCAL/MOL
REMARK 923 INTER-LIGAND FREE ENERGY PREDICTED BY IDOCK:   -6.75 KCAL/MOL
REMARK 924 INTRA-LIGAND FREE ENERGY PREDICTED BY IDOCK:   -0.68 KCAL/MOL
REMARK 927      BINDING AFFINITY PREDICTED BY RF-SCORE:    0.00 PKD
ROOT
HETATM    1  C   UNL     1     -12.193  10.642  70.883  1.00  0.00    -0.497 C  
HETATM    2  C   UNL     1     -11.992  11.651  69.790  1.00  0.00    -0.402 A  
HETATM    3  C   UNL     1     -12.104  13.025  70.050  1.00  0.00    -0.367 A  
HETATM    4  C   UNL     1     -11.958  13.968  69.026  1.00  0.00    -0.357 A  
HETATM    5  C   UNL     1     -11.736  11.225  68.485  1.00  0.00    -0.378 A  
HETATM    6  C   UNL     1     -11.739  13.533  67.709  1.00  0.00    -0.394 A  
HETATM    7  C   UNL     1     -11.613  12.157  67.455  1.00  0.00    -0.413 A  
HETATM    8  C   UNL     1     -11.636  14.480  66.547  1.00  0.00    -0.379 C  
ENDROOT
BRANCH   4   9
HETATM    9  O   UNL     1     -12.106  15.316  69.217  1.00  0.00    -0.306 OA 
BRANCH   9  10
HETATM   10  C   UNL     1     -11.133  15.991  70.018  1.00  0.00    -0.362 C  
BRANCH  10  11
HETATM   11  C   UNL     1      -9.986  16.529  69.160  1.00  0.00    -0.275 C  
BRANCH  11  12
HETATM   12  C   UNL     1     -10.457  17.623  68.188  1.00  0.00    -0.386 C  
BRANCH  12  13
HETATM   13  C   UNL     1      -9.329  18.470  67.544  1.00  0.00    -0.290 C  
HETATM   14  C   UNL     1      -8.425  17.629  66.629  1.00  0.00    -0.285 C  
HETATM   15  C   UNL     1      -8.451  19.117  68.634  1.00  0.00    -0.397 C  
HETATM   16  C   UNL     1      -9.965  19.600  66.716  1.00  0.00    -0.409 C  
HETATM   17  O   UNL     1      -9.819  20.793  66.944  1.00  0.00    -0.380 OA 
HETATM   18  O   UNL     1     -10.728  19.179  65.681  1.00  0.00    -0.477 OA 
ENDBRANCH  12  13
ENDBRANCH  11  12
ENDBRANCH  10  11
ENDBRANCH   9  10
ENDBRANCH   4   9
TORSDOF 5
ENDMDL
MODEL       23
REMARK 921   NORMALIZED FREE ENERGY PREDICTED BY IDOCK:   -5.34 KCAL/MOL
REMARK 922        TOTAL FREE ENERGY PREDICTED BY IDOCK:   -7.38 KCAL/MOL
REMARK 923 INTER-LIGAND FREE ENERGY PREDICTED BY IDOCK:   -5.96 KCAL/MOL
REMARK 924 INTRA-LIGAND FREE ENERGY PREDICTED BY IDOCK:   -1.42 KCAL/MOL
REMARK 927      BINDING AFFINITY PREDICTED BY RF-SCORE:    0.00 PKD
ROOT
HETATM    1  C   UNL     1     -12.233  12.354  63.435  1.00  0.00    -0.623 C  
HETATM    2  C   UNL     1     -11.597  12.074  64.766  1.00  0.00    -0.344 A  
HETATM    3  C   UNL     1     -12.110  12.642  65.941  1.00  0.00    -0.459 A  
HETATM    4  C   UNL     1     -11.496  12.418  67.179  1.00  0.00    -0.357 A  
HETATM    5  C   UNL     1     -10.453  11.278  64.839  1.00  0.00    -0.375 A  
HETATM    6  C   UNL     1     -10.324  11.648  67.242  1.00  0.00    -0.232 A  
HETATM    7  C   UNL     1      -9.821  11.069  66.065  1.00  0.00    -0.273 A  
HETATM    8  C   UNL     1      -9.571  11.416  68.522  1.00  0.00    -0.190 C  
ENDROOT
BRANCH   4   9
HETATM    9  O   UNL     1     -11.927  12.988  68.348  1.00  0.00    -0.336 OA 
BRANCH   9  10
HETATM   10  C   UNL     1     -12.017  14.413  68.405  1.00  0.00    -0.293 C  
BRANCH  10  11
HETATM   11  C   UNL     1     -10.659  15.043  68.724  1.00  0.00    -0.240 C  
BRANCH  11  12
HETATM   12  C   UNL     1     -10.359  16.253  67.823  1.00  0.00    -0.287 C  
BRANCH  12  13
HETATM   13  C   UNL     1      -9.525  15.946  66.553  1.00  0.00    -0.299 C  
HETATM   14  C   UNL     1     -10.414  15.712  65.321  1.00  0.00    -0.439 C  
HETATM   15  C   UNL     1      -8.654  14.692  66.769  1.00  0.00    -0.195 C  
HETATM   16  C   UNL     1      -8.586  17.132  66.274  1.00  0.00    -0.241 C  
HETATM   17  O   UNL     1      -7.365  17.065  66.282  1.00  0.00    -0.274 OA 
HETATM   18  O   UNL     1      -9.216  18.300  66.011  1.00  0.00    -0.508 OA 
ENDBRANCH  12  13
ENDBRANCH  11  12
ENDBRANCH  10  11
ENDBRANCH   9  10
ENDBRANCH   4   9
TORSDOF 5
ENDMDL
MODEL       24
REMARK 921   NORMALIZED FREE ENERGY PREDICTED BY IDOCK:   -5.33 KCAL/MOL
REMARK 922        TOTAL FREE ENERGY PREDICTED BY IDOCK:   -7.38 KCAL/MOL
REMARK 923 INTER-LIGAND FREE ENERGY PREDICTED BY IDOCK:   -6.68 KCAL/MOL
REMARK 924 INTRA-LIGAND FREE ENERGY PREDICTED BY IDOCK:   -0.70 KCAL/MOL
REMARK 927      BINDING AFFINITY PREDICTED BY RF-SCORE:    0.00 PKD
ROOT
HETATM    1  C   UNL     1     -12.129  13.983  64.211  1.00  0.00    -0.476 C  
HETATM    2  C   UNL     1     -11.986  13.450  65.606  1.00  0.00    -0.439 A  
HETATM    3  C   UNL     1     -12.075  14.305  66.715  1.00  0.00    -0.446 A  
HETATM    4  C   UNL     1     -11.901  13.820  68.017  1.00  0.00    -0.373 A  
HETATM    5  C   UNL     1     -11.715  12.096  65.812  1.00  0.00    -0.391 A  
HETATM    6  C   UNL     1     -11.591  12.465  68.216  1.00  0.00    -0.384 A  
HETATM    7  C   UNL     1     -11.517  11.609  67.105  1.00  0.00    -0.344 A  
HETATM    8  C   UNL     1     -11.327  11.883  69.576  1.00  0.00    -0.306 C  
ENDROOT
BRANCH   4   9
HETATM    9  O   UNL     1     -11.929  14.619  69.128  1.00  0.00    -0.308 OA 
BRANCH   9  10
HETATM   10  C   UNL     1     -11.828  16.033  68.940  1.00  0.00    -0.242 C  
BRANCH  10  11
HETATM   11  C   UNL     1     -10.408  16.529  69.220  1.00  0.00    -0.318 C  
BRANCH  11  12
HETATM   12  C   UNL     1      -9.528  16.500  67.958  1.00  0.00    -0.222 C  
BRANCH  12  13
HETATM   13  C   UNL     1      -9.087  17.886  67.423  1.00  0.00    -0.245 C  
HETATM   14  C   UNL     1      -7.826  17.794  66.550  1.00  0.00    -0.301 C  
HETATM   15  C   UNL     1      -8.800  18.850  68.593  1.00  0.00    -0.374 C  
HETATM   16  C   UNL     1     -10.231  18.485  66.587  1.00  0.00    -0.399 C  
HETATM   17  O   UNL     1     -10.822  19.521  66.862  1.00  0.00    -0.476 OA 
HETATM   18  O   UNL     1     -10.561  17.769  65.488  1.00  0.00    -0.632 OA 
ENDBRANCH  12  13
ENDBRANCH  11  12
ENDBRANCH  10  11
ENDBRANCH   9  10
ENDBRANCH   4   9
TORSDOF 5
ENDMDL
MODEL       25
REMARK 921   NORMALIZED FREE ENERGY PREDICTED BY IDOCK:   -5.30 KCAL/MOL
REMARK 922        TOTAL FREE ENERGY PREDICTED BY IDOCK:   -7.34 KCAL/MOL
REMARK 923 INTER-LIGAND FREE ENERGY PREDICTED BY IDOCK:   -6.79 KCAL/MOL
REMARK 924 INTRA-LIGAND FREE ENERGY PREDICTED BY IDOCK:   -0.55 KCAL/MOL
REMARK 927      BINDING AFFINITY PREDICTED BY RF-SCORE:    0.00 PKD
ROOT
HETATM    1  C   UNL     1      -9.823   9.580  65.712  1.00  0.00    -0.363 C  
HETATM    2  C   UNL     1     -10.431  10.902  65.348  1.00  0.00    -0.291 A  
HETATM    3  C   UNL     1     -10.853  11.798  66.342  1.00  0.00    -0.325 A  
HETATM    4  C   UNL     1     -11.459  13.015  66.007  1.00  0.00    -0.335 A  
HETATM    5  C   UNL     1     -10.626  11.235  64.006  1.00  0.00    -0.450 A  
HETATM    6  C   UNL     1     -11.687  13.327  64.657  1.00  0.00    -0.403 A  
HETATM    7  C   UNL     1     -11.251  12.435  63.665  1.00  0.00    -0.544 A  
HETATM    8  C   UNL     1     -12.389  14.583  64.222  1.00  0.00    -0.396 C  
ENDROOT
BRANCH   4   9
HETATM    9  O   UNL     1     -11.933  13.901  66.937  1.00  0.00    -0.396 OA 
BRANCH   9  10
HETATM   10  C   UNL     1     -10.980  14.638  67.707  1.00  0.00    -0.286 C  
BRANCH  10  11
HETATM   11  C   UNL     1     -10.553  15.917  66.984  1.00  0.00    -0.306 C  
BRANCH  11  12
HETATM   12  C   UNL     1     -10.538  17.134  67.924  1.00  0.00    -0.376 C  
BRANCH  12  13
HETATM   13  C   UNL     1      -9.811  18.389  67.375  1.00  0.00    -0.323 C  
HETATM   14  C   UNL     1      -9.740  19.517  68.417  1.00  0.00    -0.498 C  
HETATM   15  C   UNL     1     -10.534  18.928  66.124  1.00  0.00    -0.521 C  
HETATM   16  C   UNL     1      -8.382  17.997  66.964  1.00  0.00    -0.236 C  
HETATM   17  O   UNL     1      -7.946  18.066  65.824  1.00  0.00    -0.532 OA 
HETATM   18  O   UNL     1      -7.605  17.553  67.979  1.00  0.00    -0.207 OA 
ENDBRANCH  12  13
ENDBRANCH  11  12
ENDBRANCH  10  11
ENDBRANCH   9  10
ENDBRANCH   4   9
TORSDOF 5
ENDMDL
MODEL       26
REMARK 921   NORMALIZED FREE ENERGY PREDICTED BY IDOCK:   -5.28 KCAL/MOL
REMARK 922        TOTAL FREE ENERGY PREDICTED BY IDOCK:   -7.31 KCAL/MOL
REMARK 923 INTER-LIGAND FREE ENERGY PREDICTED BY IDOCK:   -6.50 KCAL/MOL
REMARK 924 INTRA-LIGAND FREE ENERGY PREDICTED BY IDOCK:   -0.81 KCAL/MOL
REMARK 927      BINDING AFFINITY PREDICTED BY RF-SCORE:    0.00 PKD
ROOT
HETATM    1  C   UNL     1     -10.899  11.357  67.645  1.00  0.00    -0.286 C  
HETATM    2  C   UNL     1     -11.504  11.914  68.900  1.00  0.00    -0.358 A  
HETATM    3  C   UNL     1     -12.010  11.063  69.894  1.00  0.00    -0.427 A  
HETATM    4  C   UNL     1     -12.612  11.578  71.048  1.00  0.00    -0.357 A  
HETATM    5  C   UNL     1     -11.612  13.296  69.069  1.00  0.00    -0.359 A  
HETATM    6  C   UNL     1     -12.752  12.967  71.195  1.00  0.00    -0.372 A  
HETATM    7  C   UNL     1     -12.232  13.817  70.205  1.00  0.00    -0.429 A  
HETATM    8  C   UNL     1     -13.445  13.594  72.373  1.00  0.00    -0.685 C  
ENDROOT
BRANCH   4   9
HETATM    9  O   UNL     1     -13.165  10.792  72.024  1.00  0.00    -0.484 OA 
BRANCH   9  10
HETATM   10  C   UNL     1     -13.627   9.491  71.654  1.00  0.00    -0.350 C  
BRANCH  10  11
HETATM   11  C   UNL     1     -12.844   8.396  72.383  1.00  0.00    -0.323 C  
BRANCH  11  12
HETATM   12  C   UNL     1     -12.439   7.251  71.439  1.00  0.00    -0.418 C  
BRANCH  12  13
HETATM   13  C   UNL     1     -10.928   7.169  71.105  1.00  0.00    -0.272 C  
HETATM   14  C   UNL     1     -10.291   5.870  71.625  1.00  0.00    -0.268 C  
HETATM   15  C   UNL     1     -10.172   8.362  71.725  1.00  0.00    -0.323 C  
HETATM   16  C   UNL     1     -10.750   7.236  69.579  1.00  0.00    -0.232 C  
HETATM   17  O   UNL     1     -10.151   8.125  68.990  1.00  0.00    -0.194 OA 
HETATM   18  O   UNL     1     -11.319   6.215  68.899  1.00  0.00    -0.367 OA 
ENDBRANCH  12  13
ENDBRANCH  11  12
ENDBRANCH  10  11
ENDBRANCH   9  10
ENDBRANCH   4   9
TORSDOF 5
ENDMDL
MODEL       27
REMARK 921   NORMALIZED FREE ENERGY PREDICTED BY IDOCK:   -5.27 KCAL/MOL
REMARK 922        TOTAL FREE ENERGY PREDICTED BY IDOCK:   -7.30 KCAL/MOL
REMARK 923 INTER-LIGAND FREE ENERGY PREDICTED BY IDOCK:   -6.52 KCAL/MOL
REMARK 924 INTRA-LIGAND FREE ENERGY PREDICTED BY IDOCK:   -0.78 KCAL/MOL
REMARK 927      BINDING AFFINITY PREDICTED BY RF-SCORE:    0.00 PKD
ROOT
HETATM    1  C   UNL     1      -9.406  10.388  62.869  1.00  0.00    -0.342 C  
HETATM    2  C   UNL     1     -10.009  10.685  64.211  1.00  0.00    -0.413 A  
HETATM    3  C   UNL     1     -11.005  11.663  64.351  1.00  0.00    -0.399 A  
HETATM    4  C   UNL     1     -11.542  11.973  65.606  1.00  0.00    -0.296 A  
HETATM    5  C   UNL     1      -9.547  10.018  65.347  1.00  0.00    -0.342 A  
HETATM    6  C   UNL     1     -11.047  11.326  66.750  1.00  0.00    -0.314 A  
HETATM    7  C   UNL     1     -10.060  10.337  66.605  1.00  0.00    -0.281 A  
HETATM    8  C   UNL     1     -11.526  11.649  68.138  1.00  0.00    -0.382 C  
ENDROOT
BRANCH   4   9
HETATM    9  O   UNL     1     -12.479  12.951  65.804  1.00  0.00    -0.531 OA 
BRANCH   9  10
HETATM   10  C   UNL     1     -12.126  14.295  65.468  1.00  0.00    -0.394 C  
BRANCH  10  11
HETATM   11  C   UNL     1     -11.354  14.967  66.605  1.00  0.00    -0.326 C  
BRANCH  11  12
HETATM   12  C   UNL     1      -9.913  15.318  66.196  1.00  0.00    -0.325 C  
BRANCH  12  13
HETATM   13  C   UNL     1      -9.336  16.608  66.835  1.00  0.00    -0.246 C  
HETATM   14  C   UNL     1      -7.982  16.999  66.223  1.00  0.00    -0.343 C  
HETATM   15  C   UNL     1      -9.148  16.420  68.354  1.00  0.00    -0.214 C  
HETATM   16  C   UNL     1     -10.333  17.759  66.620  1.00  0.00    -0.345 C  
HETATM   17  O   UNL     1     -10.898  18.363  67.521  1.00  0.00    -0.408 OA 
HETATM   18  O   UNL     1     -10.559  18.075  65.324  1.00  0.00    -0.615 OA 
ENDBRANCH  12  13
ENDBRANCH  11  12
ENDBRANCH  10  11
ENDBRANCH   9  10
ENDBRANCH   4   9
TORSDOF 5
ENDMDL
MODEL       28
REMARK 921   NORMALIZED FREE ENERGY PREDICTED BY IDOCK:   -5.27 KCAL/MOL
REMARK 922        TOTAL FREE ENERGY PREDICTED BY IDOCK:   -7.29 KCAL/MOL
REMARK 923 INTER-LIGAND FREE ENERGY PREDICTED BY IDOCK:   -6.34 KCAL/MOL
REMARK 924 INTRA-LIGAND FREE ENERGY PREDICTED BY IDOCK:   -0.95 KCAL/MOL
REMARK 927      BINDING AFFINITY PREDICTED BY RF-SCORE:    0.00 PKD
ROOT
HETATM    1  C   UNL     1      -9.133   9.213  65.424  1.00  0.00    -0.271 C  
HETATM    2  C   UNL     1      -9.952  10.419  65.071  1.00  0.00    -0.399 A  
HETATM    3  C   UNL     1     -10.690  11.099  66.051  1.00  0.00    -0.272 A  
HETATM    4  C   UNL     1     -11.489  12.201  65.719  1.00  0.00    -0.361 A  
HETATM    5  C   UNL     1     -10.023  10.851  63.745  1.00  0.00    -0.408 A  
HETATM    6  C   UNL     1     -11.586  12.607  64.378  1.00  0.00    -0.415 A  
HETATM    7  C   UNL     1     -10.834  11.932  63.402  1.00  0.00    -0.469 A  
HETATM    8  C   UNL     1     -12.471  13.737  63.934  1.00  0.00    -0.260 C  
ENDROOT
BRANCH   4   9
HETATM    9  O   UNL     1     -12.266  12.868  66.627  1.00  0.00    -0.434 OA 
BRANCH   9  10
HETATM   10  C   UNL     1     -11.860  12.852  67.998  1.00  0.00    -0.343 C  
BRANCH  10  11
HETATM   11  C   UNL     1     -11.718  14.271  68.551  1.00  0.00    -0.376 C  
BRANCH  11  12
HETATM   12  C   UNL     1     -11.524  15.309  67.433  1.00  0.00    -0.246 C  
BRANCH  12  13
HETATM   13  C   UNL     1     -10.072  15.819  67.245  1.00  0.00    -0.247 C  
HETATM   14  C   UNL     1      -9.186  14.788  66.529  1.00  0.00    -0.304 C  
HETATM   15  C   UNL     1      -9.433  16.145  68.610  1.00  0.00    -0.227 C  
HETATM   16  C   UNL     1     -10.102  17.114  66.415  1.00  0.00    -0.320 C  
HETATM   17  O   UNL     1      -9.724  18.205  66.819  1.00  0.00    -0.296 OA 
HETATM   18  O   UNL     1     -10.592  16.970  65.162  1.00  0.00    -0.688 OA 
ENDBRANCH  12  13
ENDBRANCH  11  12
ENDBRANCH  10  11
ENDBRANCH   9  10
ENDBRANCH   4   9
TORSDOF 5
ENDMDL
MODEL       29
REMARK 921   NORMALIZED FREE ENERGY PREDICTED BY IDOCK:   -5.27 KCAL/MOL
REMARK 922        TOTAL FREE ENERGY PREDICTED BY IDOCK:   -7.29 KCAL/MOL
REMARK 923 INTER-LIGAND FREE ENERGY PREDICTED BY IDOCK:   -6.73 KCAL/MOL
REMARK 924 INTRA-LIGAND FREE ENERGY PREDICTED BY IDOCK:   -0.56 KCAL/MOL
REMARK 927      BINDING AFFINITY PREDICTED BY RF-SCORE:    0.00 PKD
ROOT
HETATM    1  C   UNL     1     -13.336   9.297  72.333  1.00  0.00    -0.521 C  
HETATM    2  C   UNL     1     -12.958  10.571  71.636  1.00  0.00    -0.581 A  
HETATM    3  C   UNL     1     -12.084  10.558  70.539  1.00  0.00    -0.437 A  
HETATM    4  C   UNL     1     -11.696  11.747  69.911  1.00  0.00    -0.323 A  
HETATM    5  C   UNL     1     -13.440  11.794  72.107  1.00  0.00    -0.273 A  
HETATM    6  C   UNL     1     -12.153  12.977  70.412  1.00  0.00    -0.391 A  
HETATM    7  C   UNL     1     -13.039  12.985  71.502  1.00  0.00    -0.400 A  
HETATM    8  C   UNL     1     -11.730  14.298  69.834  1.00  0.00    -0.373 C  
ENDROOT
BRANCH   4   9
HETATM    9  O   UNL     1     -10.808  11.794  68.869  1.00  0.00    -0.216 OA 
BRANCH   9  10
HETATM   10  C   UNL     1     -10.652  10.620  68.069  1.00  0.00    -0.211 C  
BRANCH  10  11
HETATM   11  C   UNL     1     -11.034  10.888  66.611  1.00  0.00    -0.212 C  
BRANCH  11  12
HETATM   12  C   UNL     1     -11.538  12.326  66.402  1.00  0.00    -0.445 C  
BRANCH  12  13
HETATM   13  C   UNL     1     -11.623  12.792  64.926  1.00  0.00    -0.369 C  
HETATM   14  C   UNL     1     -12.405  11.800  64.051  1.00  0.00    -0.341 C  
HETATM   15  C   UNL     1     -10.210  12.957  64.330  1.00  0.00    -0.342 C  
HETATM   16  C   UNL     1     -12.321  14.162  64.875  1.00  0.00    -0.430 C  
HETATM   17  O   UNL     1     -11.797  15.192  64.474  1.00  0.00    -0.416 OA 
HETATM   18  O   UNL     1     -13.599  14.161  65.320  1.00  0.00    -0.446 OA 
ENDBRANCH  12  13
ENDBRANCH  11  12
ENDBRANCH  10  11
ENDBRANCH   9  10
ENDBRANCH   4   9
TORSDOF 5
ENDMDL
MODEL       30
REMARK 921   NORMALIZED FREE ENERGY PREDICTED BY IDOCK:   -5.26 KCAL/MOL
REMARK 922        TOTAL FREE ENERGY PREDICTED BY IDOCK:   -7.28 KCAL/MOL
REMARK 923 INTER-LIGAND FREE ENERGY PREDICTED BY IDOCK:   -6.75 KCAL/MOL
REMARK 924 INTRA-LIGAND FREE ENERGY PREDICTED BY IDOCK:   -0.53 KCAL/MOL
REMARK 927      BINDING AFFINITY PREDICTED BY RF-SCORE:    0.00 PKD
ROOT
HETATM    1  C   UNL     1     -10.104  11.391  63.800  1.00  0.00    -0.408 C  
HETATM    2  C   UNL     1     -10.526  11.201  65.228  1.00  0.00    -0.326 A  
HETATM    3  C   UNL     1     -11.144  12.241  65.939  1.00  0.00    -0.360 A  
HETATM    4  C   UNL     1     -11.502  12.083  67.284  1.00  0.00    -0.335 A  
HETATM    5  C   UNL     1     -10.262   9.995  65.880  1.00  0.00    -0.275 A  
HETATM    6  C   UNL     1     -11.200  10.881  67.944  1.00  0.00    -0.387 A  
HETATM    7  C   UNL     1     -10.594   9.838  67.225  1.00  0.00    -0.320 A  
HETATM    8  C   UNL     1     -11.494  10.660  69.402  1.00  0.00    -0.356 C  
ENDROOT
BRANCH   4   9
HETATM    9  O   UNL     1     -12.062  13.080  68.036  1.00  0.00    -0.318 OA 
BRANCH   9  10
HETATM   10  C   UNL     1     -11.382  14.337  68.096  1.00  0.00    -0.288 C  
BRANCH  10  11
HETATM   11  C   UNL     1     -11.860  15.169  69.288  1.00  0.00    -0.347 C  
BRANCH  11  12
HETATM   12  C   UNL     1     -12.304  14.287  70.467  1.00  0.00    -0.430 C  
BRANCH  12  13
HETATM   13  C   UNL     1     -12.917  15.046  71.672  1.00  0.00    -0.432 C  
HETATM   14  C   UNL     1     -14.381  15.441  71.421  1.00  0.00    -0.500 C  
HETATM   15  C   UNL     1     -12.112  16.327  71.969  1.00  0.00    -0.493 C  
HETATM   16  C   UNL     1     -12.849  14.145  72.916  1.00  0.00    -0.335 C  
HETATM   17  O   UNL     1     -12.214  14.408  73.928  1.00  0.00    -0.294 OA 
HETATM   18  O   UNL     1     -13.560  12.998  72.821  1.00  0.00    -0.547 OA 
ENDBRANCH  12  13
ENDBRANCH  11  12
ENDBRANCH  10  11
ENDBRANCH   9  10
ENDBRANCH   4   9
TORSDOF 5
ENDMDL
MODEL       31
REMARK 921   NORMALIZED FREE ENERGY PREDICTED BY IDOCK:   -5.26 KCAL/MOL
REMARK 922        TOTAL FREE ENERGY PREDICTED BY IDOCK:   -7.28 KCAL/MOL
REMARK 923 INTER-LIGAND FREE ENERGY PREDICTED BY IDOCK:   -7.03 KCAL/MOL
REMARK 924 INTRA-LIGAND FREE ENERGY PREDICTED BY IDOCK:   -0.25 KCAL/MOL
REMARK 927      BINDING AFFINITY PREDICTED BY RF-SCORE:    0.00 PKD
ROOT
HETATM    1  C   UNL     1     -10.943   7.155  70.823  1.00  0.00    -0.278 C  
HETATM    2  C   UNL     1     -11.625   8.474  71.042  1.00  0.00    -0.317 A  
HETATM    3  C   UNL     1     -11.266   9.602  70.290  1.00  0.00    -0.324 A  
HETATM    4  C   UNL     1     -11.870  10.844  70.518  1.00  0.00    -0.360 A  
HETATM    5  C   UNL     1     -12.597   8.601  72.037  1.00  0.00    -0.434 A  
HETATM    6  C   UNL     1     -12.819  10.975  71.545  1.00  0.00    -0.555 A  
HETATM    7  C   UNL     1     -13.186   9.840  72.287  1.00  0.00    -0.468 A  
HETATM    8  C   UNL     1     -13.463  12.287  71.894  1.00  0.00    -0.339 C  
ENDROOT
BRANCH   4   9
HETATM    9  O   UNL     1     -11.522  11.986  69.847  1.00  0.00    -0.253 OA 
BRANCH   9  10
HETATM   10  C   UNL     1     -11.902  12.097  68.473  1.00  0.00    -0.310 C  
BRANCH  10  11
HETATM   11  C   UNL     1     -10.883  12.921  67.681  1.00  0.00    -0.252 C  
BRANCH  11  12
HETATM   12  C   UNL     1     -10.786  12.464  66.216  1.00  0.00    -0.299 C  
BRANCH  12  13
HETATM   13  C   UNL     1     -11.460  13.402  65.181  1.00  0.00    -0.316 C  
HETATM   14  C   UNL     1     -10.613  14.653  64.898  1.00  0.00    -0.446 C  
HETATM   15  C   UNL     1     -12.845  13.856  65.686  1.00  0.00    -0.467 C  
HETATM   16  C   UNL     1     -11.666  12.629  63.867  1.00  0.00    -0.457 C  
HETATM   17  O   UNL     1     -12.756  12.391  63.367  1.00  0.00    -0.722 OA 
HETATM   18  O   UNL     1     -10.523  12.210  63.275  1.00  0.00    -0.432 OA 
ENDBRANCH  12  13
ENDBRANCH  11  12
ENDBRANCH  10  11
ENDBRANCH   9  10
ENDBRANCH   4   9
TORSDOF 5
ENDMDL
MODEL       32
REMARK 921   NORMALIZED FREE ENERGY PREDICTED BY IDOCK:   -5.24 KCAL/MOL
REMARK 922        TOTAL FREE ENERGY PREDICTED BY IDOCK:   -7.25 KCAL/MOL
REMARK 923 INTER-LIGAND FREE ENERGY PREDICTED BY IDOCK:   -6.85 KCAL/MOL
REMARK 924 INTRA-LIGAND FREE ENERGY PREDICTED BY IDOCK:   -0.40 KCAL/MOL
REMARK 927      BINDING AFFINITY PREDICTED BY RF-SCORE:    0.00 PKD
ROOT
HETATM    1  C   UNL     1     -12.029   9.944  70.746  1.00  0.00    -0.410 C  
HETATM    2  C   UNL     1     -12.429  11.366  71.009  1.00  0.00    -0.486 A  
HETATM    3  C   UNL     1     -11.921  12.413  70.224  1.00  0.00    -0.371 A  
HETATM    4  C   UNL     1     -12.258  13.745  70.491  1.00  0.00    -0.369 A  
HETATM    5  C   UNL     1     -13.279  11.667  72.075  1.00  0.00    -0.443 A  
HETATM    6  C   UNL     1     -13.083  14.044  71.587  1.00  0.00    -0.435 A  
HETATM    7  C   UNL     1     -13.601  12.994  72.362  1.00  0.00    -0.628 A  
HETATM    8  C   UNL     1     -13.437  15.452  71.977  1.00  0.00    -0.564 C  
ENDROOT
BRANCH   4   9
HETATM    9  O   UNL     1     -11.752  14.805  69.788  1.00  0.00    -0.275 OA 
BRANCH   9  10
HETATM   10  C   UNL     1     -11.015  14.528  68.595  1.00  0.00    -0.251 C  
BRANCH  10  11
HETATM   11  C   UNL     1     -11.925  14.544  67.364  1.00  0.00    -0.367 C  
BRANCH  11  12
HETATM   12  C   UNL     1     -11.162  14.179  66.079  1.00  0.00    -0.319 C  
BRANCH  12  13
HETATM   13  C   UNL     1     -11.382  12.733  65.564  1.00  0.00    -0.347 C  
HETATM   14  C   UNL     1     -12.651  12.613  64.705  1.00  0.00    -0.530 C  
HETATM   15  C   UNL     1     -11.501  11.751  66.747  1.00  0.00    -0.352 C  
HETATM   16  C   UNL     1     -10.167  12.314  64.720  1.00  0.00    -0.282 C  
HETATM   17  O   UNL     1      -9.416  11.389  64.998  1.00  0.00    -0.226 OA 
HETATM   18  O   UNL     1      -9.967  13.060  63.609  1.00  0.00    -0.193 OA 
ENDBRANCH  12  13
ENDBRANCH  11  12
ENDBRANCH  10  11
ENDBRANCH   9  10
ENDBRANCH   4   9
TORSDOF 5
ENDMDL
MODEL       33
REMARK 921   NORMALIZED FREE ENERGY PREDICTED BY IDOCK:   -5.22 KCAL/MOL
REMARK 922        TOTAL FREE ENERGY PREDICTED BY IDOCK:   -7.23 KCAL/MOL
REMARK 923 INTER-LIGAND FREE ENERGY PREDICTED BY IDOCK:   -6.69 KCAL/MOL
REMARK 924 INTRA-LIGAND FREE ENERGY PREDICTED BY IDOCK:   -0.54 KCAL/MOL
REMARK 927      BINDING AFFINITY PREDICTED BY RF-SCORE:    0.00 PKD
ROOT
HETATM    1  C   UNL     1     -12.455  12.018  63.588  1.00  0.00    -0.637 C  
HETATM    2  C   UNL     1     -12.062  12.500  64.953  1.00  0.00    -0.499 A  
HETATM    3  C   UNL     1     -11.234  11.725  65.779  1.00  0.00    -0.337 A  
HETATM    4  C   UNL     1     -10.897  12.151  67.069  1.00  0.00    -0.247 A  
HETATM    5  C   UNL     1     -12.559  13.712  65.436  1.00  0.00    -0.533 A  
HETATM    6  C   UNL     1     -11.430  13.352  67.563  1.00  0.00    -0.357 A  
HETATM    7  C   UNL     1     -12.248  14.132  66.729  1.00  0.00    -0.429 A  
HETATM    8  C   UNL     1     -11.169  13.844  68.959  1.00  0.00    -0.312 C  
ENDROOT
BRANCH   4   9
HETATM    9  O   UNL     1     -10.134  11.410  67.932  1.00  0.00    -0.176 OA 
BRANCH   9  10
HETATM   10  C   UNL     1     -10.628  10.130  68.334  1.00  0.00    -0.217 C  
BRANCH  10  11
HETATM   11  C   UNL     1     -10.474   9.926  69.843  1.00  0.00    -0.309 C  
BRANCH  11  12
HETATM   12  C   UNL     1     -11.831   9.727  70.539  1.00  0.00    -0.316 C  
BRANCH  12  13
HETATM   13  C   UNL     1     -11.992   8.394  71.313  1.00  0.00    -0.323 C  
HETATM   14  C   UNL     1     -11.079   8.329  72.548  1.00  0.00    -0.439 C  
HETATM   15  C   UNL     1     -11.660   7.196  70.400  1.00  0.00    -0.300 C  
HETATM   16  C   UNL     1     -13.455   8.253  71.765  1.00  0.00    -0.352 C  
HETATM   17  O   UNL     1     -14.210   7.362  71.402  1.00  0.00    -0.433 OA 
HETATM   18  O   UNL     1     -13.875   9.213  72.621  1.00  0.00    -0.470 OA 
ENDBRANCH  12  13
ENDBRANCH  11  12
ENDBRANCH  10  11
ENDBRANCH   9  10
ENDBRANCH   4   9
TORSDOF 5
ENDMDL
MODEL       34
REMARK 921   NORMALIZED FREE ENERGY PREDICTED BY IDOCK:   -5.21 KCAL/MOL
REMARK 922        TOTAL FREE ENERGY PREDICTED BY IDOCK:   -7.21 KCAL/MOL
REMARK 923 INTER-LIGAND FREE ENERGY PREDICTED BY IDOCK:   -6.76 KCAL/MOL
REMARK 924 INTRA-LIGAND FREE ENERGY PREDICTED BY IDOCK:   -0.45 KCAL/MOL
REMARK 927      BINDING AFFINITY PREDICTED BY RF-SCORE:    0.00 PKD
ROOT
HETATM    1  C   UNL     1     -13.739  15.758  72.815  1.00  0.00    -0.639 C  
HETATM    2  C   UNL     1     -13.162  14.891  71.735  1.00  0.00    -0.438 A  
HETATM    3  C   UNL     1     -13.108  13.497  71.883  1.00  0.00    -0.475 A  
HETATM    4  C   UNL     1     -12.534  12.688  70.895  1.00  0.00    -0.278 A  
HETATM    5  C   UNL     1     -12.627  15.474  70.584  1.00  0.00    -0.493 A  
HETATM    6  C   UNL     1     -11.963  13.282  69.758  1.00  0.00    -0.391 A  
HETATM    7  C   UNL     1     -12.031  14.676  69.607  1.00  0.00    -0.368 A  
HETATM    8  C   UNL     1     -11.271  12.486  68.687  1.00  0.00    -0.319 C  
ENDROOT
BRANCH   4   9
HETATM    9  O   UNL     1     -12.412  11.329  71.012  1.00  0.00    -0.382 OA 
BRANCH   9  10
HETATM   10  C   UNL     1     -13.347  10.642  71.847  1.00  0.00    -0.349 C  
BRANCH  10  11
HETATM   11  C   UNL     1     -13.349   9.139  71.557  1.00  0.00    -0.416 C  
BRANCH  11  12
HETATM   12  C   UNL     1     -12.458   8.361  72.542  1.00  0.00    -0.337 C  
BRANCH  12  13
HETATM   13  C   UNL     1     -11.242   7.638  71.908  1.00  0.00    -0.299 C  
HETATM   14  C   UNL     1     -10.061   8.593  71.673  1.00  0.00    -0.365 C  
HETATM   15  C   UNL     1     -11.633   7.006  70.557  1.00  0.00    -0.364 C  
HETATM   16  C   UNL     1     -10.790   6.506  72.847  1.00  0.00    -0.258 C  
HETATM   17  O   UNL     1     -10.802   5.319  72.556  1.00  0.00    -0.228 OA 
HETATM   18  O   UNL     1     -10.364   6.919  74.063  1.00  0.00    -0.363 OA 
ENDBRANCH  12  13
ENDBRANCH  11  12
ENDBRANCH  10  11
ENDBRANCH   9  10
ENDBRANCH   4   9
TORSDOF 5
ENDMDL
MODEL       35
REMARK 921   NORMALIZED FREE ENERGY PREDICTED BY IDOCK:   -5.20 KCAL/MOL
REMARK 922        TOTAL FREE ENERGY PREDICTED BY IDOCK:   -7.21 KCAL/MOL
REMARK 923 INTER-LIGAND FREE ENERGY PREDICTED BY IDOCK:   -6.61 KCAL/MOL
REMARK 924 INTRA-LIGAND FREE ENERGY PREDICTED BY IDOCK:   -0.60 KCAL/MOL
REMARK 927      BINDING AFFINITY PREDICTED BY RF-SCORE:    0.00 PKD
ROOT
HETATM    1  C   UNL     1      -9.423   7.690  68.770  1.00  0.00    -0.152 C  
HETATM    2  C   UNL     1     -10.291   8.760  69.365  1.00  0.00    -0.217 A  
HETATM    3  C   UNL     1     -10.860   9.756  68.558  1.00  0.00    -0.227 A  
HETATM    4  C   UNL     1     -11.636  10.781  69.113  1.00  0.00    -0.305 A  
HETATM    5  C   UNL     1     -10.502   8.801  70.745  1.00  0.00    -0.270 A  
HETATM    6  C   UNL     1     -11.814  10.838  70.505  1.00  0.00    -0.453 A  
HETATM    7  C   UNL     1     -11.254   9.831  71.308  1.00  0.00    -0.417 A  
HETATM    8  C   UNL     1     -12.578  11.941  71.181  1.00  0.00    -0.390 C  
ENDROOT
BRANCH   4   9
HETATM    9  O   UNL     1     -12.172  11.803  68.377  1.00  0.00    -0.467 OA 
BRANCH   9  10
HETATM   10  C   UNL     1     -11.350  12.414  67.380  1.00  0.00    -0.321 C  
BRANCH  10  11
HETATM   11  C   UNL     1     -10.672  13.676  67.918  1.00  0.00    -0.257 C  
BRANCH  11  12
HETATM   12  C   UNL     1     -11.320  14.958  67.369  1.00  0.00    -0.354 C  
BRANCH  12  13
HETATM   13  C   UNL     1     -10.433  15.793  66.409  1.00  0.00    -0.307 C  
HETATM   14  C   UNL     1      -8.972  15.318  66.415  1.00  0.00    -0.339 C  
HETATM   15  C   UNL     1     -10.462  17.283  66.807  1.00  0.00    -0.261 C  
HETATM   16  C   UNL     1     -10.993  15.673  64.982  1.00  0.00    -0.431 C  
HETATM   17  O   UNL     1     -11.424  16.611  64.326  1.00  0.00    -1.075 OA 
HETATM   18  O   UNL     1     -10.980  14.419  64.475  1.00  0.00    -0.363 OA 
ENDBRANCH  12  13
ENDBRANCH  11  12
ENDBRANCH  10  11
ENDBRANCH   9  10
ENDBRANCH   4   9
TORSDOF 5
ENDMDL
MODEL       36
REMARK 921   NORMALIZED FREE ENERGY PREDICTED BY IDOCK:   -5.20 KCAL/MOL
REMARK 922        TOTAL FREE ENERGY PREDICTED BY IDOCK:   -7.20 KCAL/MOL
REMARK 923 INTER-LIGAND FREE ENERGY PREDICTED BY IDOCK:   -6.63 KCAL/MOL
REMARK 924 INTRA-LIGAND FREE ENERGY PREDICTED BY IDOCK:   -0.57 KCAL/MOL
REMARK 927      BINDING AFFINITY PREDICTED BY RF-SCORE:    0.00 PKD
ROOT
HETATM    1  C   UNL     1     -13.217  12.810  71.582  1.00  0.00    -0.410 C  
HETATM    2  C   UNL     1     -12.596  11.472  71.302  1.00  0.00    -0.452 A  
HETATM    3  C   UNL     1     -11.816  11.268  70.154  1.00  0.00    -0.449 A  
HETATM    4  C   UNL     1     -11.269  10.012  69.867  1.00  0.00    -0.275 A  
HETATM    5  C   UNL     1     -12.830  10.400  72.165  1.00  0.00    -0.321 A  
HETATM    6  C   UNL     1     -11.539   8.928  70.718  1.00  0.00    -0.301 A  
HETATM    7  C   UNL     1     -12.308   9.139  71.873  1.00  0.00    -0.455 A  
HETATM    8  C   UNL     1     -11.042   7.536  70.443  1.00  0.00    -0.277 C  
ENDROOT
BRANCH   4   9
HETATM    9  O   UNL     1     -10.542   9.747  68.737  1.00  0.00    -0.207 OA 
BRANCH   9  10
HETATM   10  C   UNL     1      -9.978  10.853  68.029  1.00  0.00    -0.171 C  
BRANCH  10  11
HETATM   11  C   UNL     1     -10.588  10.986  66.632  1.00  0.00    -0.315 C  
BRANCH  11  12
HETATM   12  C   UNL     1     -10.120  12.266  65.918  1.00  0.00    -0.272 C  
BRANCH  12  13
HETATM   13  C   UNL     1     -11.238  13.287  65.584  1.00  0.00    -0.304 C  
HETATM   14  C   UNL     1     -10.670  14.671  65.233  1.00  0.00    -0.396 C  
HETATM   15  C   UNL     1     -12.199  13.445  66.780  1.00  0.00    -0.367 C  
HETATM   16  C   UNL     1     -12.051  12.763  64.389  1.00  0.00    -0.416 C  
HETATM   17  O   UNL     1     -13.241  12.482  64.430  1.00  0.00    -0.782 OA 
HETATM   18  O   UNL     1     -11.345  12.624  63.243  1.00  0.00    -0.460 OA 
ENDBRANCH  12  13
ENDBRANCH  11  12
ENDBRANCH  10  11
ENDBRANCH   9  10
ENDBRANCH   4   9
TORSDOF 5
ENDMDL
MODEL       37
REMARK 921   NORMALIZED FREE ENERGY PREDICTED BY IDOCK:   -5.19 KCAL/MOL
REMARK 922        TOTAL FREE ENERGY PREDICTED BY IDOCK:   -7.19 KCAL/MOL
REMARK 923 INTER-LIGAND FREE ENERGY PREDICTED BY IDOCK:   -6.74 KCAL/MOL
REMARK 924 INTRA-LIGAND FREE ENERGY PREDICTED BY IDOCK:   -0.45 KCAL/MOL
REMARK 927      BINDING AFFINITY PREDICTED BY RF-SCORE:    0.00 PKD
ROOT
HETATM    1  C   UNL     1      -9.815  20.196  67.032  1.00  0.00    -0.595 C  
HETATM    2  C   UNL     1      -9.087  19.041  67.655  1.00  0.00    -0.327 A  
HETATM    3  C   UNL     1      -9.783  17.908  68.100  1.00  0.00    -0.320 A  
HETATM    4  C   UNL     1      -9.114  16.845  68.719  1.00  0.00    -0.254 A  
HETATM    5  C   UNL     1      -7.704  19.106  67.841  1.00  0.00    -0.308 A  
HETATM    6  C   UNL     1      -7.730  16.932  68.938  1.00  0.00    -0.237 A  
HETATM    7  C   UNL     1      -7.034  18.062  68.479  1.00  0.00    -0.245 A  
HETATM    8  C   UNL     1      -6.952  15.863  69.653  1.00  0.00    -0.147 C  
ENDROOT
BRANCH   4   9
HETATM    9  O   UNL     1      -9.752  15.740  69.214  1.00  0.00    -0.229 OA 
BRANCH   9  10
HETATM   10  C   UNL     1     -11.055  15.436  68.711  1.00  0.00    -0.283 C  
BRANCH  10  11
HETATM   11  C   UNL     1     -12.128  15.651  69.781  1.00  0.00    -0.346 C  
BRANCH  11  12
HETATM   12  C   UNL     1     -11.892  14.768  71.019  1.00  0.00    -0.383 C  
BRANCH  12  13
HETATM   13  C   UNL     1     -13.093  14.658  71.994  1.00  0.00    -0.418 C  
HETATM   14  C   UNL     1     -13.436  13.196  72.323  1.00  0.00    -0.665 C  
HETATM   15  C   UNL     1     -14.343  15.326  71.388  1.00  0.00    -0.578 C  
HETATM   16  C   UNL     1     -12.746  15.396  73.298  1.00  0.00    -0.508 C  
HETATM   17  O   UNL     1     -13.348  16.372  73.723  1.00  0.00    -0.655 OA 
HETATM   18  O   UNL     1     -11.691  14.882  73.973  1.00  0.00    -0.245 OA 
ENDBRANCH  12  13
ENDBRANCH  11  12
ENDBRANCH  10  11
ENDBRANCH   9  10
ENDBRANCH   4   9
TORSDOF 5
ENDMDL
MODEL       38
REMARK 921   NORMALIZED FREE ENERGY PREDICTED BY IDOCK:   -5.19 KCAL/MOL
REMARK 922        TOTAL FREE ENERGY PREDICTED BY IDOCK:   -7.19 KCAL/MOL
REMARK 923 INTER-LIGAND FREE ENERGY PREDICTED BY IDOCK:   -6.32 KCAL/MOL
REMARK 924 INTRA-LIGAND FREE ENERGY PREDICTED BY IDOCK:   -0.87 KCAL/MOL
REMARK 927      BINDING AFFINITY PREDICTED BY RF-SCORE:    0.00 PKD
ROOT
HETATM    1  C   UNL     1     -12.472  14.898  70.344  1.00  0.00    -0.403 C  
HETATM    2  C   UNL     1     -11.171  14.836  69.599  1.00  0.00    -0.305 A  
HETATM    3  C   UNL     1     -10.768  13.658  68.953  1.00  0.00    -0.237 A  
HETATM    4  C   UNL     1      -9.536  13.581  68.292  1.00  0.00    -0.218 A  
HETATM    5  C   UNL     1     -10.321  15.944  69.583  1.00  0.00    -0.299 A  
HETATM    6  C   UNL     1      -8.670  14.686  68.311  1.00  0.00    -0.173 A  
HETATM    7  C   UNL     1      -9.082  15.868  68.947  1.00  0.00    -0.233 A  
HETATM    8  C   UNL     1      -7.306  14.660  67.681  1.00  0.00    -0.204 C  
ENDROOT
BRANCH   4   9
HETATM    9  O   UNL     1      -9.075  12.442  67.688  1.00  0.00    -0.172 OA 
BRANCH   9  10
HETATM   10  C   UNL     1      -9.904  11.278  67.730  1.00  0.00    -0.173 C  
BRANCH  10  11
HETATM   11  C   UNL     1     -10.400  10.899  66.333  1.00  0.00    -0.306 C  
BRANCH  11  12
HETATM   12  C   UNL     1     -11.425  11.910  65.791  1.00  0.00    -0.326 C  
BRANCH  12  13
HETATM   13  C   UNL     1     -11.012  12.643  64.489  1.00  0.00    -0.365 C  
HETATM   14  C   UNL     1     -10.056  11.800  63.630  1.00  0.00    -0.445 C  
HETATM   15  C   UNL     1     -10.317  13.980  64.820  1.00  0.00    -0.407 C  
HETATM   16  C   UNL     1     -12.276  12.956  63.670  1.00  0.00    -0.499 C  
HETATM   17  O   UNL     1     -12.660  14.083  63.393  1.00  0.00    -0.845 OA 
HETATM   18  O   UNL     1     -12.966  11.866  63.260  1.00  0.00    -0.707 OA 
ENDBRANCH  12  13
ENDBRANCH  11  12
ENDBRANCH  10  11
ENDBRANCH   9  10
ENDBRANCH   4   9
TORSDOF 5
ENDMDL
MODEL       39
REMARK 921   NORMALIZED FREE ENERGY PREDICTED BY IDOCK:   -5.19 KCAL/MOL
REMARK 922        TOTAL FREE ENERGY PREDICTED BY IDOCK:   -7.18 KCAL/MOL
REMARK 923 INTER-LIGAND FREE ENERGY PREDICTED BY IDOCK:   -6.31 KCAL/MOL
REMARK 924 INTRA-LIGAND FREE ENERGY PREDICTED BY IDOCK:   -0.87 KCAL/MOL
REMARK 927      BINDING AFFINITY PREDICTED BY RF-SCORE:    0.00 PKD
ROOT
HETATM    1  C   UNL     1     -13.954  15.307  71.892  1.00  0.00    -0.644 C  
HETATM    2  C   UNL     1     -13.298  14.036  71.437  1.00  0.00    -0.387 A  
HETATM    3  C   UNL     1     -12.449  14.025  70.320  1.00  0.00    -0.403 A  
HETATM    4  C   UNL     1     -11.868  12.834  69.866  1.00  0.00    -0.301 A  
HETATM    5  C   UNL     1     -13.568  12.836  72.098  1.00  0.00    -0.547 A  
HETATM    6  C   UNL     1     -12.173  11.625  70.512  1.00  0.00    -0.451 A  
HETATM    7  C   UNL     1     -13.012  11.642  71.638  1.00  0.00    -0.483 A  
HETATM    8  C   UNL     1     -11.641  10.299  70.045  1.00  0.00    -0.349 C  
ENDROOT
BRANCH   4   9
HETATM    9  O   UNL     1     -11.073  12.760  68.754  1.00  0.00    -0.239 OA 
BRANCH   9  10
HETATM   10  C   UNL     1     -11.699  12.874  67.474  1.00  0.00    -0.367 C  
BRANCH  10  11
HETATM   11  C   UNL     1     -10.836  13.684  66.504  1.00  0.00    -0.283 C  
BRANCH  11  12
HETATM   12  C   UNL     1     -10.863  15.188  66.828  1.00  0.00    -0.322 C  
BRANCH  12  13
HETATM   13  C   UNL     1      -9.540  15.770  67.391  1.00  0.00    -0.217 C  
HETATM   14  C   UNL     1      -9.135  17.072  66.682  1.00  0.00    -0.278 C  
HETATM   15  C   UNL     1      -8.392  14.753  67.232  1.00  0.00    -0.234 C  
HETATM   16  C   UNL     1      -9.719  16.052  68.892  1.00  0.00    -0.232 C  
HETATM   17  O   UNL     1      -9.079  15.507  69.781  1.00  0.00    -0.251 OA 
HETATM   18  O   UNL     1     -10.665  16.975  69.184  1.00  0.00    -0.324 OA 
ENDBRANCH  12  13
ENDBRANCH  11  12
ENDBRANCH  10  11
ENDBRANCH   9  10
ENDBRANCH   4   9
TORSDOF 5
ENDMDL
MODEL       40
REMARK 921   NORMALIZED FREE ENERGY PREDICTED BY IDOCK:   -5.16 KCAL/MOL
REMARK 922        TOTAL FREE ENERGY PREDICTED BY IDOCK:   -7.15 KCAL/MOL
REMARK 923 INTER-LIGAND FREE ENERGY PREDICTED BY IDOCK:   -6.56 KCAL/MOL
REMARK 924 INTRA-LIGAND FREE ENERGY PREDICTED BY IDOCK:   -0.58 KCAL/MOL
REMARK 927      BINDING AFFINITY PREDICTED BY RF-SCORE:    0.00 PKD
ROOT
HETATM    1  C   UNL     1     -11.075  12.232  67.547  1.00  0.00    -0.326 C  
HETATM    2  C   UNL     1     -11.672  12.663  68.855  1.00  0.00    -0.370 A  
HETATM    3  C   UNL     1     -12.067  11.716  69.811  1.00  0.00    -0.357 A  
HETATM    4  C   UNL     1     -12.662  12.111  71.016  1.00  0.00    -0.228 A  
HETATM    5  C   UNL     1     -11.883  14.019  69.113  1.00  0.00    -0.391 A  
HETATM    6  C   UNL     1     -12.907  13.473  71.253  1.00  0.00    -0.420 A  
HETATM    7  C   UNL     1     -12.497  14.419  70.300  1.00  0.00    -0.413 A  
HETATM    8  C   UNL     1     -13.600  13.970  72.492  1.00  0.00    -0.670 C  
ENDROOT
BRANCH   4   9
HETATM    9  O   UNL     1     -13.111  11.226  71.960  1.00  0.00    -0.495 OA 
BRANCH   9  10
HETATM   10  C   UNL     1     -13.498   9.921  71.525  1.00  0.00    -0.312 C  
BRANCH  10  11
HETATM   11  C   UNL     1     -12.705   8.835  72.254  1.00  0.00    -0.466 C  
BRANCH  11  12
HETATM   12  C   UNL     1     -11.230   8.805  71.817  1.00  0.00    -0.410 C  
BRANCH  12  13
HETATM   13  C   UNL     1     -10.634   7.393  71.585  1.00  0.00    -0.229 C  
HETATM   14  C   UNL     1      -9.129   7.445  71.278  1.00  0.00    -0.145 C  
HETATM   15  C   UNL     1     -11.346   6.692  70.411  1.00  0.00    -0.421 C  
HETATM   16  C   UNL     1     -10.857   6.545  72.849  1.00  0.00    -0.258 C  
HETATM   17  O   UNL     1     -11.531   5.525  72.888  1.00  0.00    -0.304 OA 
HETATM   18  O   UNL     1     -10.240   7.013  73.958  1.00  0.00    -0.349 OA 
ENDBRANCH  12  13
ENDBRANCH  11  12
ENDBRANCH  10  11
ENDBRANCH   9  10
ENDBRANCH   4   9
TORSDOF 5
ENDMDL
MODEL       41
REMARK 921   NORMALIZED FREE ENERGY PREDICTED BY IDOCK:   -5.16 KCAL/MOL
REMARK 922        TOTAL FREE ENERGY PREDICTED BY IDOCK:   -7.15 KCAL/MOL
REMARK 923 INTER-LIGAND FREE ENERGY PREDICTED BY IDOCK:   -6.64 KCAL/MOL
REMARK 924 INTRA-LIGAND FREE ENERGY PREDICTED BY IDOCK:   -0.51 KCAL/MOL
REMARK 927      BINDING AFFINITY PREDICTED BY RF-SCORE:    0.00 PKD
ROOT
HETATM    1  C   UNL     1     -11.664   8.109  72.460  1.00  0.00    -0.457 C  
HETATM    2  C   UNL     1     -11.218   7.885  71.045  1.00  0.00    -0.288 A  
HETATM    3  C   UNL     1     -10.662   8.930  70.292  1.00  0.00    -0.248 A  
HETATM    4  C   UNL     1     -10.282   8.737  68.958  1.00  0.00    -0.207 A  
HETATM    5  C   UNL     1     -11.396   6.636  70.446  1.00  0.00    -0.421 A  
HETATM    6  C   UNL     1     -10.499   7.490  68.350  1.00  0.00    -0.212 A  
HETATM    7  C   UNL     1     -11.042   6.442  69.111  1.00  0.00    -0.428 A  
HETATM    8  C   UNL     1     -10.178   7.224  66.906  1.00  0.00    -0.340 C  
ENDROOT
BRANCH   4   9
HETATM    9  O   UNL     1      -9.781   9.735  68.166  1.00  0.00    -0.142 OA 
BRANCH   9  10
HETATM   10  C   UNL     1     -10.341  11.043  68.302  1.00  0.00    -0.178 C  
BRANCH  10  11
HETATM   11  C   UNL     1     -11.373  11.322  67.206  1.00  0.00    -0.329 C  
BRANCH  11  12
HETATM   12  C   UNL     1     -11.464  12.819  66.868  1.00  0.00    -0.396 C  
BRANCH  12  13
HETATM   13  C   UNL     1     -11.059  13.199  65.420  1.00  0.00    -0.299 C  
HETATM   14  C   UNL     1     -10.297  12.064  64.717  1.00  0.00    -0.318 C  
HETATM   15  C   UNL     1     -10.166  14.456  65.422  1.00  0.00    -0.408 C  
HETATM   16  C   UNL     1     -12.329  13.522  64.615  1.00  0.00    -0.372 C  
HETATM   17  O   UNL     1     -12.578  14.613  64.121  1.00  0.00    -0.766 OA 
HETATM   18  O   UNL     1     -13.191  12.487  64.483  1.00  0.00    -0.832 OA 
ENDBRANCH  12  13
ENDBRANCH  11  12
ENDBRANCH  10  11
ENDBRANCH   9  10
ENDBRANCH   4   9
TORSDOF 5
ENDMDL
MODEL       42
REMARK 921   NORMALIZED FREE ENERGY PREDICTED BY IDOCK:   -5.15 KCAL/MOL
REMARK 922        TOTAL FREE ENERGY PREDICTED BY IDOCK:   -7.13 KCAL/MOL
REMARK 923 INTER-LIGAND FREE ENERGY PREDICTED BY IDOCK:   -6.05 KCAL/MOL
REMARK 924 INTRA-LIGAND FREE ENERGY PREDICTED BY IDOCK:   -1.08 KCAL/MOL
REMARK 927      BINDING AFFINITY PREDICTED BY RF-SCORE:    0.00 PKD
ROOT
HETATM    1  C   UNL     1     -10.429   7.752  66.962  1.00  0.00    -0.419 C  
HETATM    2  C   UNL     1      -9.734   9.055  67.224  1.00  0.00    -0.232 A  
HETATM    3  C   UNL     1     -10.371  10.079  67.940  1.00  0.00    -0.249 A  
HETATM    4  C   UNL     1      -9.743  11.312  68.152  1.00  0.00    -0.185 A  
HETATM    5  C   UNL     1      -8.455   9.279  66.711  1.00  0.00    -0.129 A  
HETATM    6  C   UNL     1      -8.472  11.545  67.602  1.00  0.00    -0.135 A  
HETATM    7  C   UNL     1      -7.831  10.514  66.897  1.00  0.00    -0.117 A  
HETATM    8  C   UNL     1      -7.761  12.863  67.729  1.00  0.00    -0.151 C  
ENDROOT
BRANCH   4   9
HETATM    9  O   UNL     1     -10.339  12.360  68.801  1.00  0.00    -0.204 OA 
BRANCH   9  10
HETATM   10  C   UNL     1     -11.718  12.619  68.530  1.00  0.00    -0.330 C  
BRANCH  10  11
HETATM   11  C   UNL     1     -11.900  13.956  67.808  1.00  0.00    -0.415 C  
BRANCH  11  12
HETATM   12  C   UNL     1     -12.254  13.767  66.323  1.00  0.00    -0.489 C  
BRANCH  12  13
HETATM   13  C   UNL     1     -11.247  14.379  65.316  1.00  0.00    -0.345 C  
HETATM   14  C   UNL     1     -10.222  13.345  64.824  1.00  0.00    -0.339 C  
HETATM   15  C   UNL     1     -10.482  15.552  65.963  1.00  0.00    -0.335 C  
HETATM   16  C   UNL     1     -12.022  14.929  64.107  1.00  0.00    -0.235 C  
HETATM   17  O   UNL     1     -12.046  16.107  63.777  1.00  0.00    -0.946 OA 
HETATM   18  O   UNL     1     -12.705  13.997  63.404  1.00  0.00    -0.796 OA 
ENDBRANCH  12  13
ENDBRANCH  11  12
ENDBRANCH  10  11
ENDBRANCH   9  10
ENDBRANCH   4   9
TORSDOF 5
ENDMDL
MODEL       43
REMARK 921   NORMALIZED FREE ENERGY PREDICTED BY IDOCK:   -5.15 KCAL/MOL
REMARK 922        TOTAL FREE ENERGY PREDICTED BY IDOCK:   -7.13 KCAL/MOL
REMARK 923 INTER-LIGAND FREE ENERGY PREDICTED BY IDOCK:   -6.69 KCAL/MOL
REMARK 924 INTRA-LIGAND FREE ENERGY PREDICTED BY IDOCK:   -0.44 KCAL/MOL
REMARK 927      BINDING AFFINITY PREDICTED BY RF-SCORE:    0.00 PKD
ROOT
HETATM    1  C   UNL     1     -11.832  10.385  70.181  1.00  0.00    -0.379 C  
HETATM    2  C   UNL     1     -12.314  11.683  70.760  1.00  0.00    -0.454 A  
HETATM    3  C   UNL     1     -11.787  12.907  70.321  1.00  0.00    -0.291 A  
HETATM    4  C   UNL     1     -12.203  14.117  70.886  1.00  0.00    -0.363 A  
HETATM    5  C   UNL     1     -13.265  11.681  71.782  1.00  0.00    -0.438 A  
HETATM    6  C   UNL     1     -13.132  14.107  71.940  1.00  0.00    -0.456 A  
HETATM    7  C   UNL     1     -13.668  12.881  72.367  1.00  0.00    -0.530 A  
HETATM    8  C   UNL     1     -13.579  15.358  72.642  1.00  0.00    -0.641 C  
ENDROOT
BRANCH   4   9
HETATM    9  O   UNL     1     -11.685  15.334  70.529  1.00  0.00    -0.268 OA 
BRANCH   9  10
HETATM   10  C   UNL     1     -12.196  15.959  69.349  1.00  0.00    -0.062 C  
BRANCH  10  11
HETATM   11  C   UNL     1     -11.214  15.828  68.183  1.00  0.00    -0.344 C  
BRANCH  11  12
HETATM   12  C   UNL     1     -11.589  14.671  67.240  1.00  0.00    -0.404 C  
BRANCH  12  13
HETATM   13  C   UNL     1     -10.480  14.239  66.246  1.00  0.00    -0.291 C  
HETATM   14  C   UNL     1     -11.063  13.609  64.971  1.00  0.00    -0.338 C  
HETATM   15  C   UNL     1      -9.532  13.217  66.905  1.00  0.00    -0.249 C  
HETATM   16  C   UNL     1      -9.650  15.474  65.858  1.00  0.00    -0.348 C  
HETATM   17  O   UNL     1      -8.457  15.609  66.093  1.00  0.00    -0.256 OA 
HETATM   18  O   UNL     1     -10.344  16.442  65.216  1.00  0.00    -0.581 OA 
ENDBRANCH  12  13
ENDBRANCH  11  12
ENDBRANCH  10  11
ENDBRANCH   9  10
ENDBRANCH   4   9
TORSDOF 5
ENDMDL
MODEL       44
REMARK 921   NORMALIZED FREE ENERGY PREDICTED BY IDOCK:   -5.14 KCAL/MOL
REMARK 922        TOTAL FREE ENERGY PREDICTED BY IDOCK:   -7.13 KCAL/MOL
REMARK 923 INTER-LIGAND FREE ENERGY PREDICTED BY IDOCK:   -6.11 KCAL/MOL
REMARK 924 INTRA-LIGAND FREE ENERGY PREDICTED BY IDOCK:   -1.02 KCAL/MOL
REMARK 927      BINDING AFFINITY PREDICTED BY RF-SCORE:    0.00 PKD
ROOT
HETATM    1  C   UNL     1      -8.475   8.579  65.218  1.00  0.00    -0.192 C  
HETATM    2  C   UNL     1      -9.338   9.741  64.823  1.00  0.00    -0.327 A  
HETATM    3  C   UNL     1     -10.204  10.341  65.749  1.00  0.00    -0.289 A  
HETATM    4  C   UNL     1     -11.042  11.399  65.375  1.00  0.00    -0.128 A  
HETATM    5  C   UNL     1      -9.320  10.208  63.507  1.00  0.00    -0.333 A  
HETATM    6  C   UNL     1     -11.047  11.840  64.041  1.00  0.00    -0.461 A  
HETATM    7  C   UNL     1     -10.168  11.246  63.121  1.00  0.00    -0.367 A  
HETATM    8  C   UNL     1     -11.963  12.925  63.548  1.00  0.00    -0.629 C  
ENDROOT
BRANCH   4   9
HETATM    9  O   UNL     1     -11.940  11.986  66.225  1.00  0.00    -0.596 OA 
BRANCH   9  10
HETATM   10  C   UNL     1     -11.549  12.172  67.588  1.00  0.00    -0.343 C  
BRANCH  10  11
HETATM   11  C   UNL     1     -11.775  13.618  68.036  1.00  0.00    -0.387 C  
BRANCH  11  12
HETATM   12  C   UNL     1     -11.861  14.585  66.843  1.00  0.00    -0.399 C  
BRANCH  12  13
HETATM   13  C   UNL     1     -10.582  15.417  66.568  1.00  0.00    -0.306 C  
HETATM   14  C   UNL     1     -10.775  16.407  65.408  1.00  0.00    -0.310 C  
HETATM   15  C   UNL     1      -9.398  14.490  66.225  1.00  0.00    -0.277 C  
HETATM   16  C   UNL     1     -10.216  16.202  67.839  1.00  0.00    -0.261 C  
HETATM   17  O   UNL     1      -9.179  16.054  68.471  1.00  0.00    -0.193 OA 
HETATM   18  O   UNL     1     -11.146  17.102  68.235  1.00  0.00    -0.310 OA 
ENDBRANCH  12  13
ENDBRANCH  11  12
ENDBRANCH  10  11
ENDBRANCH   9  10
ENDBRANCH   4   9
TORSDOF 5
ENDMDL
MODEL       45
REMARK 921   NORMALIZED FREE ENERGY PREDICTED BY IDOCK:   -5.14 KCAL/MOL
REMARK 922        TOTAL FREE ENERGY PREDICTED BY IDOCK:   -7.12 KCAL/MOL
REMARK 923 INTER-LIGAND FREE ENERGY PREDICTED BY IDOCK:   -6.61 KCAL/MOL
REMARK 924 INTRA-LIGAND FREE ENERGY PREDICTED BY IDOCK:   -0.51 KCAL/MOL
REMARK 927      BINDING AFFINITY PREDICTED BY RF-SCORE:    0.00 PKD
ROOT
HETATM    1  C   UNL     1     -13.447  14.310  72.701  1.00  0.00    -0.623 C  
HETATM    2  C   UNL     1     -12.969  13.346  71.655  1.00  0.00    -0.445 A  
HETATM    3  C   UNL     1     -13.069  11.961  71.854  1.00  0.00    -0.474 A  
HETATM    4  C   UNL     1     -12.587  11.058  70.899  1.00  0.00    -0.391 A  
HETATM    5  C   UNL     1     -12.373  13.824  70.486  1.00  0.00    -0.429 A  
HETATM    6  C   UNL     1     -11.955  11.543  69.743  1.00  0.00    -0.415 A  
HETATM    7  C   UNL     1     -11.869  12.930  69.541  1.00  0.00    -0.383 A  
HETATM    8  C   UNL     1     -11.354  10.638  68.704  1.00  0.00    -0.345 C  
ENDROOT
BRANCH   4   9
HETATM    9  O   UNL     1     -12.616   9.699  71.066  1.00  0.00    -0.312 OA 
BRANCH   9  10
HETATM   10  C   UNL     1     -13.657   9.144  71.874  1.00  0.00    -0.432 C  
BRANCH  10  11
HETATM   11  C   UNL     1     -13.560   7.618  71.933  1.00  0.00    -0.321 C  
BRANCH  11  12
HETATM   12  C   UNL     1     -12.345   7.087  71.152  1.00  0.00    -0.423 C  
BRANCH  12  13
HETATM   13  C   UNL     1     -11.203   6.500  72.020  1.00  0.00    -0.312 C  
HETATM   14  C   UNL     1     -11.656   5.262  72.810  1.00  0.00    -0.270 C  
HETATM   15  C   UNL     1     -10.689   7.554  73.022  1.00  0.00    -0.438 C  
HETATM   16  C   UNL     1     -10.032   6.107  71.104  1.00  0.00    -0.183 C  
HETATM   17  O   UNL     1      -8.915   6.603  71.156  1.00  0.00    -0.144 OA 
HETATM   18  O   UNL     1     -10.322   5.143  70.200  1.00  0.00    -0.273 OA 
ENDBRANCH  12  13
ENDBRANCH  11  12
ENDBRANCH  10  11
ENDBRANCH   9  10
ENDBRANCH   4   9
TORSDOF 5
ENDMDL
MODEL       46
REMARK 921   NORMALIZED FREE ENERGY PREDICTED BY IDOCK:   -5.10 KCAL/MOL
REMARK 922        TOTAL FREE ENERGY PREDICTED BY IDOCK:   -7.07 KCAL/MOL
REMARK 923 INTER-LIGAND FREE ENERGY PREDICTED BY IDOCK:   -6.40 KCAL/MOL
REMARK 924 INTRA-LIGAND FREE ENERGY PREDICTED BY IDOCK:   -0.67 KCAL/MOL
REMARK 927      BINDING AFFINITY PREDICTED BY RF-SCORE:    0.00 PKD
ROOT
HETATM    1  C   UNL     1     -10.287   9.564  67.383  1.00  0.00    -0.319 C  
HETATM    2  C   UNL     1     -10.944  10.705  68.103  1.00  0.00    -0.321 A  
HETATM    3  C   UNL     1     -11.322  11.867  67.415  1.00  0.00    -0.389 A  
HETATM    4  C   UNL     1     -11.898  12.951  68.089  1.00  0.00    -0.336 A  
HETATM    5  C   UNL     1     -11.142  10.637  69.484  1.00  0.00    -0.328 A  
HETATM    6  C   UNL     1     -12.061  12.892  69.483  1.00  0.00    -0.274 A  
HETATM    7  C   UNL     1     -11.693  11.722  70.166  1.00  0.00    -0.354 A  
HETATM    8  C   UNL     1     -12.610  14.038  70.286  1.00  0.00    -0.354 C  
ENDROOT
BRANCH   4   9
HETATM    9  O   UNL     1     -12.240  14.126  67.474  1.00  0.00    -0.370 OA 
BRANCH   9  10
HETATM   10  C   UNL     1     -11.386  14.611  66.435  1.00  0.00    -0.348 C  
BRANCH  10  11
HETATM   11  C   UNL     1     -10.159  15.321  67.012  1.00  0.00    -0.248 C  
BRANCH  11  12
HETATM   12  C   UNL     1     -10.538  16.613  67.757  1.00  0.00    -0.342 C  
BRANCH  12  13
HETATM   13  C   UNL     1      -9.683  17.858  67.404  1.00  0.00    -0.288 C  
HETATM   14  C   UNL     1      -8.344  17.474  66.755  1.00  0.00    -0.277 C  
HETATM   15  C   UNL     1      -9.389  18.687  68.671  1.00  0.00    -0.375 C  
HETATM   16  C   UNL     1     -10.475  18.746  66.430  1.00  0.00    -0.429 C  
HETATM   17  O   UNL     1     -10.836  19.890  66.672  1.00  0.00    -0.443 OA 
HETATM   18  O   UNL     1     -10.762  18.165  65.242  1.00  0.00    -0.605 OA 
ENDBRANCH  12  13
ENDBRANCH  11  12
ENDBRANCH  10  11
ENDBRANCH   9  10
ENDBRANCH   4   9
TORSDOF 5
ENDMDL
MODEL       47
REMARK 921   NORMALIZED FREE ENERGY PREDICTED BY IDOCK:   -5.09 KCAL/MOL
REMARK 922        TOTAL FREE ENERGY PREDICTED BY IDOCK:   -7.07 KCAL/MOL
REMARK 923 INTER-LIGAND FREE ENERGY PREDICTED BY IDOCK:   -6.75 KCAL/MOL
REMARK 924 INTRA-LIGAND FREE ENERGY PREDICTED BY IDOCK:   -0.32 KCAL/MOL
REMARK 927      BINDING AFFINITY PREDICTED BY RF-SCORE:    0.00 PKD
ROOT
HETATM    1  C   UNL     1     -10.439   5.742  67.286  1.00  0.00    -0.330 C  
HETATM    2  C   UNL     1     -10.757   6.653  68.435  1.00  0.00    -0.314 A  
HETATM    3  C   UNL     1     -10.518   8.033  68.346  1.00  0.00    -0.205 A  
HETATM    4  C   UNL     1     -10.775   8.882  69.429  1.00  0.00    -0.181 A  
HETATM    5  C   UNL     1     -11.254   6.125  69.628  1.00  0.00    -0.488 A  
HETATM    6  C   UNL     1     -11.238   8.340  70.639  1.00  0.00    -0.270 A  
HETATM    7  C   UNL     1     -11.489   6.961  70.720  1.00  0.00    -0.381 A  
HETATM    8  C   UNL     1     -11.475   9.176  71.866  1.00  0.00    -0.423 C  
ENDROOT
BRANCH   4   9
HETATM    9  O   UNL     1     -10.514  10.226  69.411  1.00  0.00    -0.206 OA 
BRANCH   9  10
HETATM   10  C   UNL     1     -11.535  11.100  68.925  1.00  0.00    -0.295 C  
BRANCH  10  11
HETATM   11  C   UNL     1     -11.392  11.337  67.420  1.00  0.00    -0.349 C  
BRANCH  11  12
HETATM   12  C   UNL     1     -11.623  12.811  67.043  1.00  0.00    -0.422 C  
BRANCH  12  13
HETATM   13  C   UNL     1     -11.178  13.209  65.613  1.00  0.00    -0.306 C  
HETATM   14  C   UNL     1     -10.401  12.081  64.915  1.00  0.00    -0.316 C  
HETATM   15  C   UNL     1     -10.280  14.462  65.656  1.00  0.00    -0.371 C  
HETATM   16  C   UNL     1     -12.424  13.547  64.778  1.00  0.00    -0.355 C  
HETATM   17  O   UNL     1     -12.656  14.646  64.292  1.00  0.00    -0.688 OA 
HETATM   18  O   UNL     1     -13.286  12.518  64.608  1.00  0.00    -0.848 OA 
ENDBRANCH  12  13
ENDBRANCH  11  12
ENDBRANCH  10  11
ENDBRANCH   9  10
ENDBRANCH   4   9
TORSDOF 5
ENDMDL
MODEL       48
REMARK 921   NORMALIZED FREE ENERGY PREDICTED BY IDOCK:   -5.08 KCAL/MOL
REMARK 922        TOTAL FREE ENERGY PREDICTED BY IDOCK:   -7.05 KCAL/MOL
REMARK 923 INTER-LIGAND FREE ENERGY PREDICTED BY IDOCK:   -6.45 KCAL/MOL
REMARK 924 INTRA-LIGAND FREE ENERGY PREDICTED BY IDOCK:   -0.60 KCAL/MOL
REMARK 927      BINDING AFFINITY PREDICTED BY RF-SCORE:    0.00 PKD
ROOT
HETATM    1  C   UNL     1     -12.331  12.254  63.553  1.00  0.00    -0.670 C  
HETATM    2  C   UNL     1     -11.581  11.844  64.787  1.00  0.00    -0.302 A  
HETATM    3  C   UNL     1     -11.888  12.407  66.035  1.00  0.00    -0.459 A  
HETATM    4  C   UNL     1     -11.165  12.059  67.182  1.00  0.00    -0.316 A  
HETATM    5  C   UNL     1     -10.533  10.926  64.695  1.00  0.00    -0.384 A  
HETATM    6  C   UNL     1     -10.087  11.164  67.076  1.00  0.00    -0.235 A  
HETATM    7  C   UNL     1      -9.792  10.592  65.828  1.00  0.00    -0.296 A  
HETATM    8  C   UNL     1      -9.223  10.792  68.248  1.00  0.00    -0.157 C  
ENDROOT
BRANCH   4   9
HETATM    9  O   UNL     1     -11.391  12.615  68.413  1.00  0.00    -0.247 OA 
BRANCH   9  10
HETATM   10  C   UNL     1     -11.811  13.980  68.464  1.00  0.00    -0.364 C  
BRANCH  10  11
HETATM   11  C   UNL     1     -10.635  14.931  68.230  1.00  0.00    -0.240 C  
BRANCH  11  12
HETATM   12  C   UNL     1     -11.062  16.201  67.473  1.00  0.00    -0.175 C  
BRANCH  12  13
HETATM   13  C   UNL     1      -9.901  17.093  66.964  1.00  0.00    -0.276 C  
HETATM   14  C   UNL     1      -8.762  16.265  66.349  1.00  0.00    -0.354 C  
HETATM   15  C   UNL     1      -9.321  17.934  68.120  1.00  0.00    -0.286 C  
HETATM   16  C   UNL     1     -10.445  18.062  65.901  1.00  0.00    -0.264 C  
HETATM   17  O   UNL     1     -10.448  19.280  66.010  1.00  0.00    -0.465 OA 
HETATM   18  O   UNL     1     -10.943  17.463  64.794  1.00  0.00    -0.964 OA 
ENDBRANCH  12  13
ENDBRANCH  11  12
ENDBRANCH  10  11
ENDBRANCH   9  10
ENDBRANCH   4   9
TORSDOF 5
ENDMDL
MODEL       49
REMARK 921   NORMALIZED FREE ENERGY PREDICTED BY IDOCK:   -5.08 KCAL/MOL
REMARK 922        TOTAL FREE ENERGY PREDICTED BY IDOCK:   -7.05 KCAL/MOL
REMARK 923 INTER-LIGAND FREE ENERGY PREDICTED BY IDOCK:   -6.55 KCAL/MOL
REMARK 924 INTRA-LIGAND FREE ENERGY PREDICTED BY IDOCK:   -0.50 KCAL/MOL
REMARK 927      BINDING AFFINITY PREDICTED BY RF-SCORE:    0.00 PKD
ROOT
HETATM    1  C   UNL     1     -10.749  19.891  65.900  1.00  0.00    -0.445 C  
HETATM    2  C   UNL     1      -9.639  19.308  66.725  1.00  0.00    -0.398 A  
HETATM    3  C   UNL     1      -9.553  17.925  66.939  1.00  0.00    -0.300 A  
HETATM    4  C   UNL     1      -8.544  17.379  67.742  1.00  0.00    -0.227 A  
HETATM    5  C   UNL     1      -8.703  20.149  67.330  1.00  0.00    -0.429 A  
HETATM    6  C   UNL     1      -7.628  18.233  68.379  1.00  0.00    -0.302 A  
HETATM    7  C   UNL     1      -7.709  19.616  68.150  1.00  0.00    -0.344 A  
HETATM    8  C   UNL     1      -6.558  17.730  69.306  1.00  0.00    -0.239 C  
ENDROOT
BRANCH   4   9
HETATM    9  O   UNL     1      -8.444  16.043  68.023  1.00  0.00    -0.161 OA 
BRANCH   9  10
HETATM   10  C   UNL     1      -8.252  15.141  66.931  1.00  0.00    -0.199 C  
BRANCH  10  11
HETATM   11  C   UNL     1      -9.390  14.121  66.847  1.00  0.00    -0.274 C  
BRANCH  11  12
HETATM   12  C   UNL     1     -10.094  14.153  65.480  1.00  0.00    -0.360 C  
BRANCH  12  13
HETATM   13  C   UNL     1     -11.397  13.319  65.384  1.00  0.00    -0.317 C  
HETATM   14  C   UNL     1     -12.341  13.584  66.568  1.00  0.00    -0.382 C  
HETATM   15  C   UNL     1     -11.073  11.812  65.349  1.00  0.00    -0.336 C  
HETATM   16  C   UNL     1     -12.124  13.678  64.077  1.00  0.00    -0.425 C  
HETATM   17  O   UNL     1     -12.343  12.890  63.167  1.00  0.00    -0.614 OA 
HETATM   18  O   UNL     1     -12.520  14.968  63.988  1.00  0.00    -0.796 OA 
ENDBRANCH  12  13
ENDBRANCH  11  12
ENDBRANCH  10  11
ENDBRANCH   9  10
ENDBRANCH   4   9
TORSDOF 5
ENDMDL
MODEL       50
REMARK 921   NORMALIZED FREE ENERGY PREDICTED BY IDOCK:   -5.07 KCAL/MOL
REMARK 922        TOTAL FREE ENERGY PREDICTED BY IDOCK:   -7.04 KCAL/MOL
REMARK 923 INTER-LIGAND FREE ENERGY PREDICTED BY IDOCK:   -6.26 KCAL/MOL
REMARK 924 INTRA-LIGAND FREE ENERGY PREDICTED BY IDOCK:   -0.77 KCAL/MOL
REMARK 927      BINDING AFFINITY PREDICTED BY RF-SCORE:    0.00 PKD
ROOT
HETATM    1  C   UNL     1     -13.720  15.166  72.415  1.00  0.00    -0.600 C  
HETATM    2  C   UNL     1     -12.685  15.146  71.329  1.00  0.00    -0.439 A  
HETATM    3  C   UNL     1     -12.372  13.956  70.655  1.00  0.00    -0.451 A  
HETATM    4  C   UNL     1     -11.378  13.924  69.669  1.00  0.00    -0.200 A  
HETATM    5  C   UNL     1     -11.985  16.312  71.010  1.00  0.00    -0.157 A  
HETATM    6  C   UNL     1     -10.652  15.090  69.380  1.00  0.00    -0.262 A  
HETATM    7  C   UNL     1     -10.977  16.282  70.046  1.00  0.00    -0.356 A  
HETATM    8  C   UNL     1      -9.527  15.120  68.383  1.00  0.00    -0.208 C  
ENDROOT
BRANCH   4   9
HETATM    9  O   UNL     1     -11.001  12.780  69.017  1.00  0.00    -0.242 OA 
BRANCH   9  10
HETATM   10  C   UNL     1     -12.027  11.966  68.445  1.00  0.00    -0.182 C  
BRANCH  10  11
HETATM   11  C   UNL     1     -11.741  11.667  66.972  1.00  0.00    -0.176 C  
BRANCH  11  12
HETATM   12  C   UNL     1     -10.857  12.747  66.326  1.00  0.00    -0.299 C  
BRANCH  12  13
HETATM   13  C   UNL     1     -11.540  13.592  65.219  1.00  0.00    -0.329 C  
HETATM   14  C   UNL     1     -10.760  14.880  64.911  1.00  0.00    -0.426 C  
HETATM   15  C   UNL     1     -12.971  13.980  65.642  1.00  0.00    -0.337 C  
HETATM   16  C   UNL     1     -11.637  12.748  63.937  1.00  0.00    -0.452 C  
HETATM   17  O   UNL     1     -12.687  12.418  63.403  1.00  0.00    -0.722 OA 
HETATM   18  O   UNL     1     -10.446  12.375  63.415  1.00  0.00    -0.426 OA 
ENDBRANCH  12  13
ENDBRANCH  11  12
ENDBRANCH  10  11
ENDBRANCH   9  10
ENDBRANCH   4   9
TORSDOF 5
ENDMDL
MODEL       51
REMARK 921   NORMALIZED FREE ENERGY PREDICTED BY IDOCK:   -5.07 KCAL/MOL
REMARK 922        TOTAL FREE ENERGY PREDICTED BY IDOCK:   -7.03 KCAL/MOL
REMARK 923 INTER-LIGAND FREE ENERGY PREDICTED BY IDOCK:   -6.26 KCAL/MOL
REMARK 924 INTRA-LIGAND FREE ENERGY PREDICTED BY IDOCK:   -0.77 KCAL/MOL
REMARK 927      BINDING AFFINITY PREDICTED BY RF-SCORE:    0.00 PKD
ROOT
HETATM    1  C   UNL     1     -10.585   9.449  66.710  1.00  0.00    -0.210 C  
HETATM    2  C   UNL     1     -11.082  10.640  67.475  1.00  0.00    -0.367 A  
HETATM    3  C   UNL     1     -11.326  11.861  66.827  1.00  0.00    -0.393 A  
HETATM    4  C   UNL     1     -11.750  12.987  67.542  1.00  0.00    -0.370 A  
HETATM    5  C   UNL     1     -11.263  10.557  68.857  1.00  0.00    -0.323 A  
HETATM    6  C   UNL     1     -11.894  12.907  68.937  1.00  0.00    -0.352 A  
HETATM    7  C   UNL     1     -11.663  11.680  69.580  1.00  0.00    -0.418 A  
HETATM    8  C   UNL     1     -12.282  14.088  69.782  1.00  0.00    -0.396 C  
ENDROOT
BRANCH   4   9
HETATM    9  O   UNL     1     -11.954  14.212  66.967  1.00  0.00    -0.408 OA 
BRANCH   9  10
HETATM   10  C   UNL     1     -12.034  14.278  65.541  1.00  0.00    -0.385 C  
BRANCH  10  11
HETATM   11  C   UNL     1     -10.997  15.249  64.972  1.00  0.00    -0.450 C  
BRANCH  11  12
HETATM   12  C   UNL     1      -9.719  15.293  65.826  1.00  0.00    -0.385 C  
BRANCH  12  13
HETATM   13  C   UNL     1      -9.485  16.613  66.604  1.00  0.00    -0.271 C  
HETATM   14  C   UNL     1      -9.604  16.416  68.124  1.00  0.00    -0.227 C  
HETATM   15  C   UNL     1     -10.508  17.683  66.171  1.00  0.00    -0.295 C  
HETATM   16  C   UNL     1      -8.079  17.143  66.277  1.00  0.00    -0.290 C  
HETATM   17  O   UNL     1      -7.852  18.209  65.722  1.00  0.00    -0.526 OA 
HETATM   18  O   UNL     1      -7.067  16.326  66.652  1.00  0.00    -0.198 OA 
ENDBRANCH  12  13
ENDBRANCH  11  12
ENDBRANCH  10  11
ENDBRANCH   9  10
ENDBRANCH   4   9
TORSDOF 5
ENDMDL
MODEL       52
REMARK 921   NORMALIZED FREE ENERGY PREDICTED BY IDOCK:   -5.06 KCAL/MOL
REMARK 922        TOTAL FREE ENERGY PREDICTED BY IDOCK:   -7.03 KCAL/MOL
REMARK 923 INTER-LIGAND FREE ENERGY PREDICTED BY IDOCK:   -6.58 KCAL/MOL
REMARK 924 INTRA-LIGAND FREE ENERGY PREDICTED BY IDOCK:   -0.45 KCAL/MOL
REMARK 927      BINDING AFFINITY PREDICTED BY RF-SCORE:    0.00 PKD
ROOT
HETATM    1  C   UNL     1     -12.373  14.330  64.212  1.00  0.00    -0.407 C  
HETATM    2  C   UNL     1     -12.132  13.675  65.540  1.00  0.00    -0.440 A  
HETATM    3  C   UNL     1     -12.086  14.434  66.719  1.00  0.00    -0.393 A  
HETATM    4  C   UNL     1     -11.820  13.833  67.956  1.00  0.00    -0.373 A  
HETATM    5  C   UNL     1     -11.903  12.299  65.609  1.00  0.00    -0.423 A  
HETATM    6  C   UNL     1     -11.554  12.456  68.013  1.00  0.00    -0.403 A  
HETATM    7  C   UNL     1     -11.614  11.697  66.834  1.00  0.00    -0.246 A  
HETATM    8  C   UNL     1     -11.197  11.751  69.292  1.00  0.00    -0.318 C  
ENDROOT
BRANCH   4   9
HETATM    9  O   UNL     1     -11.716  14.535  69.127  1.00  0.00    -0.280 OA 
BRANCH   9  10
HETATM   10  C   UNL     1     -11.992  15.937  69.095  1.00  0.00    -0.255 C  
BRANCH  10  11
HETATM   11  C   UNL     1     -10.703  16.754  68.980  1.00  0.00    -0.331 C  
BRANCH  11  12
HETATM   12  C   UNL     1     -10.507  17.326  67.565  1.00  0.00    -0.356 C  
BRANCH  12  13
HETATM   13  C   UNL     1      -9.867  18.737  67.502  1.00  0.00    -0.360 C  
HETATM   14  C   UNL     1      -9.814  19.409  68.883  1.00  0.00    -0.523 C  
HETATM   15  C   UNL     1     -10.663  19.649  66.547  1.00  0.00    -0.543 C  
HETATM   16  C   UNL     1      -8.436  18.610  66.953  1.00  0.00    -0.273 C  
HETATM   17  O   UNL     1      -8.047  19.116  65.909  1.00  0.00    -0.449 OA 
HETATM   18  O   UNL     1      -7.600  17.875  67.722  1.00  0.00    -0.208 OA 
ENDBRANCH  12  13
ENDBRANCH  11  12
ENDBRANCH  10  11
ENDBRANCH   9  10
ENDBRANCH   4   9
TORSDOF 5
ENDMDL
MODEL       53
REMARK 921   NORMALIZED FREE ENERGY PREDICTED BY IDOCK:   -5.05 KCAL/MOL
REMARK 922        TOTAL FREE ENERGY PREDICTED BY IDOCK:   -7.00 KCAL/MOL
REMARK 923 INTER-LIGAND FREE ENERGY PREDICTED BY IDOCK:   -6.34 KCAL/MOL
REMARK 924 INTRA-LIGAND FREE ENERGY PREDICTED BY IDOCK:   -0.67 KCAL/MOL
REMARK 927      BINDING AFFINITY PREDICTED BY RF-SCORE:    0.00 PKD
ROOT
HETATM    1  C   UNL     1     -11.043  14.385  64.867  1.00  0.00    -0.404 C  
HETATM    2  C   UNL     1     -11.301  14.037  66.304  1.00  0.00    -0.336 A  
HETATM    3  C   UNL     1     -11.503  12.705  66.696  1.00  0.00    -0.409 A  
HETATM    4  C   UNL     1     -11.785  12.379  68.028  1.00  0.00    -0.356 A  
HETATM    5  C   UNL     1     -11.391  15.048  67.262  1.00  0.00    -0.337 A  
HETATM    6  C   UNL     1     -11.911  13.403  68.980  1.00  0.00    -0.357 A  
HETATM    7  C   UNL     1     -11.695  14.734  68.587  1.00  0.00    -0.356 A  
HETATM    8  C   UNL     1     -12.276  13.139  70.414  1.00  0.00    -0.389 C  
ENDROOT
BRANCH   4   9
HETATM    9  O   UNL     1     -12.038  11.102  68.453  1.00  0.00    -0.605 OA 
BRANCH   9  10
HETATM   10  C   UNL     1     -10.956  10.167  68.448  1.00  0.00    -0.244 C  
BRANCH  10  11
HETATM   11  C   UNL     1     -10.175  10.215  69.763  1.00  0.00    -0.286 C  
BRANCH  11  12
HETATM   12  C   UNL     1     -10.939   9.534  70.912  1.00  0.00    -0.407 C  
BRANCH  12  13
HETATM   13  C   UNL     1     -10.477   8.094  71.255  1.00  0.00    -0.254 C  
HETATM   14  C   UNL     1     -10.374   7.867  72.772  1.00  0.00    -0.399 C  
HETATM   15  C   UNL     1      -9.099   7.805  70.625  1.00  0.00    -0.153 C  
HETATM   16  C   UNL     1     -11.486   7.094  70.667  1.00  0.00    -0.308 C  
HETATM   17  O   UNL     1     -11.218   6.261  69.812  1.00  0.00    -0.368 OA 
HETATM   18  O   UNL     1     -12.738   7.194  71.170  1.00  0.00    -0.367 OA 
ENDBRANCH  12  13
ENDBRANCH  11  12
ENDBRANCH  10  11
ENDBRANCH   9  10
ENDBRANCH   4   9
TORSDOF 5
ENDMDL
MODEL       54
REMARK 921   NORMALIZED FREE ENERGY PREDICTED BY IDOCK:   -5.04 KCAL/MOL
REMARK 922        TOTAL FREE ENERGY PREDICTED BY IDOCK:   -7.00 KCAL/MOL
REMARK 923 INTER-LIGAND FREE ENERGY PREDICTED BY IDOCK:   -6.41 KCAL/MOL
REMARK 924 INTRA-LIGAND FREE ENERGY PREDICTED BY IDOCK:   -0.59 KCAL/MOL
REMARK 927      BINDING AFFINITY PREDICTED BY RF-SCORE:    0.00 PKD
ROOT
HETATM    1  C   UNL     1     -13.143   9.803  71.564  1.00  0.00    -0.506 C  
HETATM    2  C   UNL     1     -12.899  11.247  71.235  1.00  0.00    -0.491 A  
HETATM    3  C   UNL     1     -12.135  11.610  70.116  1.00  0.00    -0.414 A  
HETATM    4  C   UNL     1     -11.870  12.955  69.828  1.00  0.00    -0.310 A  
HETATM    5  C   UNL     1     -13.395  12.247  72.074  1.00  0.00    -0.491 A  
HETATM    6  C   UNL     1     -12.339  13.954  70.695  1.00  0.00    -0.451 A  
HETATM    7  C   UNL     1     -13.115  13.588  71.807  1.00  0.00    -0.475 A  
HETATM    8  C   UNL     1     -12.041  15.413  70.490  1.00  0.00    -0.411 C  
ENDROOT
BRANCH   4   9
HETATM    9  O   UNL     1     -11.091  13.361  68.778  1.00  0.00    -0.243 OA 
BRANCH   9  10
HETATM   10  C   UNL     1     -11.712  13.506  67.499  1.00  0.00    -0.367 C  
BRANCH  10  11
HETATM   11  C   UNL     1     -10.817  14.285  66.533  1.00  0.00    -0.304 C  
BRANCH  11  12
HETATM   12  C   UNL     1     -10.545  15.717  67.026  1.00  0.00    -0.311 C  
BRANCH  12  13
HETATM   13  C   UNL     1      -9.112  15.974  67.560  1.00  0.00    -0.203 C  
HETATM   14  C   UNL     1      -8.152  14.825  67.214  1.00  0.00    -0.232 C  
HETATM   15  C   UNL     1      -9.131  16.147  69.093  1.00  0.00    -0.243 C  
HETATM   16  C   UNL     1      -8.576  17.277  66.944  1.00  0.00    -0.240 C  
HETATM   17  O   UNL     1      -8.276  18.275  67.584  1.00  0.00    -0.245 OA 
HETATM   18  O   UNL     1      -8.454  17.254  65.596  1.00  0.00    -0.475 OA 
ENDBRANCH  12  13
ENDBRANCH  11  12
ENDBRANCH  10  11
ENDBRANCH   9  10
ENDBRANCH   4   9
TORSDOF 5
ENDMDL
MODEL       55
REMARK 921   NORMALIZED FREE ENERGY PREDICTED BY IDOCK:   -5.04 KCAL/MOL
REMARK 922        TOTAL FREE ENERGY PREDICTED BY IDOCK:   -7.00 KCAL/MOL
REMARK 923 INTER-LIGAND FREE ENERGY PREDICTED BY IDOCK:   -6.48 KCAL/MOL
REMARK 924 INTRA-LIGAND FREE ENERGY PREDICTED BY IDOCK:   -0.52 KCAL/MOL
REMARK 927      BINDING AFFINITY PREDICTED BY RF-SCORE:    0.00 PKD
ROOT
HETATM    1  C   UNL     1     -11.495  16.095  68.660  1.00  0.00    -0.340 C  
HETATM    2  C   UNL     1     -11.398  14.840  67.843  1.00  0.00    -0.331 A  
HETATM    3  C   UNL     1     -11.890  13.622  68.335  1.00  0.00    -0.407 A  
HETATM    4  C   UNL     1     -11.766  12.441  67.594  1.00  0.00    -0.346 A  
HETATM    5  C   UNL     1     -10.770  14.866  66.596  1.00  0.00    -0.312 A  
HETATM    6  C   UNL     1     -11.099  12.465  66.358  1.00  0.00    -0.343 A  
HETATM    7  C   UNL     1     -10.620  13.689  65.863  1.00  0.00    -0.289 A  
HETATM    8  C   UNL     1     -10.868  11.229  65.536  1.00  0.00    -0.244 C  
ENDROOT
BRANCH   4   9
HETATM    9  O   UNL     1     -12.184  11.219  68.049  1.00  0.00    -0.621 OA 
BRANCH   9  10
HETATM   10  C   UNL     1     -12.085  10.955  69.451  1.00  0.00    -0.290 C  
BRANCH  10  11
HETATM   11  C   UNL     1     -11.148   9.777  69.728  1.00  0.00    -0.272 C  
BRANCH  11  12
HETATM   12  C   UNL     1     -11.028   9.478  71.233  1.00  0.00    -0.440 C  
BRANCH  12  13
HETATM   13  C   UNL     1     -11.635   8.127  71.692  1.00  0.00    -0.325 C  
HETATM   14  C   UNL     1     -11.027   7.642  73.017  1.00  0.00    -0.457 C  
HETATM   15  C   UNL     1     -11.402   7.040  70.623  1.00  0.00    -0.349 C  
HETATM   16  C   UNL     1     -13.153   8.298  71.871  1.00  0.00    -0.344 C  
HETATM   17  O   UNL     1     -13.999   7.696  71.224  1.00  0.00    -0.342 OA 
HETATM   18  O   UNL     1     -13.512   9.190  72.823  1.00  0.00    -0.424 OA 
ENDBRANCH  12  13
ENDBRANCH  11  12
ENDBRANCH  10  11
ENDBRANCH   9  10
ENDBRANCH   4   9
TORSDOF 5
ENDMDL
MODEL       56
REMARK 921   NORMALIZED FREE ENERGY PREDICTED BY IDOCK:   -5.03 KCAL/MOL
REMARK 922        TOTAL FREE ENERGY PREDICTED BY IDOCK:   -6.99 KCAL/MOL
REMARK 923 INTER-LIGAND FREE ENERGY PREDICTED BY IDOCK:   -6.22 KCAL/MOL
REMARK 924 INTRA-LIGAND FREE ENERGY PREDICTED BY IDOCK:   -0.76 KCAL/MOL
REMARK 927      BINDING AFFINITY PREDICTED BY RF-SCORE:    0.00 PKD
ROOT
HETATM    1  C   UNL     1     -10.934  11.513  63.499  1.00  0.00    -0.453 C  
HETATM    2  C   UNL     1     -11.111  12.449  64.659  1.00  0.00    -0.348 A  
HETATM    3  C   UNL     1     -10.062  12.685  65.559  1.00  0.00    -0.279 A  
HETATM    4  C   UNL     1     -10.235  13.524  66.666  1.00  0.00    -0.275 A  
HETATM    5  C   UNL     1     -12.347  13.061  64.879  1.00  0.00    -0.512 A  
HETATM    6  C   UNL     1     -11.490  14.107  66.904  1.00  0.00    -0.373 A  
HETATM    7  C   UNL     1     -12.534  13.880  65.993  1.00  0.00    -0.501 A  
HETATM    8  C   UNL     1     -11.772  14.967  68.104  1.00  0.00    -0.335 C  
ENDROOT
BRANCH   4   9
HETATM    9  O   UNL     1      -9.260  13.749  67.601  1.00  0.00    -0.192 OA 
BRANCH   9  10
HETATM   10  C   UNL     1      -8.062  14.404  67.176  1.00  0.00    -0.145 C  
BRANCH  10  11
HETATM   11  C   UNL     1      -8.070  15.883  67.568  1.00  0.00    -0.171 C  
BRANCH  11  12
HETATM   12  C   UNL     1      -8.841  16.745  66.553  1.00  0.00    -0.311 C  
BRANCH  12  13
HETATM   13  C   UNL     1      -8.951  18.250  66.908  1.00  0.00    -0.281 C  
HETATM   14  C   UNL     1      -7.952  19.105  66.112  1.00  0.00    -0.291 C  
HETATM   15  C   UNL     1      -8.690  18.471  68.412  1.00  0.00    -0.351 C  
HETATM   16  C   UNL     1     -10.379  18.732  66.599  1.00  0.00    -0.420 C  
HETATM   17  O   UNL     1     -11.161  19.161  67.436  1.00  0.00    -0.426 OA 
HETATM   18  O   UNL     1     -10.733  18.647  65.296  1.00  0.00    -0.559 OA 
ENDBRANCH  12  13
ENDBRANCH  11  12
ENDBRANCH  10  11
ENDBRANCH   9  10
ENDBRANCH   4   9
TORSDOF 5
ENDMDL
MODEL       57
REMARK 921   NORMALIZED FREE ENERGY PREDICTED BY IDOCK:   -5.01 KCAL/MOL
REMARK 922        TOTAL FREE ENERGY PREDICTED BY IDOCK:   -6.96 KCAL/MOL
REMARK 923 INTER-LIGAND FREE ENERGY PREDICTED BY IDOCK:   -6.48 KCAL/MOL
REMARK 924 INTRA-LIGAND FREE ENERGY PREDICTED BY IDOCK:   -0.47 KCAL/MOL
REMARK 927      BINDING AFFINITY PREDICTED BY RF-SCORE:    0.00 PKD
ROOT
HETATM    1  C   UNL     1     -12.036  11.008  69.642  1.00  0.00    -0.411 C  
HETATM    2  C   UNL     1     -11.610  11.568  68.317  1.00  0.00    -0.378 A  
HETATM    3  C   UNL     1     -11.762  12.934  68.031  1.00  0.00    -0.401 A  
HETATM    4  C   UNL     1     -11.404  13.455  66.782  1.00  0.00    -0.325 A  
HETATM    5  C   UNL     1     -11.098  10.721  67.332  1.00  0.00    -0.363 A  
HETATM    6  C   UNL     1     -10.925  12.592  65.783  1.00  0.00    -0.327 A  
HETATM    7  C   UNL     1     -10.761  11.228  66.077  1.00  0.00    -0.301 A  
HETATM    8  C   UNL     1     -10.582  13.064  64.398  1.00  0.00    -0.429 C  
ENDROOT
BRANCH   4   9
HETATM    9  O   UNL     1     -11.577  14.768  66.436  1.00  0.00    -0.356 OA 
BRANCH   9  10
HETATM   10  C   UNL     1     -10.791  15.750  67.116  1.00  0.00    -0.289 C  
BRANCH  10  11
HETATM   11  C   UNL     1      -9.995  16.605  66.128  1.00  0.00    -0.356 C  
BRANCH  11  12
HETATM   12  C   UNL     1     -10.345  18.098  66.246  1.00  0.00    -0.407 C  
BRANCH  12  13
HETATM   13  C   UNL     1      -9.280  18.977  66.950  1.00  0.00    -0.332 C  
HETATM   14  C   UNL     1      -9.709  20.451  67.032  1.00  0.00    -0.588 C  
HETATM   15  C   UNL     1      -7.935  18.903  66.198  1.00  0.00    -0.256 C  
HETATM   16  C   UNL     1      -9.055  18.442  68.375  1.00  0.00    -0.320 C  
HETATM   17  O   UNL     1      -7.994  17.996  68.788  1.00  0.00    -0.299 OA 
HETATM   18  O   UNL     1     -10.145  18.495  69.175  1.00  0.00    -0.347 OA 
ENDBRANCH  12  13
ENDBRANCH  11  12
ENDBRANCH  10  11
ENDBRANCH   9  10
ENDBRANCH   4   9
TORSDOF 5
ENDMDL
MODEL       58
REMARK 921   NORMALIZED FREE ENERGY PREDICTED BY IDOCK:   -4.99 KCAL/MOL
REMARK 922        TOTAL FREE ENERGY PREDICTED BY IDOCK:   -6.93 KCAL/MOL
REMARK 923 INTER-LIGAND FREE ENERGY PREDICTED BY IDOCK:   -6.18 KCAL/MOL
REMARK 924 INTRA-LIGAND FREE ENERGY PREDICTED BY IDOCK:   -0.75 KCAL/MOL
REMARK 927      BINDING AFFINITY PREDICTED BY RF-SCORE:    0.00 PKD
ROOT
HETATM    1  C   UNL     1     -11.038  10.259  68.788  1.00  0.00    -0.276 C  
HETATM    2  C   UNL     1     -10.864  10.668  67.355  1.00  0.00    -0.353 A  
HETATM    3  C   UNL     1     -11.559  11.769  66.832  1.00  0.00    -0.310 A  
HETATM    4  C   UNL     1     -11.432  12.130  65.485  1.00  0.00    -0.343 A  
HETATM    5  C   UNL     1     -10.039   9.922  66.511  1.00  0.00    -0.298 A  
HETATM    6  C   UNL     1     -10.631  11.353  64.632  1.00  0.00    -0.380 A  
HETATM    7  C   UNL     1      -9.926  10.260  65.162  1.00  0.00    -0.395 A  
HETATM    8  C   UNL     1     -10.496  11.637  63.162  1.00  0.00    -0.368 C  
ENDROOT
BRANCH   4   9
HETATM    9  O   UNL     1     -12.124  13.164  64.914  1.00  0.00    -0.359 OA 
BRANCH   9  10
HETATM   10  C   UNL     1     -12.026  14.454  65.522  1.00  0.00    -0.358 C  
BRANCH  10  11
HETATM   11  C   UNL     1     -10.796  15.212  65.018  1.00  0.00    -0.457 C  
BRANCH  11  12
HETATM   12  C   UNL     1      -9.646  15.190  66.040  1.00  0.00    -0.365 C  
BRANCH  12  13
HETATM   13  C   UNL     1      -9.300  16.559  66.680  1.00  0.00    -0.279 C  
HETATM   14  C   UNL     1      -9.339  16.505  68.215  1.00  0.00    -0.217 C  
HETATM   15  C   UNL     1     -10.291  17.642  66.206  1.00  0.00    -0.342 C  
HETATM   16  C   UNL     1      -7.890  16.978  66.230  1.00  0.00    -0.311 C  
HETATM   17  O   UNL     1      -7.642  17.976  65.568  1.00  0.00    -0.530 OA 
HETATM   18  O   UNL     1      -6.901  16.142  66.624  1.00  0.00    -0.236 OA 
ENDBRANCH  12  13
ENDBRANCH  11  12
ENDBRANCH  10  11
ENDBRANCH   9  10
ENDBRANCH   4   9
TORSDOF 5
ENDMDL
MODEL       59
REMARK 921   NORMALIZED FREE ENERGY PREDICTED BY IDOCK:   -4.98 KCAL/MOL
REMARK 922        TOTAL FREE ENERGY PREDICTED BY IDOCK:   -6.91 KCAL/MOL
REMARK 923 INTER-LIGAND FREE ENERGY PREDICTED BY IDOCK:   -6.31 KCAL/MOL
REMARK 924 INTRA-LIGAND FREE ENERGY PREDICTED BY IDOCK:   -0.61 KCAL/MOL
REMARK 927      BINDING AFFINITY PREDICTED BY RF-SCORE:    0.00 PKD
ROOT
HETATM    1  C   UNL     1     -10.477   8.977  68.221  1.00  0.00    -0.247 C  
HETATM    2  C   UNL     1     -10.514  10.004  67.128  1.00  0.00    -0.305 A  
HETATM    3  C   UNL     1     -11.217  11.207  67.295  1.00  0.00    -0.347 A  
HETATM    4  C   UNL     1     -11.289  12.151  66.264  1.00  0.00    -0.357 A  
HETATM    5  C   UNL     1      -9.883   9.750  65.909  1.00  0.00    -0.352 A  
HETATM    6  C   UNL     1     -10.685  11.873  65.027  1.00  0.00    -0.341 A  
HETATM    7  C   UNL     1      -9.970  10.675  64.868  1.00  0.00    -0.382 A  
HETATM    8  C   UNL     1     -10.773  12.806  63.852  1.00  0.00    -0.443 C  
ENDROOT
BRANCH   4   9
HETATM    9  O   UNL     1     -12.002  13.316  66.358  1.00  0.00    -0.384 OA 
BRANCH   9  10
HETATM   10  C   UNL     1     -11.990  14.011  67.607  1.00  0.00    -0.368 C  
BRANCH  10  11
HETATM   11  C   UNL     1     -10.710  14.835  67.771  1.00  0.00    -0.268 C  
BRANCH  11  12
HETATM   12  C   UNL     1     -10.631  15.985  66.752  1.00  0.00    -0.297 C  
BRANCH  12  13
HETATM   13  C   UNL     1      -9.880  17.251  67.237  1.00  0.00    -0.267 C  
HETATM   14  C   UNL     1      -8.448  17.320  66.685  1.00  0.00    -0.292 C  
HETATM   15  C   UNL     1      -9.810  17.280  68.777  1.00  0.00    -0.306 C  
HETATM   16  C   UNL     1     -10.654  18.497  66.775  1.00  0.00    -0.354 C  
HETATM   17  O   UNL     1     -11.157  19.320  67.528  1.00  0.00    -0.423 OA 
HETATM   18  O   UNL     1     -10.752  18.635  65.432  1.00  0.00    -0.572 OA 
ENDBRANCH  12  13
ENDBRANCH  11  12
ENDBRANCH  10  11
ENDBRANCH   9  10
ENDBRANCH   4   9
TORSDOF 5
ENDMDL
MODEL       60
REMARK 921   NORMALIZED FREE ENERGY PREDICTED BY IDOCK:   -4.96 KCAL/MOL
REMARK 922        TOTAL FREE ENERGY PREDICTED BY IDOCK:   -6.89 KCAL/MOL
REMARK 923 INTER-LIGAND FREE ENERGY PREDICTED BY IDOCK:   -6.20 KCAL/MOL
REMARK 924 INTRA-LIGAND FREE ENERGY PREDICTED BY IDOCK:   -0.69 KCAL/MOL
REMARK 927      BINDING AFFINITY PREDICTED BY RF-SCORE:    0.00 PKD
ROOT
HETATM    1  C   UNL     1     -11.231  16.208  68.551  1.00  0.00    -0.365 C  
HETATM    2  C   UNL     1     -11.830  15.304  69.587  1.00  0.00    -0.363 A  
HETATM    3  C   UNL     1     -11.541  13.932  69.599  1.00  0.00    -0.347 A  
HETATM    4  C   UNL     1     -12.129  13.077  70.538  1.00  0.00    -0.292 A  
HETATM    5  C   UNL     1     -12.725  15.818  70.528  1.00  0.00    -0.277 A  
HETATM    6  C   UNL     1     -13.057  13.592  71.458  1.00  0.00    -0.431 A  
HETATM    7  C   UNL     1     -13.334  14.969  71.452  1.00  0.00    -0.513 A  
HETATM    8  C   UNL     1     -13.780  12.728  72.454  1.00  0.00    -0.457 C  
ENDROOT
BRANCH   4   9
HETATM    9  O   UNL     1     -11.919  11.724  70.562  1.00  0.00    -0.356 OA 
BRANCH   9  10
HETATM   10  C   UNL     1     -11.766  11.048  69.311  1.00  0.00    -0.326 C  
BRANCH  10  11
HETATM   11  C   UNL     1     -11.048   9.708  69.490  1.00  0.00    -0.198 C  
BRANCH  11  12
HETATM   12  C   UNL     1     -10.461   9.553  70.903  1.00  0.00    -0.382 C  
BRANCH  12  13
HETATM   13  C   UNL     1     -10.807   8.224  71.624  1.00  0.00    -0.320 C  
HETATM   14  C   UNL     1     -10.228   8.171  73.046  1.00  0.00    -0.273 C  
HETATM   15  C   UNL     1     -10.259   7.021  70.830  1.00  0.00    -0.210 C  
HETATM   16  C   UNL     1     -12.337   8.083  71.701  1.00  0.00    -0.314 C  
HETATM   17  O   UNL     1     -12.978   7.188  71.170  1.00  0.00    -0.366 OA 
HETATM   18  O   UNL     1     -12.956   9.049  72.419  1.00  0.00    -0.408 OA 
ENDBRANCH  12  13
ENDBRANCH  11  12
ENDBRANCH  10  11
ENDBRANCH   9  10
ENDBRANCH   4   9
TORSDOF 5
ENDMDL
MODEL       61
REMARK 921   NORMALIZED FREE ENERGY PREDICTED BY IDOCK:   -4.94 KCAL/MOL
REMARK 922        TOTAL FREE ENERGY PREDICTED BY IDOCK:   -6.87 KCAL/MOL
REMARK 923 INTER-LIGAND FREE ENERGY PREDICTED BY IDOCK:   -6.27 KCAL/MOL
REMARK 924 INTRA-LIGAND FREE ENERGY PREDICTED BY IDOCK:   -0.60 KCAL/MOL
REMARK 927      BINDING AFFINITY PREDICTED BY RF-SCORE:    0.00 PKD
ROOT
HETATM    1  C   UNL     1      -9.926  20.199  69.223  1.00  0.00    -0.106 C  
HETATM    2  C   UNL     1     -10.161  19.148  68.178  1.00  0.00    -0.489 A  
HETATM    3  C   UNL     1     -10.190  17.788  68.520  1.00  0.00    -0.382 A  
HETATM    4  C   UNL     1     -10.367  16.801  67.543  1.00  0.00    -0.301 A  
HETATM    5  C   UNL     1     -10.308  19.515  66.839  1.00  0.00    -0.566 A  
HETATM    6  C   UNL     1     -10.477  17.173  66.194  1.00  0.00    -0.277 A  
HETATM    7  C   UNL     1     -10.462  18.537  65.857  1.00  0.00    -0.379 A  
HETATM    8  C   UNL     1     -10.605  16.170  65.082  1.00  0.00    -0.366 C  
ENDROOT
BRANCH   4   9
HETATM    9  O   UNL     1     -10.354  15.459  67.817  1.00  0.00    -0.246 OA 
BRANCH   9  10
HETATM   10  C   UNL     1     -11.434  14.920  68.583  1.00  0.00    -0.306 C  
BRANCH  10  11
HETATM   11  C   UNL     1     -11.733  13.475  68.179  1.00  0.00    -0.396 C  
BRANCH  11  12
HETATM   12  C   UNL     1     -12.232  13.373  66.727  1.00  0.00    -0.367 C  
BRANCH  12  13
HETATM   13  C   UNL     1     -11.389  12.464  65.797  1.00  0.00    -0.393 C  
HETATM   14  C   UNL     1     -11.353  11.009  66.290  1.00  0.00     0.134 C  
HETATM   15  C   UNL     1      -9.939  12.982  65.704  1.00  0.00    -0.239 C  
HETATM   16  C   UNL     1     -11.995  12.498  64.383  1.00  0.00    -0.404 C  
HETATM   17  O   UNL     1     -11.416  12.918  63.391  1.00  0.00    -0.475 OA 
HETATM   18  O   UNL     1     -13.257  12.018  64.300  1.00  0.00    -0.710 OA 
ENDBRANCH  12  13
ENDBRANCH  11  12
ENDBRANCH  10  11
ENDBRANCH   9  10
ENDBRANCH   4   9
TORSDOF 5
ENDMDL
MODEL       62
REMARK 921   NORMALIZED FREE ENERGY PREDICTED BY IDOCK:   -4.92 KCAL/MOL
REMARK 922        TOTAL FREE ENERGY PREDICTED BY IDOCK:   -6.85 KCAL/MOL
REMARK 923 INTER-LIGAND FREE ENERGY PREDICTED BY IDOCK:   -6.48 KCAL/MOL
REMARK 924 INTRA-LIGAND FREE ENERGY PREDICTED BY IDOCK:   -0.37 KCAL/MOL
REMARK 927      BINDING AFFINITY PREDICTED BY RF-SCORE:    0.00 PKD
ROOT
HETATM    1  C   UNL     1     -12.776  13.868  65.332  1.00  0.00    -0.525 C  
HETATM    2  C   UNL     1     -11.891  12.659  65.410  1.00  0.00    -0.473 A  
HETATM    3  C   UNL     1     -11.491  12.140  66.651  1.00  0.00    -0.426 A  
HETATM    4  C   UNL     1     -10.632  11.037  66.730  1.00  0.00    -0.266 A  
HETATM    5  C   UNL     1     -11.416  12.063  64.240  1.00  0.00    -0.435 A  
HETATM    6  C   UNL     1     -10.128  10.466  65.550  1.00  0.00    -0.352 A  
HETATM    7  C   UNL     1     -10.541  10.979  64.310  1.00  0.00    -0.402 A  
HETATM    8  C   UNL     1      -9.151   9.323  65.553  1.00  0.00    -0.275 C  
ENDROOT
BRANCH   4   9
HETATM    9  O   UNL     1     -10.173  10.523  67.913  1.00  0.00    -0.170 OA 
BRANCH   9  10
HETATM   10  C   UNL     1     -10.993  10.677  69.074  1.00  0.00    -0.248 C  
BRANCH  10  11
HETATM   11  C   UNL     1     -10.481   9.817  70.232  1.00  0.00    -0.345 C  
BRANCH  11  12
HETATM   12  C   UNL     1     -11.509   9.713  71.371  1.00  0.00    -0.455 C  
BRANCH  12  13
HETATM   13  C   UNL     1     -11.905   8.271  71.780  1.00  0.00    -0.357 C  
HETATM   14  C   UNL     1     -11.181   7.814  73.056  1.00  0.00    -0.380 C  
HETATM   15  C   UNL     1     -11.568   7.278  70.648  1.00  0.00    -0.322 C  
HETATM   16  C   UNL     1     -13.423   8.219  72.019  1.00  0.00    -0.311 C  
HETATM   17  O   UNL     1     -14.204   7.535  71.371  1.00  0.00    -0.430 OA 
HETATM   18  O   UNL     1     -13.862   9.006  73.028  1.00  0.00    -0.304 OA 
ENDBRANCH  12  13
ENDBRANCH  11  12
ENDBRANCH  10  11
ENDBRANCH   9  10
ENDBRANCH   4   9
TORSDOF 5
ENDMDL
MODEL       63
REMARK 921   NORMALIZED FREE ENERGY PREDICTED BY IDOCK:   -4.91 KCAL/MOL
REMARK 922        TOTAL FREE ENERGY PREDICTED BY IDOCK:   -6.82 KCAL/MOL
REMARK 923 INTER-LIGAND FREE ENERGY PREDICTED BY IDOCK:   -5.22 KCAL/MOL
REMARK 924 INTRA-LIGAND FREE ENERGY PREDICTED BY IDOCK:   -1.60 KCAL/MOL
REMARK 927      BINDING AFFINITY PREDICTED BY RF-SCORE:    0.00 PKD
ROOT
HETATM    1  C   UNL     1     -10.560  13.075  64.663  1.00  0.00    -0.397 C  
HETATM    2  C   UNL     1     -10.606  13.637  66.054  1.00  0.00    -0.290 A  
HETATM    3  C   UNL     1      -9.424  13.970  66.734  1.00  0.00    -0.292 A  
HETATM    4  C   UNL     1      -9.459  14.455  68.047  1.00  0.00    -0.209 A  
HETATM    5  C   UNL     1     -11.831  13.788  66.706  1.00  0.00    -0.454 A  
HETATM    6  C   UNL     1     -10.691  14.570  68.711  1.00  0.00    -0.257 A  
HETATM    7  C   UNL     1     -11.872  14.248  68.023  1.00  0.00    -0.379 A  
HETATM    8  C   UNL     1     -10.804  15.021  70.140  1.00  0.00    -0.217 C  
ENDROOT
BRANCH   4   9
HETATM    9  O   UNL     1      -8.334  14.749  68.771  1.00  0.00    -0.158 OA 
BRANCH   9  10
HETATM   10  C   UNL     1      -7.481  15.791  68.291  1.00  0.00    -0.116 C  
BRANCH  10  11
HETATM   11  C   UNL     1      -8.152  17.160  68.419  1.00  0.00    -0.255 C  
BRANCH  11  12
HETATM   12  C   UNL     1      -8.476  17.775  67.047  1.00  0.00    -0.245 C  
BRANCH  12  13
HETATM   13  C   UNL     1      -9.939  18.253  66.861  1.00  0.00    -0.356 C  
HETATM   14  C   UNL     1     -10.762  18.107  68.150  1.00  0.00    -0.242 C  
HETATM   15  C   UNL     1     -10.633  17.444  65.746  1.00  0.00    -0.185 C  
HETATM   16  C   UNL     1      -9.930  19.731  66.438  1.00  0.00    -0.470 C  
HETATM   17  O   UNL     1     -10.362  20.150  65.373  1.00  0.00    -0.314 OA 
HETATM   18  O   UNL     1      -9.394  20.575  67.350  1.00  0.00    -0.388 OA 
ENDBRANCH  12  13
ENDBRANCH  11  12
ENDBRANCH  10  11
ENDBRANCH   9  10
ENDBRANCH   4   9
TORSDOF 5
ENDMDL
MODEL       64
REMARK 921   NORMALIZED FREE ENERGY PREDICTED BY IDOCK:   -4.89 KCAL/MOL
REMARK 922        TOTAL FREE ENERGY PREDICTED BY IDOCK:   -6.81 KCAL/MOL
REMARK 923 INTER-LIGAND FREE ENERGY PREDICTED BY IDOCK:   -5.65 KCAL/MOL
REMARK 924 INTRA-LIGAND FREE ENERGY PREDICTED BY IDOCK:   -1.16 KCAL/MOL
REMARK 927      BINDING AFFINITY PREDICTED BY RF-SCORE:    0.00 PKD
ROOT
HETATM    1  C   UNL     1      -8.108  19.802  68.716  1.00  0.00    -0.230 C  
HETATM    2  C   UNL     1      -8.846  18.891  67.780  1.00  0.00    -0.318 A  
HETATM    3  C   UNL     1      -8.376  17.596  67.517  1.00  0.00    -0.221 A  
HETATM    4  C   UNL     1      -9.038  16.756  66.613  1.00  0.00    -0.249 A  
HETATM    5  C   UNL     1      -9.991  19.345  67.122  1.00  0.00    -0.463 A  
HETATM    6  C   UNL     1     -10.166  17.232  65.925  1.00  0.00    -0.273 A  
HETATM    7  C   UNL     1     -10.642  18.524  66.201  1.00  0.00    -0.377 A  
HETATM    8  C   UNL     1     -10.892  16.415  64.893  1.00  0.00    -0.268 C  
ENDROOT
BRANCH   4   9
HETATM    9  O   UNL     1      -8.593  15.504  66.284  1.00  0.00    -0.291 OA 
BRANCH   9  10
HETATM   10  C   UNL     1      -8.020  14.703  67.320  1.00  0.00    -0.197 C  
BRANCH  10  11
HETATM   11  C   UNL     1      -8.933  13.529  67.683  1.00  0.00    -0.200 C  
BRANCH  11  12
HETATM   12  C   UNL     1      -9.989  13.263  66.597  1.00  0.00    -0.272 C  
BRANCH  12  13
HETATM   13  C   UNL     1     -11.461  13.278  67.084  1.00  0.00    -0.380 C  
HETATM   14  C   UNL     1     -12.456  13.308  65.913  1.00  0.00    -0.433 C  
HETATM   15  C   UNL     1     -11.722  14.509  67.976  1.00  0.00    -0.373 C  
HETATM   16  C   UNL     1     -11.720  12.018  67.928  1.00  0.00    -0.323 C  
HETATM   17  O   UNL     1     -12.027  12.028  69.112  1.00  0.00    -0.305 OA 
HETATM   18  O   UNL     1     -11.580  10.852  67.257  1.00  0.00    -0.475 OA 
ENDBRANCH  12  13
ENDBRANCH  11  12
ENDBRANCH  10  11
ENDBRANCH   9  10
ENDBRANCH   4   9
TORSDOF 5
ENDMDL
MODEL       65
REMARK 921   NORMALIZED FREE ENERGY PREDICTED BY IDOCK:   -4.89 KCAL/MOL
REMARK 922        TOTAL FREE ENERGY PREDICTED BY IDOCK:   -6.81 KCAL/MOL
REMARK 923 INTER-LIGAND FREE ENERGY PREDICTED BY IDOCK:   -6.15 KCAL/MOL
REMARK 924 INTRA-LIGAND FREE ENERGY PREDICTED BY IDOCK:   -0.65 KCAL/MOL
REMARK 927      BINDING AFFINITY PREDICTED BY RF-SCORE:    0.00 PKD
ROOT
HETATM    1  C   UNL     1      -9.462  10.833  62.824  1.00  0.00    -0.358 C  
HETATM    2  C   UNL     1      -9.980  10.767  64.231  1.00  0.00    -0.403 A  
HETATM    3  C   UNL     1     -10.931  11.690  64.691  1.00  0.00    -0.363 A  
HETATM    4  C   UNL     1     -11.388  11.659  66.014  1.00  0.00    -0.196 A  
HETATM    5  C   UNL     1      -9.482   9.808  65.114  1.00  0.00    -0.338 A  
HETATM    6  C   UNL     1     -10.855  10.716  66.908  1.00  0.00    -0.267 A  
HETATM    7  C   UNL     1      -9.914   9.784  66.441  1.00  0.00    -0.314 A  
HETATM    8  C   UNL     1     -11.246  10.660  68.359  1.00  0.00    -0.347 C  
ENDROOT
BRANCH   4   9
HETATM    9  O   UNL     1     -12.277  12.565  66.526  1.00  0.00    -0.569 OA 
BRANCH   9  10
HETATM   10  C   UNL     1     -12.295  13.879  65.962  1.00  0.00    -0.475 C  
BRANCH  10  11
HETATM   11  C   UNL     1     -11.391  14.832  66.746  1.00  0.00    -0.347 C  
BRANCH  11  12
HETATM   12  C   UNL     1     -11.328  14.468  68.240  1.00  0.00    -0.319 C  
BRANCH  12  13
HETATM   13  C   UNL     1     -10.819  15.594  69.177  1.00  0.00    -0.246 C  
HETATM   14  C   UNL     1     -10.975  16.986  68.545  1.00  0.00    -0.247 C  
HETATM   15  C   UNL     1      -9.330  15.379  69.518  1.00  0.00    -0.252 C  
HETATM   16  C   UNL     1     -11.617  15.548  70.491  1.00  0.00    -0.346 C  
HETATM   17  O   UNL     1     -11.130  15.326  71.590  1.00  0.00    -0.356 OA 
HETATM   18  O   UNL     1     -12.944  15.775  70.352  1.00  0.00    -0.409 OA 
ENDBRANCH  12  13
ENDBRANCH  11  12
ENDBRANCH  10  11
ENDBRANCH   9  10
ENDBRANCH   4   9
TORSDOF 5
ENDMDL
MODEL       66
REMARK 921   NORMALIZED FREE ENERGY PREDICTED BY IDOCK:   -4.89 KCAL/MOL
REMARK 922        TOTAL FREE ENERGY PREDICTED BY IDOCK:   -6.80 KCAL/MOL
REMARK 923 INTER-LIGAND FREE ENERGY PREDICTED BY IDOCK:   -6.37 KCAL/MOL
REMARK 924 INTRA-LIGAND FREE ENERGY PREDICTED BY IDOCK:   -0.43 KCAL/MOL
REMARK 927      BINDING AFFINITY PREDICTED BY RF-SCORE:    0.00 PKD
ROOT
HETATM    1  C   UNL     1     -10.338  20.179  68.520  1.00  0.00    -0.352 C  
HETATM    2  C   UNL     1      -9.210  19.454  67.846  1.00  0.00    -0.383 A  
HETATM    3  C   UNL     1      -9.439  18.262  67.143  1.00  0.00    -0.268 A  
HETATM    4  C   UNL     1      -8.385  17.560  66.547  1.00  0.00    -0.270 A  
HETATM    5  C   UNL     1      -7.905  19.940  67.953  1.00  0.00    -0.327 A  
HETATM    6  C   UNL     1      -7.070  18.033  66.690  1.00  0.00    -0.245 A  
HETATM    7  C   UNL     1      -6.846  19.234  67.382  1.00  0.00    -0.220 A  
HETATM    8  C   UNL     1      -5.879  17.302  66.136  1.00  0.00    -0.080 C  
ENDROOT
BRANCH   4   9
HETATM    9  O   UNL     1      -8.547  16.369  65.893  1.00  0.00    -0.407 OA 
BRANCH   9  10
HETATM   10  C   UNL     1      -9.614  15.514  66.311  1.00  0.00    -0.309 C  
BRANCH  10  11
HETATM   11  C   UNL     1     -10.553  15.188  65.148  1.00  0.00    -0.447 C  
BRANCH  11  12
HETATM   12  C   UNL     1     -10.440  13.718  64.710  1.00  0.00    -0.448 C  
BRANCH  12  13
HETATM   13  C   UNL     1     -11.687  12.842  64.995  1.00  0.00    -0.391 C  
HETATM   14  C   UNL     1     -12.079  11.984  63.782  1.00  0.00    -0.599 C  
HETATM   15  C   UNL     1     -12.892  13.726  65.376  1.00  0.00    -0.455 C  
HETATM   16  C   UNL     1     -11.383  11.916  66.185  1.00  0.00    -0.324 C  
HETATM   17  O   UNL     1     -11.982  11.941  67.252  1.00  0.00    -0.605 OA 
HETATM   18  O   UNL     1     -10.374  11.040  65.975  1.00  0.00    -0.244 OA 
ENDBRANCH  12  13
ENDBRANCH  11  12
ENDBRANCH  10  11
ENDBRANCH   9  10
ENDBRANCH   4   9
TORSDOF 5
ENDMDL
MODEL       67
REMARK 921   NORMALIZED FREE ENERGY PREDICTED BY IDOCK:   -4.89 KCAL/MOL
REMARK 922        TOTAL FREE ENERGY PREDICTED BY IDOCK:   -6.80 KCAL/MOL
REMARK 923 INTER-LIGAND FREE ENERGY PREDICTED BY IDOCK:   -6.33 KCAL/MOL
REMARK 924 INTRA-LIGAND FREE ENERGY PREDICTED BY IDOCK:   -0.47 KCAL/MOL
REMARK 927      BINDING AFFINITY PREDICTED BY RF-SCORE:    0.00 PKD
ROOT
HETATM    1  C   UNL     1      -7.906   8.723  71.302  1.00  0.00    -0.167 C  
HETATM    2  C   UNL     1      -9.397   8.828  71.436  1.00  0.00    -0.328 A  
HETATM    3  C   UNL     1     -10.135   9.687  70.608  1.00  0.00    -0.324 A  
HETATM    4  C   UNL     1     -11.521   9.819  70.757  1.00  0.00    -0.342 A  
HETATM    5  C   UNL     1     -10.062   8.100  72.425  1.00  0.00    -0.355 A  
HETATM    6  C   UNL     1     -12.179   9.114  71.778  1.00  0.00    -0.442 A  
HETATM    7  C   UNL     1     -11.439   8.245  72.596  1.00  0.00    -0.423 A  
HETATM    8  C   UNL     1     -13.652   9.254  72.043  1.00  0.00    -0.519 C  
ENDROOT
BRANCH   4   9
HETATM    9  O   UNL     1     -12.280  10.679  70.009  1.00  0.00    -0.304 OA 
BRANCH   9  10
HETATM   10  C   UNL     1     -12.258  12.066  70.355  1.00  0.00    -0.294 C  
BRANCH  10  11
HETATM   11  C   UNL     1     -11.609  12.903  69.250  1.00  0.00    -0.368 C  
BRANCH  11  12
HETATM   12  C   UNL     1     -12.221  12.610  67.870  1.00  0.00     0.056 C  
BRANCH  12  13
HETATM   13  C   UNL     1     -11.269  12.815  66.663  1.00  0.00    -0.344 C  
HETATM   14  C   UNL     1     -10.633  11.495  66.199  1.00  0.00    -0.314 C  
HETATM   15  C   UNL     1     -10.138  13.797  67.029  1.00  0.00    -0.256 C  
HETATM   16  C   UNL     1     -12.065  13.423  65.497  1.00  0.00    -0.428 C  
HETATM   17  O   UNL     1     -11.844  14.521  65.004  1.00  0.00    -0.372 OA 
HETATM   18  O   UNL     1     -13.067  12.642  65.030  1.00  0.00    -0.808 OA 
ENDBRANCH  12  13
ENDBRANCH  11  12
ENDBRANCH  10  11
ENDBRANCH   9  10
ENDBRANCH   4   9
TORSDOF 5
ENDMDL
MODEL       68
REMARK 921   NORMALIZED FREE ENERGY PREDICTED BY IDOCK:   -4.88 KCAL/MOL
REMARK 922        TOTAL FREE ENERGY PREDICTED BY IDOCK:   -6.79 KCAL/MOL
REMARK 923 INTER-LIGAND FREE ENERGY PREDICTED BY IDOCK:   -6.35 KCAL/MOL
REMARK 924 INTRA-LIGAND FREE ENERGY PREDICTED BY IDOCK:   -0.44 KCAL/MOL
REMARK 927      BINDING AFFINITY PREDICTED BY RF-SCORE:    0.00 PKD
ROOT
HETATM    1  C   UNL     1     -10.915   7.242  70.423  1.00  0.00    -0.273 C  
HETATM    2  C   UNL     1     -11.577   8.544  70.770  1.00  0.00    -0.257 A  
HETATM    3  C   UNL     1     -11.233   9.727  70.100  1.00  0.00    -0.324 A  
HETATM    4  C   UNL     1     -11.817  10.951  70.447  1.00  0.00    -0.357 A  
HETATM    5  C   UNL     1     -12.514   8.597  71.804  1.00  0.00    -0.397 A  
HETATM    6  C   UNL     1     -12.730  11.004  71.513  1.00  0.00    -0.521 A  
HETATM    7  C   UNL     1     -13.083   9.816  72.173  1.00  0.00    -0.513 A  
HETATM    8  C   UNL     1     -13.350  12.289  71.988  1.00  0.00    -0.491 C  
ENDROOT
BRANCH   4   9
HETATM    9  O   UNL     1     -11.480  12.140  69.859  1.00  0.00    -0.236 OA 
BRANCH   9  10
HETATM   10  C   UNL     1     -10.675  12.100  68.678  1.00  0.00    -0.233 C  
BRANCH  10  11
HETATM   11  C   UNL     1     -11.538  12.164  67.416  1.00  0.00    -0.410 C  
BRANCH  11  12
HETATM   12  C   UNL     1     -10.763  12.737  66.216  1.00  0.00    -0.291 C  
BRANCH  12  13
HETATM   13  C   UNL     1     -11.546  13.748  65.341  1.00  0.00    -0.330 C  
HETATM   14  C   UNL     1     -13.036  13.804  65.715  1.00  0.00    -0.310 C  
HETATM   15  C   UNL     1     -11.434  13.372  63.849  1.00  0.00    -0.351 C  
HETATM   16  C   UNL     1     -10.932  15.147  65.524  1.00  0.00    -0.365 C  
HETATM   17  O   UNL     1     -10.408  15.796  64.630  1.00  0.00    -0.381 OA 
HETATM   18  O   UNL     1     -11.008  15.635  66.784  1.00  0.00    -0.310 OA 
ENDBRANCH  12  13
ENDBRANCH  11  12
ENDBRANCH  10  11
ENDBRANCH   9  10
ENDBRANCH   4   9
TORSDOF 5
ENDMDL
MODEL       69
REMARK 921   NORMALIZED FREE ENERGY PREDICTED BY IDOCK:   -4.87 KCAL/MOL
REMARK 922        TOTAL FREE ENERGY PREDICTED BY IDOCK:   -6.78 KCAL/MOL
REMARK 923 INTER-LIGAND FREE ENERGY PREDICTED BY IDOCK:   -6.17 KCAL/MOL
REMARK 924 INTRA-LIGAND FREE ENERGY PREDICTED BY IDOCK:   -0.61 KCAL/MOL
REMARK 927      BINDING AFFINITY PREDICTED BY RF-SCORE:    0.00 PKD
ROOT
HETATM    1  C   UNL     1     -12.139  12.845  63.457  1.00  0.00    -0.633 C  
HETATM    2  C   UNL     1     -11.399  12.021  64.469  1.00  0.00    -0.393 A  
HETATM    3  C   UNL     1     -11.574  12.243  65.843  1.00  0.00    -0.450 A  
HETATM    4  C   UNL     1     -10.855  11.504  66.791  1.00  0.00    -0.282 A  
HETATM    5  C   UNL     1     -10.489  11.049  64.048  1.00  0.00    -0.433 A  
HETATM    6  C   UNL     1      -9.914  10.555  66.361  1.00  0.00    -0.271 A  
HETATM    7  C   UNL     1      -9.752  10.326  64.985  1.00  0.00    -0.370 A  
HETATM    8  C   UNL     1      -9.058   9.770  67.316  1.00  0.00    -0.150 C  
ENDROOT
BRANCH   4   9
HETATM    9  O   UNL     1     -10.952  11.715  68.141  1.00  0.00    -0.200 OA 
BRANCH   9  10
HETATM   10  C   UNL     1     -12.031  11.092  68.841  1.00  0.00    -0.298 C  
BRANCH  10  11
HETATM   11  C   UNL     1     -11.730  10.978  70.337  1.00  0.00    -0.437 C  
BRANCH  11  12
HETATM   12  C   UNL     1     -12.097   9.592  70.895  1.00  0.00    -0.383 C  
BRANCH  12  13
HETATM   13  C   UNL     1     -10.897   8.656  71.191  1.00  0.00    -0.320 C  
HETATM   14  C   UNL     1     -10.868   8.201  72.658  1.00  0.00    -0.429 C  
HETATM   15  C   UNL     1      -9.566   9.368  70.875  1.00  0.00    -0.301 C  
HETATM   16  C   UNL     1     -10.997   7.416  70.285  1.00  0.00    -0.255 C  
HETATM   17  O   UNL     1     -10.171   7.109  69.438  1.00  0.00    -0.179 OA 
HETATM   18  O   UNL     1     -12.099   6.657  70.488  1.00  0.00    -0.390 OA 
ENDBRANCH  12  13
ENDBRANCH  11  12
ENDBRANCH  10  11
ENDBRANCH   9  10
ENDBRANCH   4   9
TORSDOF 5
ENDMDL
MODEL       70
REMARK 921   NORMALIZED FREE ENERGY PREDICTED BY IDOCK:   -4.87 KCAL/MOL
REMARK 922        TOTAL FREE ENERGY PREDICTED BY IDOCK:   -6.78 KCAL/MOL
REMARK 923 INTER-LIGAND FREE ENERGY PREDICTED BY IDOCK:   -6.10 KCAL/MOL
REMARK 924 INTRA-LIGAND FREE ENERGY PREDICTED BY IDOCK:   -0.67 KCAL/MOL
REMARK 927      BINDING AFFINITY PREDICTED BY RF-SCORE:    0.00 PKD
ROOT
HETATM    1  C   UNL     1      -9.566   9.517  65.457  1.00  0.00    -0.349 C  
HETATM    2  C   UNL     1     -10.276  10.812  65.198  1.00  0.00    -0.365 A  
HETATM    3  C   UNL     1     -10.836  11.549  66.252  1.00  0.00    -0.333 A  
HETATM    4  C   UNL     1     -11.536  12.737  66.012  1.00  0.00    -0.383 A  
HETATM    5  C   UNL     1     -10.429  11.276  63.889  1.00  0.00    -0.452 A  
HETATM    6  C   UNL     1     -11.719  13.179  64.691  1.00  0.00    -0.404 A  
HETATM    7  C   UNL     1     -11.145  12.446  63.639  1.00  0.00    -0.535 A  
HETATM    8  C   UNL     1     -12.513  14.408  64.348  1.00  0.00    -0.339 C  
ENDROOT
BRANCH   4   9
HETATM    9  O   UNL     1     -12.143  13.467  66.999  1.00  0.00    -0.384 OA 
BRANCH   9  10
HETATM   10  C   UNL     1     -11.310  14.101  67.972  1.00  0.00    -0.299 C  
BRANCH  10  11
HETATM   11  C   UNL     1     -11.525  15.616  67.985  1.00  0.00    -0.294 C  
BRANCH  11  12
HETATM   12  C   UNL     1     -10.286  16.370  68.499  1.00  0.00    -0.270 C  
BRANCH  12  13
HETATM   13  C   UNL     1      -9.369  16.966  67.400  1.00  0.00    -0.235 C  
HETATM   14  C   UNL     1      -9.881  16.651  65.986  1.00  0.00    -0.335 C  
HETATM   15  C   UNL     1      -7.936  16.411  67.534  1.00  0.00    -0.172 C  
HETATM   16  C   UNL     1      -9.304  18.493  67.579  1.00  0.00    -0.279 C  
HETATM   17  O   UNL     1      -8.284  19.118  67.834  1.00  0.00    -0.275 OA 
HETATM   18  O   UNL     1     -10.490  19.128  67.435  1.00  0.00    -0.401 OA 
ENDBRANCH  12  13
ENDBRANCH  11  12
ENDBRANCH  10  11
ENDBRANCH   9  10
ENDBRANCH   4   9
TORSDOF 5
ENDMDL
MODEL       71
REMARK 921   NORMALIZED FREE ENERGY PREDICTED BY IDOCK:   -4.83 KCAL/MOL
REMARK 922        TOTAL FREE ENERGY PREDICTED BY IDOCK:   -6.72 KCAL/MOL
REMARK 923 INTER-LIGAND FREE ENERGY PREDICTED BY IDOCK:   -6.40 KCAL/MOL
REMARK 924 INTRA-LIGAND FREE ENERGY PREDICTED BY IDOCK:   -0.32 KCAL/MOL
REMARK 927      BINDING AFFINITY PREDICTED BY RF-SCORE:    0.00 PKD
ROOT
HETATM    1  C   UNL     1     -10.064  16.602  67.206  1.00  0.00    -0.279 C  
HETATM    2  C   UNL     1     -10.758  15.486  66.481  1.00  0.00    -0.304 A  
HETATM    3  C   UNL     1     -11.060  14.282  67.134  1.00  0.00    -0.318 A  
HETATM    4  C   UNL     1     -11.670  13.223  66.452  1.00  0.00    -0.373 A  
HETATM    5  C   UNL     1     -11.070  15.621  65.127  1.00  0.00    -0.357 A  
HETATM    6  C   UNL     1     -11.947  13.350  65.081  1.00  0.00    -0.406 A  
HETATM    7  C   UNL     1     -11.656  14.562  64.434  1.00  0.00    -0.325 A  
HETATM    8  C   UNL     1     -12.540  12.236  64.265  1.00  0.00    -0.470 C  
ENDROOT
BRANCH   4   9
HETATM    9  O   UNL     1     -11.940  12.011  67.029  1.00  0.00    -0.609 OA 
BRANCH   9  10
HETATM   10  C   UNL     1     -11.889  11.921  68.455  1.00  0.00    -0.297 C  
BRANCH  10  11
HETATM   11  C   UNL     1     -11.316  10.576  68.906  1.00  0.00    -0.313 C  
BRANCH  11  12
HETATM   12  C   UNL     1     -11.744  10.218  70.340  1.00  0.00    -0.404 C  
BRANCH  12  13
HETATM   13  C   UNL     1     -11.302   8.817  70.835  1.00  0.00    -0.322 C  
HETATM   14  C   UNL     1     -10.148   8.899  71.847  1.00  0.00    -0.393 C  
HETATM   15  C   UNL     1     -10.846   7.944  69.648  1.00  0.00    -0.177 C  
HETATM   16  C   UNL     1     -12.502   8.122  71.500  1.00  0.00    -0.307 C  
HETATM   17  O   UNL     1     -13.012   7.085  71.099  1.00  0.00    -0.360 OA 
HETATM   18  O   UNL     1     -12.980   8.752  72.598  1.00  0.00    -0.389 OA 
ENDBRANCH  12  13
ENDBRANCH  11  12
ENDBRANCH  10  11
ENDBRANCH   9  10
ENDBRANCH   4   9
TORSDOF 5
ENDMDL
MODEL       72
REMARK 921   NORMALIZED FREE ENERGY PREDICTED BY IDOCK:   -4.82 KCAL/MOL
REMARK 922        TOTAL FREE ENERGY PREDICTED BY IDOCK:   -6.72 KCAL/MOL
REMARK 923 INTER-LIGAND FREE ENERGY PREDICTED BY IDOCK:   -6.15 KCAL/MOL
REMARK 924 INTRA-LIGAND FREE ENERGY PREDICTED BY IDOCK:   -0.57 KCAL/MOL
REMARK 927      BINDING AFFINITY PREDICTED BY RF-SCORE:    0.00 PKD
ROOT
HETATM    1  C   UNL     1     -12.245   9.760  71.111  1.00  0.00    -0.453 C  
HETATM    2  C   UNL     1     -12.445  11.245  71.026  1.00  0.00    -0.503 A  
HETATM    3  C   UNL     1     -11.833  11.996  70.012  1.00  0.00    -0.392 A  
HETATM    4  C   UNL     1     -11.983  13.387  69.952  1.00  0.00    -0.338 A  
HETATM    5  C   UNL     1     -13.210  11.902  71.992  1.00  0.00    -0.461 A  
HETATM    6  C   UNL     1     -12.722  14.047  70.947  1.00  0.00    -0.420 A  
HETATM    7  C   UNL     1     -13.345  13.290  71.953  1.00  0.00    -0.540 A  
HETATM    8  C   UNL     1     -12.874  15.542  70.989  1.00  0.00    -0.543 C  
ENDROOT
BRANCH   4   9
HETATM    9  O   UNL     1     -11.368  14.171  69.014  1.00  0.00    -0.245 OA 
BRANCH   9  10
HETATM   10  C   UNL     1     -12.016  14.338  67.750  1.00  0.00    -0.349 C  
BRANCH  10  11
HETATM   11  C   UNL     1     -11.707  13.171  66.810  1.00  0.00    -0.439 C  
BRANCH  11  12
HETATM   12  C   UNL     1     -10.196  13.013  66.564  1.00  0.00    -0.270 C  
BRANCH  12  13
HETATM   13  C   UNL     1      -9.668  11.555  66.584  1.00  0.00    -0.221 C  
HETATM   14  C   UNL     1      -9.234  11.080  65.189  1.00  0.00    -0.227 C  
HETATM   15  C   UNL     1     -10.755  10.595  67.109  1.00  0.00    -0.327 C  
HETATM   16  C   UNL     1      -8.465  11.474  67.538  1.00  0.00    -0.143 C  
HETATM   17  O   UNL     1      -8.430  10.794  68.554  1.00  0.00    -0.128 OA 
HETATM   18  O   UNL     1      -7.404  12.231  67.173  1.00  0.00    -0.148 OA 
ENDBRANCH  12  13
ENDBRANCH  11  12
ENDBRANCH  10  11
ENDBRANCH   9  10
ENDBRANCH   4   9
TORSDOF 5
ENDMDL
MODEL       73
REMARK 921   NORMALIZED FREE ENERGY PREDICTED BY IDOCK:   -4.81 KCAL/MOL
REMARK 922        TOTAL FREE ENERGY PREDICTED BY IDOCK:   -6.70 KCAL/MOL
REMARK 923 INTER-LIGAND FREE ENERGY PREDICTED BY IDOCK:   -5.74 KCAL/MOL
REMARK 924 INTRA-LIGAND FREE ENERGY PREDICTED BY IDOCK:   -0.96 KCAL/MOL
REMARK 927      BINDING AFFINITY PREDICTED BY RF-SCORE:    0.00 PKD
ROOT
HETATM    1  C   UNL     1     -11.245  15.261  70.955  1.00  0.00    -0.367 C  
HETATM    2  C   UNL     1     -11.080  14.774  69.545  1.00  0.00    -0.302 A  
HETATM    3  C   UNL     1      -9.897  15.024  68.832  1.00  0.00    -0.233 A  
HETATM    4  C   UNL     1      -9.753  14.608  67.503  1.00  0.00    -0.210 A  
HETATM    5  C   UNL     1     -12.128  14.105  68.909  1.00  0.00    -0.339 A  
HETATM    6  C   UNL     1     -10.824  13.969  66.857  1.00  0.00    -0.290 A  
HETATM    7  C   UNL     1     -12.002  13.709  67.578  1.00  0.00    -0.393 A  
HETATM    8  C   UNL     1     -10.771  13.552  65.414  1.00  0.00    -0.308 C  
ENDROOT
BRANCH   4   9
HETATM    9  O   UNL     1      -8.641  14.869  66.749  1.00  0.00    -0.243 OA 
BRANCH   9  10
HETATM   10  C   UNL     1      -7.426  15.185  67.433  1.00  0.00    -0.210 C  
BRANCH  10  11
HETATM   11  C   UNL     1      -6.963  16.607  67.112  1.00  0.00    -0.226 C  
BRANCH  11  12
HETATM   12  C   UNL     1      -7.935  17.330  66.164  1.00  0.00    -0.292 C  
BRANCH  12  13
HETATM   13  C   UNL     1      -8.760  18.475  66.805  1.00  0.00    -0.283 C  
HETATM   14  C   UNL     1      -8.473  19.833  66.145  1.00  0.00    -0.367 C  
HETATM   15  C   UNL     1      -8.446  18.590  68.310  1.00  0.00    -0.341 C  
HETATM   16  C   UNL     1     -10.257  18.154  66.656  1.00  0.00    -0.381 C  
HETATM   17  O   UNL     1     -11.024  17.976  67.593  1.00  0.00    -0.323 OA 
HETATM   18  O   UNL     1     -10.693  18.075  65.378  1.00  0.00    -0.632 OA 
ENDBRANCH  12  13
ENDBRANCH  11  12
ENDBRANCH  10  11
ENDBRANCH   9  10
ENDBRANCH   4   9
TORSDOF 5
ENDMDL
MODEL       74
REMARK 921   NORMALIZED FREE ENERGY PREDICTED BY IDOCK:   -4.81 KCAL/MOL
REMARK 922        TOTAL FREE ENERGY PREDICTED BY IDOCK:   -6.69 KCAL/MOL
REMARK 923 INTER-LIGAND FREE ENERGY PREDICTED BY IDOCK:   -6.21 KCAL/MOL
REMARK 924 INTRA-LIGAND FREE ENERGY PREDICTED BY IDOCK:   -0.48 KCAL/MOL
REMARK 927      BINDING AFFINITY PREDICTED BY RF-SCORE:    0.00 PKD
ROOT
HETATM    1  C   UNL     1     -11.662  12.475  65.807  1.00  0.00    -0.478 C  
HETATM    2  C   UNL     1     -11.744  13.026  67.200  1.00  0.00    -0.439 A  
HETATM    3  C   UNL     1     -11.910  12.173  68.302  1.00  0.00    -0.361 A  
HETATM    4  C   UNL     1     -12.029  12.685  69.600  1.00  0.00    -0.286 A  
HETATM    5  C   UNL     1     -11.704  14.406  67.409  1.00  0.00    -0.424 A  
HETATM    6  C   UNL     1     -12.025  14.075  69.800  1.00  0.00    -0.393 A  
HETATM    7  C   UNL     1     -11.846  14.925  68.696  1.00  0.00    -0.332 A  
HETATM    8  C   UNL     1     -12.213  14.702  71.153  1.00  0.00    -0.405 C  
ENDROOT
BRANCH   4   9
HETATM    9  O   UNL     1     -12.240  11.901  70.702  1.00  0.00    -0.371 OA 
BRANCH   9  10
HETATM   10  C   UNL     1     -12.785  10.594  70.501  1.00  0.00    -0.313 C  
BRANCH  10  11
HETATM   11  C   UNL     1     -12.263   9.608  71.547  1.00  0.00    -0.483 C  
BRANCH  11  12
HETATM   12  C   UNL     1     -10.768   9.299  71.353  1.00  0.00    -0.432 C  
BRANCH  12  13
HETATM   13  C   UNL     1     -10.290   7.941  71.928  1.00  0.00    -0.271 C  
HETATM   14  C   UNL     1     -11.359   7.281  72.814  1.00  0.00    -0.318 C  
HETATM   15  C   UNL     1      -9.011   8.130  72.768  1.00  0.00    -0.313 C  
HETATM   16  C   UNL     1      -9.955   6.996  70.761  1.00  0.00    -0.190 C  
HETATM   17  O   UNL     1      -8.844   6.535  70.540  1.00  0.00    -0.148 OA 
HETATM   18  O   UNL     1     -11.004   6.694  69.961  1.00  0.00    -0.260 OA 
ENDBRANCH  12  13
ENDBRANCH  11  12
ENDBRANCH  10  11
ENDBRANCH   9  10
ENDBRANCH   4   9
TORSDOF 5
ENDMDL
MODEL       75
REMARK 921   NORMALIZED FREE ENERGY PREDICTED BY IDOCK:   -4.80 KCAL/MOL
REMARK 922        TOTAL FREE ENERGY PREDICTED BY IDOCK:   -6.68 KCAL/MOL
REMARK 923 INTER-LIGAND FREE ENERGY PREDICTED BY IDOCK:   -6.34 KCAL/MOL
REMARK 924 INTRA-LIGAND FREE ENERGY PREDICTED BY IDOCK:   -0.34 KCAL/MOL
REMARK 927      BINDING AFFINITY PREDICTED BY RF-SCORE:    0.00 PKD
ROOT
HETATM    1  C   UNL     1      -8.940   9.579  63.679  1.00  0.00    -0.207 C  
HETATM    2  C   UNL     1      -9.796  10.656  64.278  1.00  0.00    -0.391 A  
HETATM    3  C   UNL     1     -10.327  10.518  65.569  1.00  0.00    -0.287 A  
HETATM    4  C   UNL     1     -11.159  11.502  66.117  1.00  0.00    -0.244 A  
HETATM    5  C   UNL     1     -10.112  11.793  63.531  1.00  0.00    -0.463 A  
HETATM    6  C   UNL     1     -11.505  12.624  65.347  1.00  0.00    -0.373 A  
HETATM    7  C   UNL     1     -10.961  12.766  64.060  1.00  0.00    -0.454 A  
HETATM    8  C   UNL     1     -12.444  13.690  65.840  1.00  0.00    -0.502 C  
ENDROOT
BRANCH   4   9
HETATM    9  O   UNL     1     -11.742  11.393  67.351  1.00  0.00    -0.574 OA 
BRANCH   9  10
HETATM   10  C   UNL     1     -10.911  11.566  68.502  1.00  0.00    -0.223 C  
BRANCH  10  11
HETATM   11  C   UNL     1     -10.548  10.219  69.131  1.00  0.00    -0.254 C  
BRANCH  11  12
HETATM   12  C   UNL     1     -11.279   9.990  70.465  1.00  0.00    -0.408 C  
BRANCH  12  13
HETATM   13  C   UNL     1     -11.052   8.602  71.117  1.00  0.00    -0.324 C  
HETATM   14  C   UNL     1      -9.912   8.628  72.148  1.00  0.00    -0.386 C  
HETATM   15  C   UNL     1     -10.711   7.550  70.042  1.00  0.00    -0.248 C  
HETATM   16  C   UNL     1     -12.349   8.161  71.817  1.00  0.00    -0.321 C  
HETATM   17  O   UNL     1     -12.998   7.171  71.512  1.00  0.00    -0.374 OA 
HETATM   18  O   UNL     1     -12.746   8.968  72.828  1.00  0.00    -0.309 OA 
ENDBRANCH  12  13
ENDBRANCH  11  12
ENDBRANCH  10  11
ENDBRANCH   9  10
ENDBRANCH   4   9
TORSDOF 5
ENDMDL
MODEL       76
REMARK 921   NORMALIZED FREE ENERGY PREDICTED BY IDOCK:   -4.78 KCAL/MOL
REMARK 922        TOTAL FREE ENERGY PREDICTED BY IDOCK:   -6.66 KCAL/MOL
REMARK 923 INTER-LIGAND FREE ENERGY PREDICTED BY IDOCK:   -5.94 KCAL/MOL
REMARK 924 INTRA-LIGAND FREE ENERGY PREDICTED BY IDOCK:   -0.73 KCAL/MOL
REMARK 927      BINDING AFFINITY PREDICTED BY RF-SCORE:    0.00 PKD
ROOT
HETATM    1  C   UNL     1     -12.036  15.739  69.016  1.00  0.00    -0.294 C  
HETATM    2  C   UNL     1     -11.837  14.304  68.627  1.00  0.00    -0.379 A  
HETATM    3  C   UNL     1     -11.833  13.290  69.597  1.00  0.00    -0.391 A  
HETATM    4  C   UNL     1     -11.607  11.954  69.244  1.00  0.00    -0.315 A  
HETATM    5  C   UNL     1     -11.606  13.968  67.292  1.00  0.00    -0.396 A  
HETATM    6  C   UNL     1     -11.337  11.627  67.905  1.00  0.00    -0.369 A  
HETATM    7  C   UNL     1     -11.356  12.642  66.936  1.00  0.00    -0.373 A  
HETATM    8  C   UNL     1     -11.021  10.227  67.459  1.00  0.00    -0.344 C  
ENDROOT
BRANCH   4   9
HETATM    9  O   UNL     1     -11.544  10.934  70.156  1.00  0.00    -0.289 OA 
BRANCH   9  10
HETATM   10  C   UNL     1     -12.582  10.846  71.136  1.00  0.00    -0.428 C  
BRANCH  10  11
HETATM   11  C   UNL     1     -12.537   9.506  71.872  1.00  0.00    -0.479 C  
BRANCH  11  12
HETATM   12  C   UNL     1     -12.019   8.371  70.972  1.00  0.00    -0.255 C  
BRANCH  12  13
HETATM   13  C   UNL     1     -10.840   7.548  71.553  1.00  0.00    -0.253 C  
HETATM   14  C   UNL     1     -10.600   6.249  70.767  1.00  0.00    -0.297 C  
HETATM   15  C   UNL     1     -11.111   7.182  73.026  1.00  0.00    -0.323 C  
HETATM   16  C   UNL     1      -9.563   8.405  71.505  1.00  0.00    -0.208 C  
HETATM   17  O   UNL     1      -8.929   8.758  72.489  1.00  0.00    -0.386 OA 
HETATM   18  O   UNL     1      -9.169   8.760  70.260  1.00  0.00    -0.157 OA 
ENDBRANCH  12  13
ENDBRANCH  11  12
ENDBRANCH  10  11
ENDBRANCH   9  10
ENDBRANCH   4   9
TORSDOF 5
ENDMDL
MODEL       77
REMARK 921   NORMALIZED FREE ENERGY PREDICTED BY IDOCK:   -4.78 KCAL/MOL
REMARK 922        TOTAL FREE ENERGY PREDICTED BY IDOCK:   -6.66 KCAL/MOL
REMARK 923 INTER-LIGAND FREE ENERGY PREDICTED BY IDOCK:   -6.18 KCAL/MOL
REMARK 924 INTRA-LIGAND FREE ENERGY PREDICTED BY IDOCK:   -0.48 KCAL/MOL
REMARK 927      BINDING AFFINITY PREDICTED BY RF-SCORE:    0.00 PKD
ROOT
HETATM    1  C   UNL     1     -10.884  15.143  67.480  1.00  0.00    -0.301 C  
HETATM    2  C   UNL     1     -11.537  14.720  68.763  1.00  0.00    -0.347 A  
HETATM    3  C   UNL     1     -11.523  13.377  69.167  1.00  0.00    -0.351 A  
HETATM    4  C   UNL     1     -12.166  12.969  70.343  1.00  0.00    -0.310 A  
HETATM    5  C   UNL     1     -12.209  15.659  69.548  1.00  0.00    -0.231 A  
HETATM    6  C   UNL     1     -12.872  13.911  71.108  1.00  0.00    -0.423 A  
HETATM    7  C   UNL     1     -12.872  15.257  70.708  1.00  0.00    -0.494 A  
HETATM    8  C   UNL     1     -13.641  13.541  72.345  1.00  0.00    -0.709 C  
ENDROOT
BRANCH   4   9
HETATM    9  O   UNL     1     -12.225  11.665  70.756  1.00  0.00    -0.375 OA 
BRANCH   9  10
HETATM   10  C   UNL     1     -12.149  10.642  69.760  1.00  0.00    -0.272 C  
BRANCH  10  11
HETATM   11  C   UNL     1     -11.065   9.617  70.100  1.00  0.00    -0.314 C  
BRANCH  11  12
HETATM   12  C   UNL     1     -11.017   9.305  71.605  1.00  0.00    -0.433 C  
BRANCH  12  13
HETATM   13  C   UNL     1     -10.354   7.956  71.983  1.00  0.00    -0.283 C  
HETATM   14  C   UNL     1     -10.079   7.082  70.750  1.00  0.00    -0.205 C  
HETATM   15  C   UNL     1     -11.257   7.163  72.950  1.00  0.00    -0.302 C  
HETATM   16  C   UNL     1      -9.024   8.238  72.702  1.00  0.00    -0.246 C  
HETATM   17  O   UNL     1      -8.779   7.920  73.857  1.00  0.00    -0.249 OA 
HETATM   18  O   UNL     1      -8.104   8.888  71.951  1.00  0.00    -0.338 OA 
ENDBRANCH  12  13
ENDBRANCH  11  12
ENDBRANCH  10  11
ENDBRANCH   9  10
ENDBRANCH   4   9
TORSDOF 5
ENDMDL
MODEL       78
REMARK 921   NORMALIZED FREE ENERGY PREDICTED BY IDOCK:   -4.78 KCAL/MOL
REMARK 922        TOTAL FREE ENERGY PREDICTED BY IDOCK:   -6.66 KCAL/MOL
REMARK 923 INTER-LIGAND FREE ENERGY PREDICTED BY IDOCK:   -6.24 KCAL/MOL
REMARK 924 INTRA-LIGAND FREE ENERGY PREDICTED BY IDOCK:   -0.42 KCAL/MOL
REMARK 927      BINDING AFFINITY PREDICTED BY RF-SCORE:    0.00 PKD
ROOT
HETATM    1  C   UNL     1     -14.277   8.785  72.238  1.00  0.00    -0.498 C  
HETATM    2  C   UNL     1     -12.827   8.943  71.886  1.00  0.00    -0.437 A  
HETATM    3  C   UNL     1     -12.434   9.727  70.791  1.00  0.00    -0.297 A  
HETATM    4  C   UNL     1     -11.085   9.844  70.435  1.00  0.00    -0.319 A  
HETATM    5  C   UNL     1     -11.853   8.268  72.624  1.00  0.00    -0.382 A  
HETATM    6  C   UNL     1     -10.113   9.133  71.157  1.00  0.00    -0.384 A  
HETATM    7  C   UNL     1     -10.509   8.361  72.261  1.00  0.00    -0.407 A  
HETATM    8  C   UNL     1      -8.654   9.157  70.796  1.00  0.00    -0.265 C  
ENDROOT
BRANCH   4   9
HETATM    9  O   UNL     1     -10.653  10.556  69.348  1.00  0.00    -0.213 OA 
BRANCH   9  10
HETATM   10  C   UNL     1     -10.948  10.039  68.048  1.00  0.00    -0.240 C  
BRANCH  10  11
HETATM   11  C   UNL     1     -10.616  11.059  66.957  1.00  0.00    -0.303 C  
BRANCH  11  12
HETATM   12  C   UNL     1     -11.623  12.222  66.930  1.00  0.00    -0.427 C  
BRANCH  12  13
HETATM   13  C   UNL     1     -11.378  13.287  65.829  1.00  0.00    -0.328 C  
HETATM   14  C   UNL     1     -12.687  13.932  65.349  1.00  0.00    -0.525 C  
HETATM   15  C   UNL     1     -10.673  12.653  64.612  1.00  0.00    -0.353 C  
HETATM   16  C   UNL     1     -10.457  14.383  66.392  1.00  0.00    -0.295 C  
HETATM   17  O   UNL     1      -9.345  14.644  65.956  1.00  0.00    -0.266 OA 
HETATM   18  O   UNL     1     -10.971  15.068  67.440  1.00  0.00    -0.298 OA 
ENDBRANCH  12  13
ENDBRANCH  11  12
ENDBRANCH  10  11
ENDBRANCH   9  10
ENDBRANCH   4   9
TORSDOF 5
ENDMDL
MODEL       79
REMARK 921   NORMALIZED FREE ENERGY PREDICTED BY IDOCK:   -4.77 KCAL/MOL
REMARK 922        TOTAL FREE ENERGY PREDICTED BY IDOCK:   -6.65 KCAL/MOL
REMARK 923 INTER-LIGAND FREE ENERGY PREDICTED BY IDOCK:   -5.79 KCAL/MOL
REMARK 924 INTRA-LIGAND FREE ENERGY PREDICTED BY IDOCK:   -0.86 KCAL/MOL
REMARK 927      BINDING AFFINITY PREDICTED BY RF-SCORE:    0.00 PKD
ROOT
HETATM    1  C   UNL     1      -9.506  10.630  62.678  1.00  0.00    -0.332 C  
HETATM    2  C   UNL     1     -10.112  10.900  64.024  1.00  0.00    -0.419 A  
HETATM    3  C   UNL     1     -11.021  11.953  64.205  1.00  0.00    -0.411 A  
HETATM    4  C   UNL     1     -11.558  12.235  65.467  1.00  0.00    -0.371 A  
HETATM    5  C   UNL     1      -9.737  10.129  65.126  1.00  0.00    -0.370 A  
HETATM    6  C   UNL     1     -11.148  11.481  66.579  1.00  0.00    -0.341 A  
HETATM    7  C   UNL     1     -10.248  10.419  66.391  1.00  0.00    -0.292 A  
HETATM    8  C   UNL     1     -11.628  11.764  67.974  1.00  0.00    -0.386 C  
ENDROOT
BRANCH   4   9
HETATM    9  O   UNL     1     -12.410  13.280  65.707  1.00  0.00    -0.438 OA 
BRANCH   9  10
HETATM   10  C   UNL     1     -11.986  14.591  65.326  1.00  0.00    -0.353 C  
BRANCH  10  11
HETATM   11  C   UNL     1     -11.057  15.201  66.377  1.00  0.00    -0.312 C  
BRANCH  11  12
HETATM   12  C   UNL     1      -9.574  15.011  66.015  1.00  0.00    -0.359 C  
BRANCH  12  13
HETATM   13  C   UNL     1      -8.561  15.598  67.032  1.00  0.00    -0.253 C  
HETATM   14  C   UNL     1      -9.262  16.296  68.208  1.00  0.00    -0.197 C  
HETATM   15  C   UNL     1      -7.634  16.619  66.343  1.00  0.00    -0.297 C  
HETATM   16  C   UNL     1      -7.686  14.457  67.579  1.00  0.00    -0.192 C  
HETATM   17  O   UNL     1      -6.474  14.381  67.429  1.00  0.00    -0.307 OA 
HETATM   18  O   UNL     1      -8.362  13.504  68.261  1.00  0.00    -0.156 OA 
ENDBRANCH  12  13
ENDBRANCH  11  12
ENDBRANCH  10  11
ENDBRANCH   9  10
ENDBRANCH   4   9
TORSDOF 5
ENDMDL
MODEL       80
REMARK 921   NORMALIZED FREE ENERGY PREDICTED BY IDOCK:   -4.75 KCAL/MOL
REMARK 922        TOTAL FREE ENERGY PREDICTED BY IDOCK:   -6.63 KCAL/MOL
REMARK 923 INTER-LIGAND FREE ENERGY PREDICTED BY IDOCK:   -5.74 KCAL/MOL
REMARK 924 INTRA-LIGAND FREE ENERGY PREDICTED BY IDOCK:   -0.89 KCAL/MOL
REMARK 927      BINDING AFFINITY PREDICTED BY RF-SCORE:    0.00 PKD
ROOT
HETATM    1  C   UNL     1      -8.998   9.657  64.413  1.00  0.00    -0.276 C  
HETATM    2  C   UNL     1      -9.818  10.912  64.492  1.00  0.00    -0.356 A  
HETATM    3  C   UNL     1      -9.906  11.639  65.688  1.00  0.00    -0.270 A  
HETATM    4  C   UNL     1     -10.702  12.787  65.778  1.00  0.00    -0.272 A  
HETATM    5  C   UNL     1     -10.543  11.343  63.379  1.00  0.00    -0.435 A  
HETATM    6  C   UNL     1     -11.459  13.195  64.668  1.00  0.00    -0.368 A  
HETATM    7  C   UNL     1     -11.358  12.472  63.468  1.00  0.00    -0.556 A  
HETATM    8  C   UNL     1     -12.387  14.377  64.706  1.00  0.00    -0.427 C  
ENDROOT
BRANCH   4   9
HETATM    9  O   UNL     1     -10.861  13.505  66.934  1.00  0.00    -0.279 OA 
BRANCH   9  10
HETATM   10  C   UNL     1     -11.848  13.060  67.868  1.00  0.00    -0.343 C  
BRANCH  10  11
HETATM   11  C   UNL     1     -11.214  12.247  68.999  1.00  0.00    -0.319 C  
BRANCH  11  12
HETATM   12  C   UNL     1     -11.663  10.776  68.972  1.00  0.00    -0.357 C  
BRANCH  12  13
HETATM   13  C   UNL     1     -10.518   9.732  69.027  1.00  0.00    -0.229 C  
HETATM   14  C   UNL     1      -9.133  10.396  69.085  1.00  0.00    -0.197 C  
HETATM   15  C   UNL     1     -10.565   8.814  67.788  1.00  0.00    -0.256 C  
HETATM   16  C   UNL     1     -10.703   8.853  70.275  1.00  0.00    -0.221 C  
HETATM   17  O   UNL     1     -10.904   7.646  70.250  1.00  0.00    -0.240 OA 
HETATM   18  O   UNL     1     -10.631   9.520  71.450  1.00  0.00    -0.336 OA 
ENDBRANCH  12  13
ENDBRANCH  11  12
ENDBRANCH  10  11
ENDBRANCH   9  10
ENDBRANCH   4   9
TORSDOF 5
ENDMDL
MODEL       81
REMARK 921   NORMALIZED FREE ENERGY PREDICTED BY IDOCK:   -4.75 KCAL/MOL
REMARK 922        TOTAL FREE ENERGY PREDICTED BY IDOCK:   -6.62 KCAL/MOL
REMARK 923 INTER-LIGAND FREE ENERGY PREDICTED BY IDOCK:   -5.76 KCAL/MOL
REMARK 924 INTRA-LIGAND FREE ENERGY PREDICTED BY IDOCK:   -0.86 KCAL/MOL
REMARK 927      BINDING AFFINITY PREDICTED BY RF-SCORE:    0.00 PKD
ROOT
HETATM    1  C   UNL     1     -10.494  20.282  68.059  1.00  0.00    -0.308 C  
HETATM    2  C   UNL     1      -9.589  19.110  67.816  1.00  0.00    -0.378 A  
HETATM    3  C   UNL     1      -9.842  18.211  66.769  1.00  0.00    -0.337 A  
HETATM    4  C   UNL     1      -9.024  17.093  66.564  1.00  0.00    -0.272 A  
HETATM    5  C   UNL     1      -8.505  18.878  68.665  1.00  0.00    -0.381 A  
HETATM    6  C   UNL     1      -7.958  16.844  67.443  1.00  0.00    -0.190 A  
HETATM    7  C   UNL     1      -7.699  17.754  68.481  1.00  0.00    -0.289 A  
HETATM    8  C   UNL     1      -7.076  15.632  67.328  1.00  0.00    -0.242 C  
ENDROOT
BRANCH   4   9
HETATM    9  O   UNL     1      -9.255  16.159  65.589  1.00  0.00    -0.407 OA 
BRANCH   9  10
HETATM   10  C   UNL     1     -10.612  15.812  65.302  1.00  0.00    -0.423 C  
BRANCH  10  11
HETATM   11  C   UNL     1     -10.896  14.349  65.650  1.00  0.00    -0.320 C  
BRANCH  11  12
HETATM   12  C   UNL     1     -11.822  14.216  66.870  1.00  0.00    -0.458 C  
BRANCH  12  13
HETATM   13  C   UNL     1     -11.234  13.425  68.067  1.00  0.00    -0.298 C  
HETATM   14  C   UNL     1      -9.701  13.334  68.002  1.00  0.00    -0.223 C  
HETATM   15  C   UNL     1     -11.805  11.993  68.101  1.00  0.00    -0.352 C  
HETATM   16  C   UNL     1     -11.638  14.127  69.375  1.00  0.00    -0.304 C  
HETATM   17  O   UNL     1     -12.335  13.624  70.245  1.00  0.00    -0.333 OA 
HETATM   18  O   UNL     1     -11.158  15.385  69.511  1.00  0.00    -0.247 OA 
ENDBRANCH  12  13
ENDBRANCH  11  12
ENDBRANCH  10  11
ENDBRANCH   9  10
ENDBRANCH   4   9
TORSDOF 5
ENDMDL
MODEL       82
REMARK 921   NORMALIZED FREE ENERGY PREDICTED BY IDOCK:   -4.75 KCAL/MOL
REMARK 922        TOTAL FREE ENERGY PREDICTED BY IDOCK:   -6.62 KCAL/MOL
REMARK 923 INTER-LIGAND FREE ENERGY PREDICTED BY IDOCK:   -6.23 KCAL/MOL
REMARK 924 INTRA-LIGAND FREE ENERGY PREDICTED BY IDOCK:   -0.38 KCAL/MOL
REMARK 927      BINDING AFFINITY PREDICTED BY RF-SCORE:    0.00 PKD
ROOT
HETATM    1  C   UNL     1     -12.527  11.930  63.518  1.00  0.00    -0.609 C  
HETATM    2  C   UNL     1     -12.064  12.825  64.629  1.00  0.00    -0.483 A  
HETATM    3  C   UNL     1     -11.767  12.303  65.897  1.00  0.00    -0.451 A  
HETATM    4  C   UNL     1     -11.375  13.139  66.949  1.00  0.00    -0.318 A  
HETATM    5  C   UNL     1     -11.969  14.203  64.423  1.00  0.00    -0.478 A  
HETATM    6  C   UNL     1     -11.318  14.527  66.746  1.00  0.00    -0.358 A  
HETATM    7  C   UNL     1     -11.602  15.045  65.473  1.00  0.00    -0.208 A  
HETATM    8  C   UNL     1     -10.968  15.495  67.843  1.00  0.00    -0.316 C  
ENDROOT
BRANCH   4   9
HETATM    9  O   UNL     1     -11.122  12.687  68.217  1.00  0.00    -0.232 OA 
BRANCH   9  10
HETATM   10  C   UNL     1     -11.974  11.669  68.748  1.00  0.00    -0.264 C  
BRANCH  10  11
HETATM   11  C   UNL     1     -11.175  10.423  69.135  1.00  0.00    -0.301 C  
BRANCH  11  12
HETATM   12  C   UNL     1     -11.273  10.119  70.640  1.00  0.00    -0.418 C  
BRANCH  12  13
HETATM   13  C   UNL     1     -10.956   8.657  71.045  1.00  0.00    -0.314 C  
HETATM   14  C   UNL     1     -10.678   7.767  69.823  1.00  0.00    -0.236 C  
HETATM   15  C   UNL     1     -12.134   8.047  71.832  1.00  0.00    -0.359 C  
HETATM   16  C   UNL     1      -9.721   8.649  71.961  1.00  0.00    -0.321 C  
HETATM   17  O   UNL     1      -9.722   8.267  73.122  1.00  0.00    -0.254 OA 
HETATM   18  O   UNL     1      -8.588   9.110  71.382  1.00  0.00    -0.314 OA 
ENDBRANCH  12  13
ENDBRANCH  11  12
ENDBRANCH  10  11
ENDBRANCH   9  10
ENDBRANCH   4   9
TORSDOF 5
ENDMDL
MODEL       83
REMARK 921   NORMALIZED FREE ENERGY PREDICTED BY IDOCK:   -4.74 KCAL/MOL
REMARK 922        TOTAL FREE ENERGY PREDICTED BY IDOCK:   -6.61 KCAL/MOL
REMARK 923 INTER-LIGAND FREE ENERGY PREDICTED BY IDOCK:   -5.92 KCAL/MOL
REMARK 924 INTRA-LIGAND FREE ENERGY PREDICTED BY IDOCK:   -0.69 KCAL/MOL
REMARK 927      BINDING AFFINITY PREDICTED BY RF-SCORE:    0.00 PKD
ROOT
HETATM    1  C   UNL     1     -11.746  15.298  69.659  1.00  0.00    -0.355 C  
HETATM    2  C   UNL     1     -12.079  13.957  70.245  1.00  0.00    -0.423 A  
HETATM    3  C   UNL     1     -11.727  12.774  69.579  1.00  0.00    -0.383 A  
HETATM    4  C   UNL     1     -12.071  11.521  70.100  1.00  0.00    -0.351 A  
HETATM    5  C   UNL     1     -12.789  13.876  71.444  1.00  0.00    -0.439 A  
HETATM    6  C   UNL     1     -12.818  11.447  71.287  1.00  0.00    -0.481 A  
HETATM    7  C   UNL     1     -13.157  12.633  71.958  1.00  0.00    -0.471 A  
HETATM    8  C   UNL     1     -13.281  10.143  71.875  1.00  0.00    -0.557 C  
ENDROOT
BRANCH   4   9
HETATM    9  O   UNL     1     -11.795  10.339  69.466  1.00  0.00    -0.184 OA 
BRANCH   9  10
HETATM   10  C   UNL     1     -10.440   9.883  69.459  1.00  0.00    -0.241 C  
BRANCH  10  11
HETATM   11  C   UNL     1     -10.369   8.355  69.485  1.00  0.00    -0.219 C  
BRANCH  11  12
HETATM   12  C   UNL     1      -9.983   7.819  70.874  1.00  0.00    -0.190 C  
BRANCH  12  13
HETATM   13  C   UNL     1     -11.020   6.874  71.534  1.00  0.00    -0.268 C  
HETATM   14  C   UNL     1     -12.409   7.001  70.889  1.00  0.00    -0.361 C  
HETATM   15  C   UNL     1     -11.153   7.185  73.039  1.00  0.00    -0.323 C  
HETATM   16  C   UNL     1     -10.533   5.422  71.392  1.00  0.00    -0.226 C  
HETATM   17  O   UNL     1     -10.259   4.688  72.331  1.00  0.00    -0.178 OA 
HETATM   18  O   UNL     1     -10.420   4.988  70.115  1.00  0.00    -0.267 OA 
ENDBRANCH  12  13
ENDBRANCH  11  12
ENDBRANCH  10  11
ENDBRANCH   9  10
ENDBRANCH   4   9
TORSDOF 5
ENDMDL
MODEL       84
REMARK 921   NORMALIZED FREE ENERGY PREDICTED BY IDOCK:   -4.71 KCAL/MOL
REMARK 922        TOTAL FREE ENERGY PREDICTED BY IDOCK:   -6.57 KCAL/MOL
REMARK 923 INTER-LIGAND FREE ENERGY PREDICTED BY IDOCK:   -6.08 KCAL/MOL
REMARK 924 INTRA-LIGAND FREE ENERGY PREDICTED BY IDOCK:   -0.49 KCAL/MOL
REMARK 927      BINDING AFFINITY PREDICTED BY RF-SCORE:    0.00 PKD
ROOT
HETATM    1  C   UNL     1      -9.889  20.839  67.579  1.00  0.00    -0.409 C  
HETATM    2  C   UNL     1      -9.204  19.505  67.542  1.00  0.00    -0.391 A  
HETATM    3  C   UNL     1      -9.424  18.612  66.483  1.00  0.00    -0.331 A  
HETATM    4  C   UNL     1      -8.819  17.349  66.464  1.00  0.00    -0.263 A  
HETATM    5  C   UNL     1      -8.371  19.118  68.595  1.00  0.00    -0.403 A  
HETATM    6  C   UNL     1      -8.014  16.951  67.543  1.00  0.00    -0.186 A  
HETATM    7  C   UNL     1      -7.784  17.852  68.595  1.00  0.00    -0.293 A  
HETATM    8  C   UNL     1      -7.384  15.589  67.627  1.00  0.00    -0.197 C  
ENDROOT
BRANCH   4   9
HETATM    9  O   UNL     1      -9.039  16.424  65.479  1.00  0.00    -0.390 OA 
BRANCH   9  10
HETATM   10  C   UNL     1     -10.333  15.819  65.405  1.00  0.00    -0.389 C  
BRANCH  10  11
HETATM   11  C   UNL     1     -10.234  14.347  64.998  1.00  0.00    -0.406 C  
BRANCH  11  12
HETATM   12  C   UNL     1     -10.362  13.405  66.207  1.00  0.00    -0.291 C  
BRANCH  12  13
HETATM   13  C   UNL     1     -10.743  11.940  65.870  1.00  0.00    -0.326 C  
HETATM   14  C   UNL     1     -11.314  11.197  67.089  1.00  0.00    -0.257 C  
HETATM   15  C   UNL     1      -9.510  11.165  65.362  1.00  0.00    -0.253 C  
HETATM   16  C   UNL     1     -11.795  11.943  64.749  1.00  0.00    -0.186 C  
HETATM   17  O   UNL     1     -11.629  11.452  63.641  1.00  0.00    -0.331 OA 
HETATM   18  O   UNL     1     -12.962  12.548  65.072  1.00  0.00    -0.779 OA 
ENDBRANCH  12  13
ENDBRANCH  11  12
ENDBRANCH  10  11
ENDBRANCH   9  10
ENDBRANCH   4   9
TORSDOF 5
ENDMDL
MODEL       85
REMARK 921   NORMALIZED FREE ENERGY PREDICTED BY IDOCK:   -4.70 KCAL/MOL
REMARK 922        TOTAL FREE ENERGY PREDICTED BY IDOCK:   -6.55 KCAL/MOL
REMARK 923 INTER-LIGAND FREE ENERGY PREDICTED BY IDOCK:   -6.10 KCAL/MOL
REMARK 924 INTRA-LIGAND FREE ENERGY PREDICTED BY IDOCK:   -0.46 KCAL/MOL
REMARK 927      BINDING AFFINITY PREDICTED BY RF-SCORE:    0.00 PKD
ROOT
HETATM    1  C   UNL     1      -9.484  10.379  63.831  1.00  0.00    -0.354 C  
HETATM    2  C   UNL     1     -10.164  11.078  64.971  1.00  0.00    -0.360 A  
HETATM    3  C   UNL     1     -10.557  12.421  64.859  1.00  0.00    -0.326 A  
HETATM    4  C   UNL     1     -11.155  13.090  65.933  1.00  0.00    -0.280 A  
HETATM    5  C   UNL     1     -10.371  10.408  66.178  1.00  0.00    -0.269 A  
HETATM    6  C   UNL     1     -11.326  12.423  67.157  1.00  0.00    -0.390 A  
HETATM    7  C   UNL     1     -10.944  11.076  67.261  1.00  0.00    -0.356 A  
HETATM    8  C   UNL     1     -11.899  13.093  68.374  1.00  0.00    -0.386 C  
ENDROOT
BRANCH   4   9
HETATM    9  O   UNL     1     -11.512  14.412  65.892  1.00  0.00    -0.331 OA 
BRANCH   9  10
HETATM   10  C   UNL     1     -11.059  15.194  64.785  1.00  0.00    -0.382 C  
BRANCH  10  11
HETATM   11  C   UNL     1     -11.033  16.684  65.133  1.00  0.00    -0.160 C  
BRANCH  11  12
HETATM   12  C   UNL     1     -10.163  16.973  66.368  1.00  0.00    -0.330 C  
BRANCH  12  13
HETATM   13  C   UNL     1      -9.926  18.473  66.678  1.00  0.00    -0.394 C  
HETATM   14  C   UNL     1     -10.287  18.828  68.129  1.00  0.00    -0.419 C  
HETATM   15  C   UNL     1     -10.768  19.359  65.737  1.00  0.00    -0.458 C  
HETATM   16  C   UNL     1      -8.443  18.804  66.437  1.00  0.00    -0.284 C  
HETATM   17  O   UNL     1      -8.037  19.598  65.600  1.00  0.00    -0.405 OA 
HETATM   18  O   UNL     1      -7.579  18.135  67.236  1.00  0.00    -0.211 OA 
ENDBRANCH  12  13
ENDBRANCH  11  12
ENDBRANCH  10  11
ENDBRANCH   9  10
ENDBRANCH   4   9
TORSDOF 5
ENDMDL
MODEL       86
REMARK 921   NORMALIZED FREE ENERGY PREDICTED BY IDOCK:   -4.69 KCAL/MOL
REMARK 922        TOTAL FREE ENERGY PREDICTED BY IDOCK:   -6.55 KCAL/MOL
REMARK 923 INTER-LIGAND FREE ENERGY PREDICTED BY IDOCK:   -6.12 KCAL/MOL
REMARK 924 INTRA-LIGAND FREE ENERGY PREDICTED BY IDOCK:   -0.43 KCAL/MOL
REMARK 927      BINDING AFFINITY PREDICTED BY RF-SCORE:    0.00 PKD
ROOT
HETATM    1  C   UNL     1     -10.418   5.140  67.327  1.00  0.00    -0.197 C  
HETATM    2  C   UNL     1     -10.509   6.539  67.860  1.00  0.00    -0.273 A  
HETATM    3  C   UNL     1     -10.344   7.644  67.012  1.00  0.00    -0.400 A  
HETATM    4  C   UNL     1     -10.387   8.951  67.511  1.00  0.00    -0.263 A  
HETATM    5  C   UNL     1     -10.714   6.755  69.225  1.00  0.00    -0.288 A  
HETATM    6  C   UNL     1     -10.556   9.161  68.889  1.00  0.00    -0.214 A  
HETATM    7  C   UNL     1     -10.734   8.054  69.733  1.00  0.00    -0.231 A  
HETATM    8  C   UNL     1     -10.548  10.531  69.509  1.00  0.00    -0.278 C  
ENDROOT
BRANCH   4   9
HETATM    9  O   UNL     1     -10.184  10.061  66.735  1.00  0.00    -0.217 OA 
BRANCH   9  10
HETATM   10  C   UNL     1      -9.823   9.865  65.365  1.00  0.00    -0.313 C  
BRANCH  10  11
HETATM   11  C   UNL     1     -10.389  10.975  64.478  1.00  0.00    -0.420 C  
BRANCH  11  12
HETATM   12  C   UNL     1     -10.074  12.374  65.033  1.00  0.00    -0.269 C  
BRANCH  12  13
HETATM   13  C   UNL     1     -11.309  13.245  65.380  1.00  0.00    -0.317 C  
HETATM   14  C   UNL     1     -11.003  14.748  65.281  1.00  0.00    -0.382 C  
HETATM   15  C   UNL     1     -11.799  12.942  66.811  1.00  0.00    -0.452 C  
HETATM   16  C   UNL     1     -12.450  12.902  64.407  1.00  0.00    -0.375 C  
HETATM   17  O   UNL     1     -13.526  12.425  64.741  1.00  0.00    -0.600 OA 
HETATM   18  O   UNL     1     -12.182  13.168  63.108  1.00  0.00    -0.631 OA 
ENDBRANCH  12  13
ENDBRANCH  11  12
ENDBRANCH  10  11
ENDBRANCH   9  10
ENDBRANCH   4   9
TORSDOF 5
ENDMDL
MODEL       87
REMARK 921   NORMALIZED FREE ENERGY PREDICTED BY IDOCK:   -4.67 KCAL/MOL
REMARK 922        TOTAL FREE ENERGY PREDICTED BY IDOCK:   -6.52 KCAL/MOL
REMARK 923 INTER-LIGAND FREE ENERGY PREDICTED BY IDOCK:   -5.77 KCAL/MOL
REMARK 924 INTRA-LIGAND FREE ENERGY PREDICTED BY IDOCK:   -0.74 KCAL/MOL
REMARK 927      BINDING AFFINITY PREDICTED BY RF-SCORE:    0.00 PKD
ROOT
HETATM    1  C   UNL     1     -10.405  19.595  65.847  1.00  0.00    -0.584 C  
HETATM    2  C   UNL     1     -10.391  18.309  66.620  1.00  0.00    -0.400 A  
HETATM    3  C   UNL     1     -10.383  17.072  65.959  1.00  0.00    -0.324 A  
HETATM    4  C   UNL     1     -10.412  15.870  66.676  1.00  0.00    -0.306 A  
HETATM    5  C   UNL     1     -10.433  18.334  68.016  1.00  0.00    -0.387 A  
HETATM    6  C   UNL     1     -10.492  15.900  68.077  1.00  0.00    -0.274 A  
HETATM    7  C   UNL     1     -10.486  17.141  68.736  1.00  0.00    -0.351 A  
HETATM    8  C   UNL     1     -10.592  14.655  68.913  1.00  0.00    -0.253 C  
ENDROOT
BRANCH   4   9
HETATM    9  O   UNL     1     -10.456  14.638  66.079  1.00  0.00    -0.284 OA 
BRANCH   9  10
HETATM   10  C   UNL     1     -11.707  14.194  65.548  1.00  0.00    -0.344 C  
BRANCH  10  11
HETATM   11  C   UNL     1     -11.923  12.703  65.811  1.00  0.00    -0.503 C  
BRANCH  11  12
HETATM   12  C   UNL     1     -10.679  11.869  65.460  1.00  0.00    -0.329 C  
BRANCH  12  13
HETATM   13  C   UNL     1     -10.210  10.880  66.558  1.00  0.00    -0.282 C  
HETATM   14  C   UNL     1     -10.009   9.459  66.007  1.00  0.00    -0.352 C  
HETATM   15  C   UNL     1     -11.242  10.816  67.703  1.00  0.00    -0.370 C  
HETATM   16  C   UNL     1      -8.881  11.381  67.146  1.00  0.00    -0.156 C  
HETATM   17  O   UNL     1      -8.720  11.712  68.313  1.00  0.00    -0.153 OA 
HETATM   18  O   UNL     1      -7.859  11.439  66.261  1.00  0.00    -0.121 OA 
ENDBRANCH  12  13
ENDBRANCH  11  12
ENDBRANCH  10  11
ENDBRANCH   9  10
ENDBRANCH   4   9
TORSDOF 5
ENDMDL
MODEL       88
REMARK 921   NORMALIZED FREE ENERGY PREDICTED BY IDOCK:   -4.65 KCAL/MOL
REMARK 922        TOTAL FREE ENERGY PREDICTED BY IDOCK:   -6.49 KCAL/MOL
REMARK 923 INTER-LIGAND FREE ENERGY PREDICTED BY IDOCK:   -5.42 KCAL/MOL
REMARK 924 INTRA-LIGAND FREE ENERGY PREDICTED BY IDOCK:   -1.07 KCAL/MOL
REMARK 927      BINDING AFFINITY PREDICTED BY RF-SCORE:    0.00 PKD
ROOT
HETATM    1  C   UNL     1     -14.209   6.974  71.668  1.00  0.00    -0.433 C  
HETATM    2  C   UNL     1     -12.816   7.461  71.396  1.00  0.00    -0.408 A  
HETATM    3  C   UNL     1     -12.057   6.919  70.348  1.00  0.00    -0.250 A  
HETATM    4  C   UNL     1     -10.742   7.340  70.116  1.00  0.00    -0.244 A  
HETATM    5  C   UNL     1     -12.242   8.432  72.219  1.00  0.00    -0.449 A  
HETATM    6  C   UNL     1     -10.157   8.289  70.970  1.00  0.00    -0.230 A  
HETATM    7  C   UNL     1     -10.925   8.840  72.009  1.00  0.00    -0.438 A  
HETATM    8  C   UNL     1      -8.732   8.743  70.825  1.00  0.00    -0.224 C  
ENDROOT
BRANCH   4   9
HETATM    9  O   UNL     1      -9.943   6.809  69.139  1.00  0.00    -0.155 OA 
BRANCH   9  10
HETATM   10  C   UNL     1     -10.188   7.200  67.786  1.00  0.00    -0.184 C  
BRANCH  10  11
HETATM   11  C   UNL     1      -9.397   8.458  67.420  1.00  0.00    -0.178 C  
BRANCH  11  12
HETATM   12  C   UNL     1     -10.253   9.472  66.642  1.00  0.00    -0.310 C  
BRANCH  12  13
HETATM   13  C   UNL     1     -10.457  10.842  67.338  1.00  0.00    -0.268 C  
HETATM   14  C   UNL     1      -9.160  11.366  67.973  1.00  0.00    -0.171 C  
HETATM   15  C   UNL     1     -11.529  10.732  68.441  1.00  0.00    -0.358 C  
HETATM   16  C   UNL     1     -10.951  11.861  66.297  1.00  0.00    -0.302 C  
HETATM   17  O   UNL     1     -12.034  12.428  66.342  1.00  0.00    -0.559 OA 
HETATM   18  O   UNL     1     -10.083  12.102  65.288  1.00  0.00    -0.261 OA 
ENDBRANCH  12  13
ENDBRANCH  11  12
ENDBRANCH  10  11
ENDBRANCH   9  10
ENDBRANCH   4   9
TORSDOF 5
ENDMDL
MODEL       89
REMARK 921   NORMALIZED FREE ENERGY PREDICTED BY IDOCK:   -4.64 KCAL/MOL
REMARK 922        TOTAL FREE ENERGY PREDICTED BY IDOCK:   -6.48 KCAL/MOL
REMARK 923 INTER-LIGAND FREE ENERGY PREDICTED BY IDOCK:   -5.52 KCAL/MOL
REMARK 924 INTRA-LIGAND FREE ENERGY PREDICTED BY IDOCK:   -0.96 KCAL/MOL
REMARK 927      BINDING AFFINITY PREDICTED BY RF-SCORE:    0.00 PKD
ROOT
HETATM    1  C   UNL     1     -12.214  12.216  63.456  1.00  0.00    -0.670 C  
HETATM    2  C   UNL     1     -11.702  12.752  64.761  1.00  0.00    -0.398 A  
HETATM    3  C   UNL     1     -10.440  12.379  65.247  1.00  0.00    -0.316 A  
HETATM    4  C   UNL     1      -9.975  12.844  66.483  1.00  0.00    -0.259 A  
HETATM    5  C   UNL     1     -12.504  13.598  65.531  1.00  0.00    -0.544 A  
HETATM    6  C   UNL     1     -10.801  13.663  67.270  1.00  0.00    -0.292 A  
HETATM    7  C   UNL     1     -12.058  14.046  66.774  1.00  0.00    -0.480 A  
HETATM    8  C   UNL     1     -10.400  14.149  68.634  1.00  0.00    -0.243 C  
ENDROOT
BRANCH   4   9
HETATM    9  O   UNL     1      -8.774  12.471  67.025  1.00  0.00    -0.199 OA 
BRANCH   9  10
HETATM   10  C   UNL     1      -8.186  11.249  66.574  1.00  0.00    -0.165 C  
BRANCH  10  11
HETATM   11  C   UNL     1      -8.311  10.150  67.632  1.00  0.00    -0.114 C  
BRANCH  11  12
HETATM   12  C   UNL     1      -9.091  10.627  68.869  1.00  0.00    -0.181 C  
BRANCH  12  13
HETATM   13  C   UNL     1     -10.391   9.841  69.179  1.00  0.00    -0.225 C  
HETATM   14  C   UNL     1     -10.377   8.435  68.558  1.00  0.00    -0.232 C  
HETATM   15  C   UNL     1     -11.621  10.599  68.639  1.00  0.00    -0.297 C  
HETATM   16  C   UNL     1     -10.545   9.713  70.704  1.00  0.00    -0.319 C  
HETATM   17  O   UNL     1     -11.469  10.187  71.349  1.00  0.00    -0.327 OA 
HETATM   18  O   UNL     1      -9.557   9.019  71.314  1.00  0.00    -0.260 OA 
ENDBRANCH  12  13
ENDBRANCH  11  12
ENDBRANCH  10  11
ENDBRANCH   9  10
ENDBRANCH   4   9
TORSDOF 5
ENDMDL
MODEL       90
REMARK 921   NORMALIZED FREE ENERGY PREDICTED BY IDOCK:   -4.64 KCAL/MOL
REMARK 922        TOTAL FREE ENERGY PREDICTED BY IDOCK:   -6.48 KCAL/MOL
REMARK 923 INTER-LIGAND FREE ENERGY PREDICTED BY IDOCK:   -6.03 KCAL/MOL
REMARK 924 INTRA-LIGAND FREE ENERGY PREDICTED BY IDOCK:   -0.45 KCAL/MOL
REMARK 927      BINDING AFFINITY PREDICTED BY RF-SCORE:    0.00 PKD
ROOT
HETATM    1  C   UNL     1     -11.812  12.610  63.363  1.00  0.00    -0.594 C  
HETATM    2  C   UNL     1     -11.390  13.196  64.678  1.00  0.00    -0.363 A  
HETATM    3  C   UNL     1     -10.784  14.460  64.741  1.00  0.00    -0.423 A  
HETATM    4  C   UNL     1     -10.351  14.994  65.961  1.00  0.00    -0.312 A  
HETATM    5  C   UNL     1     -11.557  12.463  65.855  1.00  0.00    -0.449 A  
HETATM    6  C   UNL     1     -10.486  14.236  67.135  1.00  0.00    -0.266 A  
HETATM    7  C   UNL     1     -11.107  12.978  67.071  1.00  0.00    -0.311 A  
HETATM    8  C   UNL     1      -9.988  14.713  68.471  1.00  0.00    -0.235 C  
ENDROOT
BRANCH   4   9
HETATM    9  O   UNL     1      -9.710  16.199  66.070  1.00  0.00    -0.301 OA 
BRANCH   9  10
HETATM   10  C   UNL     1     -10.471  17.386  65.840  1.00  0.00    -0.252 C  
BRANCH  10  11
HETATM   11  C   UNL     1     -10.143  18.465  66.874  1.00  0.00    -0.385 C  
BRANCH  11  12
HETATM   12  C   UNL     1      -9.115  19.479  66.344  1.00  0.00    -0.417 C  
BRANCH  12  13
HETATM   13  C   UNL     1      -7.655  19.254  66.817  1.00  0.00    -0.251 C  
HETATM   14  C   UNL     1      -6.847  20.561  66.835  1.00  0.00    -0.332 C  
HETATM   15  C   UNL     1      -6.937  18.250  65.893  1.00  0.00    -0.312 C  
HETATM   16  C   UNL     1      -7.677  18.661  68.236  1.00  0.00    -0.298 C  
HETATM   17  O   UNL     1      -7.238  17.559  68.533  1.00  0.00    -0.219 OA 
HETATM   18  O   UNL     1      -8.235  19.461  69.174  1.00  0.00    -0.307 OA 
ENDBRANCH  12  13
ENDBRANCH  11  12
ENDBRANCH  10  11
ENDBRANCH   9  10
ENDBRANCH   4   9
TORSDOF 5
ENDMDL
MODEL       91
REMARK 921   NORMALIZED FREE ENERGY PREDICTED BY IDOCK:   -4.63 KCAL/MOL
REMARK 922        TOTAL FREE ENERGY PREDICTED BY IDOCK:   -6.47 KCAL/MOL
REMARK 923 INTER-LIGAND FREE ENERGY PREDICTED BY IDOCK:   -5.43 KCAL/MOL
REMARK 924 INTRA-LIGAND FREE ENERGY PREDICTED BY IDOCK:   -1.03 KCAL/MOL
REMARK 927      BINDING AFFINITY PREDICTED BY RF-SCORE:    0.00 PKD
ROOT
HETATM    1  C   UNL     1      -9.253  10.127  63.828  1.00  0.00    -0.321 C  
HETATM    2  C   UNL     1     -10.054  11.154  64.572  1.00  0.00    -0.364 A  
HETATM    3  C   UNL     1      -9.608  11.663  65.801  1.00  0.00    -0.255 A  
HETATM    4  C   UNL     1     -10.372  12.592  66.518  1.00  0.00    -0.237 A  
HETATM    5  C   UNL     1     -11.284  11.581  64.066  1.00  0.00    -0.414 A  
HETATM    6  C   UNL     1     -11.624  12.988  66.024  1.00  0.00    -0.409 A  
HETATM    7  C   UNL     1     -12.062  12.487  64.787  1.00  0.00    -0.497 A  
HETATM    8  C   UNL     1     -12.531  13.929  66.767  1.00  0.00    -0.254 C  
ENDROOT
BRANCH   4   9
HETATM    9  O   UNL     1     -10.005  13.082  67.743  1.00  0.00    -0.216 OA 
BRANCH   9  10
HETATM   10  C   UNL     1      -8.630  13.417  67.948  1.00  0.00    -0.184 C  
BRANCH  10  11
HETATM   11  C   UNL     1      -8.478  14.855  68.447  1.00  0.00    -0.153 C  
BRANCH  11  12
HETATM   12  C   UNL     1      -8.384  15.861  67.288  1.00  0.00    -0.211 C  
BRANCH  12  13
HETATM   13  C   UNL     1      -9.603  16.805  67.127  1.00  0.00    -0.238 C  
HETATM   14  C   UNL     1     -10.612  16.646  68.275  1.00  0.00    -0.338 C  
HETATM   15  C   UNL     1     -10.332  16.524  65.797  1.00  0.00    -0.359 C  
HETATM   16  C   UNL     1      -9.107  18.261  67.096  1.00  0.00    -0.264 C  
HETATM   17  O   UNL     1      -9.239  19.018  66.145  1.00  0.00    -0.418 OA 
HETATM   18  O   UNL     1      -8.488  18.670  68.228  1.00  0.00    -0.304 OA 
ENDBRANCH  12  13
ENDBRANCH  11  12
ENDBRANCH  10  11
ENDBRANCH   9  10
ENDBRANCH   4   9
TORSDOF 5
ENDMDL
MODEL       92
REMARK 921   NORMALIZED FREE ENERGY PREDICTED BY IDOCK:   -4.61 KCAL/MOL
REMARK 922        TOTAL FREE ENERGY PREDICTED BY IDOCK:   -6.43 KCAL/MOL
REMARK 923 INTER-LIGAND FREE ENERGY PREDICTED BY IDOCK:   -5.71 KCAL/MOL
REMARK 924 INTRA-LIGAND FREE ENERGY PREDICTED BY IDOCK:   -0.72 KCAL/MOL
REMARK 927      BINDING AFFINITY PREDICTED BY RF-SCORE:    0.00 PKD
ROOT
HETATM    1  C   UNL     1     -12.377  13.805  66.521  1.00  0.00    -0.432 C  
HETATM    2  C   UNL     1     -11.657  12.824  65.644  1.00  0.00    -0.410 A  
HETATM    3  C   UNL     1     -11.012  11.707  66.194  1.00  0.00    -0.339 A  
HETATM    4  C   UNL     1     -10.303  10.811  65.384  1.00  0.00    -0.247 A  
HETATM    5  C   UNL     1     -11.582  13.043  64.267  1.00  0.00    -0.437 A  
HETATM    6  C   UNL     1     -10.199  11.056  64.005  1.00  0.00    -0.420 A  
HETATM    7  C   UNL     1     -10.858  12.169  63.457  1.00  0.00    -0.518 A  
HETATM    8  C   UNL     1      -9.403  10.178  63.081  1.00  0.00    -0.333 C  
ENDROOT
BRANCH   4   9
HETATM    9  O   UNL     1      -9.616   9.733  65.875  1.00  0.00    -0.209 OA 
BRANCH   9  10
HETATM   10  C   UNL     1     -10.362   8.704  66.530  1.00  0.00    -0.166 C  
BRANCH  10  11
HETATM   11  C   UNL     1      -9.673   8.257  67.822  1.00  0.00    -0.194 C  
BRANCH  11  12
HETATM   12  C   UNL     1     -10.566   8.474  69.056  1.00  0.00    -0.173 C  
BRANCH  12  13
HETATM   13  C   UNL     1     -10.122   9.618  70.004  1.00  0.00    -0.293 C  
HETATM   14  C   UNL     1     -11.047  10.842  69.904  1.00  0.00    -0.339 C  
HETATM   15  C   UNL     1      -8.684  10.067  69.672  1.00  0.00    -0.210 C  
HETATM   16  C   UNL     1     -10.134   9.099  71.451  1.00  0.00    -0.322 C  
HETATM   17  O   UNL     1      -9.146   9.022  72.168  1.00  0.00    -0.372 OA 
HETATM   18  O   UNL     1     -11.351   8.716  71.903  1.00  0.00    -0.301 OA 
ENDBRANCH  12  13
ENDBRANCH  11  12
ENDBRANCH  10  11
ENDBRANCH   9  10
ENDBRANCH   4   9
TORSDOF 5
ENDMDL
MODEL       93
REMARK 921   NORMALIZED FREE ENERGY PREDICTED BY IDOCK:   -4.60 KCAL/MOL
REMARK 922        TOTAL FREE ENERGY PREDICTED BY IDOCK:   -6.43 KCAL/MOL
REMARK 923 INTER-LIGAND FREE ENERGY PREDICTED BY IDOCK:   -5.50 KCAL/MOL
REMARK 924 INTRA-LIGAND FREE ENERGY PREDICTED BY IDOCK:   -0.92 KCAL/MOL
REMARK 927      BINDING AFFINITY PREDICTED BY RF-SCORE:    0.00 PKD
ROOT
HETATM    1  C   UNL     1      -9.472  17.654  67.839  1.00  0.00    -0.276 C  
HETATM    2  C   UNL     1     -10.292  16.591  67.169  1.00  0.00    -0.298 A  
HETATM    3  C   UNL     1     -10.946  15.605  67.923  1.00  0.00    -0.319 A  
HETATM    4  C   UNL     1     -11.678  14.587  67.300  1.00  0.00    -0.406 A  
HETATM    5  C   UNL     1     -10.372  16.546  65.775  1.00  0.00    -0.359 A  
HETATM    6  C   UNL     1     -11.724  14.524  65.898  1.00  0.00    -0.345 A  
HETATM    7  C   UNL     1     -11.080  15.521  65.147  1.00  0.00    -0.382 A  
HETATM    8  C   UNL     1     -12.434  13.426  65.157  1.00  0.00    -0.509 C  
ENDROOT
BRANCH   4   9
HETATM    9  O   UNL     1     -12.293  13.574  67.986  1.00  0.00    -0.215 OA 
BRANCH   9  10
HETATM   10  C   UNL     1     -12.013  13.443  69.382  1.00  0.00    -0.315 C  
BRANCH  10  11
HETATM   11  C   UNL     1     -11.624  12.006  69.737  1.00  0.00    -0.348 C  
BRANCH  11  12
HETATM   12  C   UNL     1     -11.772  11.055  68.537  1.00  0.00    -0.348 C  
BRANCH  12  13
HETATM   13  C   UNL     1     -10.451  10.437  68.012  1.00  0.00    -0.232 C  
HETATM   14  C   UNL     1      -9.245  10.829  68.880  1.00  0.00    -0.180 C  
HETATM   15  C   UNL     1     -10.178  10.895  66.565  1.00  0.00    -0.282 C  
HETATM   16  C   UNL     1     -10.585   8.905  68.006  1.00  0.00    -0.168 C  
HETATM   17  O   UNL     1     -10.531   8.209  67.002  1.00  0.00    -0.312 OA 
HETATM   18  O   UNL     1     -10.776   8.351  69.226  1.00  0.00    -0.209 OA 
ENDBRANCH  12  13
ENDBRANCH  11  12
ENDBRANCH  10  11
ENDBRANCH   9  10
ENDBRANCH   4   9
TORSDOF 5
ENDMDL
MODEL       94
REMARK 921   NORMALIZED FREE ENERGY PREDICTED BY IDOCK:   -4.58 KCAL/MOL
REMARK 922        TOTAL FREE ENERGY PREDICTED BY IDOCK:   -6.40 KCAL/MOL
REMARK 923 INTER-LIGAND FREE ENERGY PREDICTED BY IDOCK:   -6.06 KCAL/MOL
REMARK 924 INTRA-LIGAND FREE ENERGY PREDICTED BY IDOCK:   -0.34 KCAL/MOL
REMARK 927      BINDING AFFINITY PREDICTED BY RF-SCORE:    0.00 PKD
ROOT
HETATM    1  C   UNL     1     -11.189  12.111  64.505  1.00  0.00    -0.385 C  
HETATM    2  C   UNL     1     -11.361  12.712  65.869  1.00  0.00    -0.373 A  
HETATM    3  C   UNL     1     -11.558  11.898  66.994  1.00  0.00    -0.365 A  
HETATM    4  C   UNL     1     -11.760  12.454  68.263  1.00  0.00    -0.345 A  
HETATM    5  C   UNL     1     -11.372  14.100  66.024  1.00  0.00    -0.330 A  
HETATM    6  C   UNL     1     -11.808  13.851  68.407  1.00  0.00    -0.409 A  
HETATM    7  C   UNL     1     -11.596  14.663  67.281  1.00  0.00    -0.404 A  
HETATM    8  C   UNL     1     -12.085  14.522  69.723  1.00  0.00    -0.380 C  
ENDROOT
BRANCH   4   9
HETATM    9  O   UNL     1     -12.006  11.707  69.383  1.00  0.00    -0.313 OA 
BRANCH   9  10
HETATM   10  C   UNL     1     -11.155  10.588  69.643  1.00  0.00    -0.283 C  
BRANCH  10  11
HETATM   11  C   UNL     1     -11.779   9.642  70.670  1.00  0.00    -0.353 C  
BRANCH  11  12
HETATM   12  C   UNL     1     -10.865   8.445  70.983  1.00  0.00    -0.280 C  
BRANCH  12  13
HETATM   13  C   UNL     1     -11.560   7.059  70.977  1.00  0.00    -0.361 C  
HETATM   14  C   UNL     1     -11.356   6.317  69.646  1.00  0.00    -0.492 C  
HETATM   15  C   UNL     1     -13.075   7.214  71.220  1.00  0.00    -0.361 C  
HETATM   16  C   UNL     1     -10.982   6.206  72.118  1.00  0.00    -0.262 C  
HETATM   17  O   UNL     1     -11.631   5.785  73.066  1.00  0.00    -0.213 OA 
HETATM   18  O   UNL     1      -9.660   5.941  72.010  1.00  0.00    -0.151 OA 
ENDBRANCH  12  13
ENDBRANCH  11  12
ENDBRANCH  10  11
ENDBRANCH   9  10
ENDBRANCH   4   9
TORSDOF 5
ENDMDL
MODEL       95
REMARK 921   NORMALIZED FREE ENERGY PREDICTED BY IDOCK:   -4.58 KCAL/MOL
REMARK 922        TOTAL FREE ENERGY PREDICTED BY IDOCK:   -6.40 KCAL/MOL
REMARK 923 INTER-LIGAND FREE ENERGY PREDICTED BY IDOCK:   -5.35 KCAL/MOL
REMARK 924 INTRA-LIGAND FREE ENERGY PREDICTED BY IDOCK:   -1.06 KCAL/MOL
REMARK 927      BINDING AFFINITY PREDICTED BY RF-SCORE:    0.00 PKD
ROOT
HETATM    1  C   UNL     1     -10.083   9.553  66.461  1.00  0.00    -0.326 C  
HETATM    2  C   UNL     1     -10.548  10.884  65.947  1.00  0.00    -0.244 A  
HETATM    3  C   UNL     1     -11.229  11.780  66.784  1.00  0.00    -0.388 A  
HETATM    4  C   UNL     1     -11.702  13.005  66.299  1.00  0.00    -0.387 A  
HETATM    5  C   UNL     1     -10.348  11.224  64.607  1.00  0.00    -0.373 A  
HETATM    6  C   UNL     1     -11.531  13.325  64.942  1.00  0.00    -0.342 A  
HETATM    7  C   UNL     1     -10.837  12.432  64.110  1.00  0.00    -0.414 A  
HETATM    8  C   UNL     1     -12.066  14.590  64.332  1.00  0.00    -0.492 C  
ENDROOT
BRANCH   4   9
HETATM    9  O   UNL     1     -12.413  13.893  67.060  1.00  0.00    -0.323 OA 
BRANCH   9  10
HETATM   10  C   UNL     1     -11.776  14.449  68.213  1.00  0.00    -0.341 C  
BRANCH  10  11
HETATM   11  C   UNL     1     -11.370  15.905  67.975  1.00  0.00    -0.284 C  
BRANCH  11  12
HETATM   12  C   UNL     1      -9.967  16.210  68.527  1.00  0.00    -0.229 C  
BRANCH  12  13
HETATM   13  C   UNL     1      -8.794  15.928  67.552  1.00  0.00    -0.199 C  
HETATM   14  C   UNL     1      -7.644  16.932  67.728  1.00  0.00    -0.180 C  
HETATM   15  C   UNL     1      -9.280  15.996  66.090  1.00  0.00    -0.388 C  
HETATM   16  C   UNL     1      -8.262  14.508  67.809  1.00  0.00    -0.165 C  
HETATM   17  O   UNL     1      -8.284  13.601  66.988  1.00  0.00    -0.146 OA 
HETATM   18  O   UNL     1      -7.750  14.313  69.046  1.00  0.00    -0.125 OA 
ENDBRANCH  12  13
ENDBRANCH  11  12
ENDBRANCH  10  11
ENDBRANCH   9  10
ENDBRANCH   4   9
TORSDOF 5
ENDMDL
MODEL       96
REMARK 921   NORMALIZED FREE ENERGY PREDICTED BY IDOCK:   -4.57 KCAL/MOL
REMARK 922        TOTAL FREE ENERGY PREDICTED BY IDOCK:   -6.39 KCAL/MOL
REMARK 923 INTER-LIGAND FREE ENERGY PREDICTED BY IDOCK:   -5.48 KCAL/MOL
REMARK 924 INTRA-LIGAND FREE ENERGY PREDICTED BY IDOCK:   -0.91 KCAL/MOL
REMARK 927      BINDING AFFINITY PREDICTED BY RF-SCORE:    0.00 PKD
ROOT
HETATM    1  C   UNL     1      -8.924  17.253  67.589  1.00  0.00    -0.224 C  
HETATM    2  C   UNL     1      -9.935  16.281  67.055  1.00  0.00    -0.255 A  
HETATM    3  C   UNL     1     -10.676  15.464  67.922  1.00  0.00    -0.286 A  
HETATM    4  C   UNL     1     -11.590  14.527  67.428  1.00  0.00    -0.385 A  
HETATM    5  C   UNL     1     -10.114  16.147  65.677  1.00  0.00    -0.366 A  
HETATM    6  C   UNL     1     -11.739  14.370  66.040  1.00  0.00    -0.378 A  
HETATM    7  C   UNL     1     -11.006  15.198  65.175  1.00  0.00    -0.428 A  
HETATM    8  C   UNL     1     -12.651  13.341  65.432  1.00  0.00    -0.526 C  
ENDROOT
BRANCH   4   9
HETATM    9  O   UNL     1     -12.301  13.673  68.228  1.00  0.00    -0.231 OA 
BRANCH   9  10
HETATM   10  C   UNL     1     -11.939  13.591  69.609  1.00  0.00    -0.337 C  
BRANCH  10  11
HETATM   11  C   UNL     1     -11.838  12.135  70.070  1.00  0.00    -0.383 C  
BRANCH  11  12
HETATM   12  C   UNL     1     -11.781  11.157  68.884  1.00  0.00    -0.406 C  
BRANCH  12  13
HETATM   13  C   UNL     1     -10.449  10.380  68.727  1.00  0.00    -0.219 C  
HETATM   14  C   UNL     1     -10.613   9.123  67.857  1.00  0.00    -0.272 C  
HETATM   15  C   UNL     1      -9.910   9.949  70.106  1.00  0.00    -0.272 C  
HETATM   16  C   UNL     1      -9.405  11.304  68.078  1.00  0.00    -0.166 C  
HETATM   17  O   UNL     1      -8.363  11.657  68.613  1.00  0.00    -0.151 OA 
HETATM   18  O   UNL     1      -9.720  11.723  66.830  1.00  0.00    -0.193 OA 
ENDBRANCH  12  13
ENDBRANCH  11  12
ENDBRANCH  10  11
ENDBRANCH   9  10
ENDBRANCH   4   9
TORSDOF 5
ENDMDL
MODEL       97
REMARK 921   NORMALIZED FREE ENERGY PREDICTED BY IDOCK:   -4.56 KCAL/MOL
REMARK 922        TOTAL FREE ENERGY PREDICTED BY IDOCK:   -6.38 KCAL/MOL
REMARK 923 INTER-LIGAND FREE ENERGY PREDICTED BY IDOCK:   -5.69 KCAL/MOL
REMARK 924 INTRA-LIGAND FREE ENERGY PREDICTED BY IDOCK:   -0.69 KCAL/MOL
REMARK 927      BINDING AFFINITY PREDICTED BY RF-SCORE:    0.00 PKD
ROOT
HETATM    1  C   UNL     1     -13.444  12.917  72.209  1.00  0.00    -0.631 C  
HETATM    2  C   UNL     1     -12.721  13.951  71.397  1.00  0.00    -0.445 A  
HETATM    3  C   UNL     1     -12.126  13.616  70.172  1.00  0.00    -0.431 A  
HETATM    4  C   UNL     1     -11.415  14.567  69.430  1.00  0.00    -0.285 A  
HETATM    5  C   UNL     1     -12.591  15.254  71.882  1.00  0.00    -0.428 A  
HETATM    6  C   UNL     1     -11.255  15.865  69.940  1.00  0.00    -0.348 A  
HETATM    7  C   UNL     1     -11.863  16.201  71.161  1.00  0.00    -0.411 A  
HETATM    8  C   UNL     1     -10.451  16.922  69.236  1.00  0.00    -0.319 C  
ENDROOT
BRANCH   4   9
HETATM    9  O   UNL     1     -10.775  14.280  68.254  1.00  0.00    -0.237 OA 
BRANCH   9  10
HETATM   10  C   UNL     1      -9.484  13.669  68.324  1.00  0.00    -0.213 C  
BRANCH  10  11
HETATM   11  C   UNL     1      -9.428  12.394  67.480  1.00  0.00    -0.187 C  
BRANCH  11  12
HETATM   12  C   UNL     1      -9.045  11.163  68.320  1.00  0.00    -0.162 C  
BRANCH  12  13
HETATM   13  C   UNL     1     -10.199  10.167  68.603  1.00  0.00    -0.193 C  
HETATM   14  C   UNL     1      -9.949   8.795  67.957  1.00  0.00    -0.220 C  
HETATM   15  C   UNL     1     -11.535  10.722  68.066  1.00  0.00    -0.333 C  
HETATM   16  C   UNL     1     -10.339   9.985  70.124  1.00  0.00    -0.266 C  
HETATM   17  O   UNL     1     -11.334  10.287  70.769  1.00  0.00    -0.328 OA 
HETATM   18  O   UNL     1      -9.254   9.452  70.731  1.00  0.00    -0.247 OA 
ENDBRANCH  12  13
ENDBRANCH  11  12
ENDBRANCH  10  11
ENDBRANCH   9  10
ENDBRANCH   4   9
TORSDOF 5
ENDMDL
MODEL       98
REMARK 921   NORMALIZED FREE ENERGY PREDICTED BY IDOCK:   -4.54 KCAL/MOL
REMARK 922        TOTAL FREE ENERGY PREDICTED BY IDOCK:   -6.36 KCAL/MOL
REMARK 923 INTER-LIGAND FREE ENERGY PREDICTED BY IDOCK:   -5.76 KCAL/MOL
REMARK 924 INTRA-LIGAND FREE ENERGY PREDICTED BY IDOCK:   -0.59 KCAL/MOL
REMARK 927      BINDING AFFINITY PREDICTED BY RF-SCORE:    0.00 PKD
ROOT
HETATM    1  C   UNL     1     -10.206  20.088  66.421  1.00  0.00    -0.598 C  
HETATM    2  C   UNL     1      -9.125  19.366  67.170  1.00  0.00    -0.359 A  
HETATM    3  C   UNL     1      -9.257  18.006  67.488  1.00  0.00    -0.253 A  
HETATM    4  C   UNL     1      -8.270  17.337  68.223  1.00  0.00    -0.237 A  
HETATM    5  C   UNL     1      -7.992  20.058  67.601  1.00  0.00    -0.338 A  
HETATM    6  C   UNL     1      -7.151  18.047  68.686  1.00  0.00    -0.269 A  
HETATM    7  C   UNL     1      -7.016  19.405  68.354  1.00  0.00    -0.323 A  
HETATM    8  C   UNL     1      -6.082  17.416  69.534  1.00  0.00    -0.252 C  
ENDROOT
BRANCH   4   9
HETATM    9  O   UNL     1      -8.372  16.025  68.601  1.00  0.00    -0.179 OA 
BRANCH   9  10
HETATM   10  C   UNL     1      -9.474  15.651  69.432  1.00  0.00    -0.279 C  
BRANCH  10  11
HETATM   11  C   UNL     1     -10.227  14.453  68.848  1.00  0.00    -0.215 C  
BRANCH  11  12
HETATM   12  C   UNL     1      -9.850  14.195  67.379  1.00  0.00    -0.239 C  
BRANCH  12  13
HETATM   13  C   UNL     1     -10.923  13.459  66.537  1.00  0.00    -0.299 C  
HETATM   14  C   UNL     1     -10.535  13.375  65.053  1.00  0.00    -0.378 C  
HETATM   15  C   UNL     1     -12.282  14.181  66.644  1.00  0.00    -0.450 C  
HETATM   16  C   UNL     1     -11.099  12.034  67.089  1.00  0.00    -0.290 C  
HETATM   17  O   UNL     1     -12.137  11.601  67.570  1.00  0.00    -0.611 OA 
HETATM   18  O   UNL     1      -9.993  11.259  67.011  1.00  0.00    -0.192 OA 
ENDBRANCH  12  13
ENDBRANCH  11  12
ENDBRANCH  10  11
ENDBRANCH   9  10
ENDBRANCH   4   9
TORSDOF 5
ENDMDL
MODEL       99
REMARK 921   NORMALIZED FREE ENERGY PREDICTED BY IDOCK:   -4.53 KCAL/MOL
REMARK 922        TOTAL FREE ENERGY PREDICTED BY IDOCK:   -6.34 KCAL/MOL
REMARK 923 INTER-LIGAND FREE ENERGY PREDICTED BY IDOCK:   -5.89 KCAL/MOL
REMARK 924 INTRA-LIGAND FREE ENERGY PREDICTED BY IDOCK:   -0.45 KCAL/MOL
REMARK 927      BINDING AFFINITY PREDICTED BY RF-SCORE:    0.00 PKD
ROOT
HETATM    1  C   UNL     1      -9.404  10.015  62.922  1.00  0.00    -0.290 C  
HETATM    2  C   UNL     1     -10.075  10.909  63.924  1.00  0.00    -0.422 A  
HETATM    3  C   UNL     1      -9.878  10.722  65.300  1.00  0.00    -0.329 A  
HETATM    4  C   UNL     1     -10.533  11.527  66.240  1.00  0.00    -0.251 A  
HETATM    5  C   UNL     1     -10.945  11.912  63.492  1.00  0.00    -0.505 A  
HETATM    6  C   UNL     1     -11.436  12.509  65.801  1.00  0.00    -0.407 A  
HETATM    7  C   UNL     1     -11.620  12.702  64.422  1.00  0.00    -0.415 A  
HETATM    8  C   UNL     1     -12.226  13.368  66.749  1.00  0.00    -0.367 C  
ENDROOT
BRANCH   4   9
HETATM    9  O   UNL     1     -10.414  11.355  67.593  1.00  0.00    -0.184 OA 
BRANCH   9  10
HETATM   10  C   UNL     1     -11.009  10.192  68.176  1.00  0.00    -0.259 C  
BRANCH  10  11
HETATM   11  C   UNL     1     -10.939  10.241  69.704  1.00  0.00    -0.314 C  
BRANCH  11  12
HETATM   12  C   UNL     1     -10.210   9.019  70.287  1.00  0.00    -0.235 C  
BRANCH  12  13
HETATM   13  C   UNL     1     -11.064   8.117  71.216  1.00  0.00    -0.287 C  
HETATM   14  C   UNL     1     -12.510   8.621  71.340  1.00  0.00    -0.337 C  
HETATM   15  C   UNL     1     -10.446   8.058  72.627  1.00  0.00    -0.408 C  
HETATM   16  C   UNL     1     -11.080   6.688  70.646  1.00  0.00    -0.298 C  
HETATM   17  O   UNL     1     -10.625   5.708  71.220  1.00  0.00    -0.242 OA 
HETATM   18  O   UNL     1     -11.647   6.575  69.422  1.00  0.00    -0.339 OA 
ENDBRANCH  12  13
ENDBRANCH  11  12
ENDBRANCH  10  11
ENDBRANCH   9  10
ENDBRANCH   4   9
TORSDOF 5
ENDMDL
MODEL      100
REMARK 921   NORMALIZED FREE ENERGY PREDICTED BY IDOCK:   -4.53 KCAL/MOL
REMARK 922        TOTAL FREE ENERGY PREDICTED BY IDOCK:   -6.33 KCAL/MOL
REMARK 923 INTER-LIGAND FREE ENERGY PREDICTED BY IDOCK:   -5.46 KCAL/MOL
REMARK 924 INTRA-LIGAND FREE ENERGY PREDICTED BY IDOCK:   -0.87 KCAL/MOL
REMARK 927      BINDING AFFINITY PREDICTED BY RF-SCORE:    0.00 PKD
ROOT
HETATM    1  C   UNL     1      -9.554  16.419  67.305  1.00  0.00    -0.235 C  
HETATM    2  C   UNL     1     -10.378  15.406  66.567  1.00  0.00    -0.293 A  
HETATM    3  C   UNL     1     -10.916  14.294  67.232  1.00  0.00    -0.302 A  
HETATM    4  C   UNL     1     -11.651  13.324  66.539  1.00  0.00    -0.350 A  
HETATM    5  C   UNL     1     -10.577  15.536  65.191  1.00  0.00    -0.455 A  
HETATM    6  C   UNL     1     -11.816  13.441  65.150  1.00  0.00    -0.375 A  
HETATM    7  C   UNL     1     -11.287  14.562  64.489  1.00  0.00    -0.323 A  
HETATM    8  C   UNL     1     -12.534  12.408  64.327  1.00  0.00    -0.529 C  
ENDROOT
BRANCH   4   9
HETATM    9  O   UNL     1     -12.156  12.197  67.131  1.00  0.00    -0.575 OA 
BRANCH   9  10
HETATM   10  C   UNL     1     -11.699  11.868  68.445  1.00  0.00    -0.326 C  
BRANCH  10  11
HETATM   11  C   UNL     1     -11.180  10.430  68.509  1.00  0.00    -0.308 C  
BRANCH  11  12
HETATM   12  C   UNL     1      -9.774  10.297  67.899  1.00  0.00    -0.165 C  
BRANCH  12  13
HETATM   13  C   UNL     1      -9.656   9.311  66.708  1.00  0.00    -0.240 C  
HETATM   14  C   UNL     1      -9.934   9.997  65.361  1.00  0.00    -0.364 C  
HETATM   15  C   UNL     1     -10.651   8.144  66.874  1.00  0.00    -0.311 C  
HETATM   16  C   UNL     1      -8.236   8.723  66.687  1.00  0.00    -0.107 C  
HETATM   17  O   UNL     1      -7.974   7.537  66.831  1.00  0.00    -0.111 OA 
HETATM   18  O   UNL     1      -7.252   9.632  66.493  1.00  0.00    -0.088 OA 
ENDBRANCH  12  13
ENDBRANCH  11  12
ENDBRANCH  10  11
ENDBRANCH   9  10
ENDBRANCH   4   9
TORSDOF 5
ENDMDL
MODEL      101
REMARK 921   NORMALIZED FREE ENERGY PREDICTED BY IDOCK:   -4.52 KCAL/MOL
REMARK 922        TOTAL FREE ENERGY PREDICTED BY IDOCK:   -6.33 KCAL/MOL
REMARK 923 INTER-LIGAND FREE ENERGY PREDICTED BY IDOCK:   -5.73 KCAL/MOL
REMARK 924 INTRA-LIGAND FREE ENERGY PREDICTED BY IDOCK:   -0.59 KCAL/MOL
REMARK 927      BINDING AFFINITY PREDICTED BY RF-SCORE:    0.00 PKD
ROOT
HETATM    1  C   UNL     1     -13.604  12.989  72.288  1.00  0.00    -0.643 C  
HETATM    2  C   UNL     1     -12.812  13.962  71.467  1.00  0.00    -0.441 A  
HETATM    3  C   UNL     1     -12.322  13.605  70.202  1.00  0.00    -0.372 A  
HETATM    4  C   UNL     1     -11.547  14.495  69.449  1.00  0.00    -0.303 A  
HETATM    5  C   UNL     1     -12.513  15.227  71.979  1.00  0.00    -0.430 A  
HETATM    6  C   UNL     1     -11.218  15.750  69.984  1.00  0.00    -0.346 A  
HETATM    7  C   UNL     1     -11.721  16.110  71.245  1.00  0.00    -0.480 A  
HETATM    8  C   UNL     1     -10.338  16.735  69.266  1.00  0.00    -0.309 C  
ENDROOT
BRANCH   4   9
HETATM    9  O   UNL     1     -11.005  14.178  68.232  1.00  0.00    -0.239 OA 
BRANCH   9  10
HETATM   10  C   UNL     1     -11.898  13.857  67.163  1.00  0.00    -0.412 C  
BRANCH  10  11
HETATM   11  C   UNL     1     -11.661  12.436  66.649  1.00  0.00    -0.447 C  
BRANCH  11  12
HETATM   12  C   UNL     1     -10.189  12.199  66.268  1.00  0.00    -0.249 C  
BRANCH  12  13
HETATM   13  C   UNL     1      -9.501  11.007  66.983  1.00  0.00    -0.191 C  
HETATM   14  C   UNL     1     -10.222   9.677  66.711  1.00  0.00    -0.308 C  
HETATM   15  C   UNL     1      -9.466  11.239  68.507  1.00  0.00    -0.191 C  
HETATM   16  C   UNL     1      -8.049  10.899  66.487  1.00  0.00    -0.154 C  
HETATM   17  O   UNL     1      -7.063  11.032  67.198  1.00  0.00    -0.091 OA 
HETATM   18  O   UNL     1      -7.923  10.641  65.165  1.00  0.00    -0.130 OA 
ENDBRANCH  12  13
ENDBRANCH  11  12
ENDBRANCH  10  11
ENDBRANCH   9  10
ENDBRANCH   4   9
TORSDOF 5
ENDMDL
MODEL      102
REMARK 921   NORMALIZED FREE ENERGY PREDICTED BY IDOCK:   -4.50 KCAL/MOL
REMARK 922        TOTAL FREE ENERGY PREDICTED BY IDOCK:   -6.29 KCAL/MOL
REMARK 923 INTER-LIGAND FREE ENERGY PREDICTED BY IDOCK:   -5.43 KCAL/MOL
REMARK 924 INTRA-LIGAND FREE ENERGY PREDICTED BY IDOCK:   -0.86 KCAL/MOL
REMARK 927      BINDING AFFINITY PREDICTED BY RF-SCORE:    0.00 PKD
ROOT
HETATM    1  C   UNL     1      -9.360  15.708  66.071  1.00  0.00    -0.384 C  
HETATM    2  C   UNL     1     -10.288  14.720  65.428  1.00  0.00    -0.410 A  
HETATM    3  C   UNL     1     -10.028  13.343  65.489  1.00  0.00    -0.226 A  
HETATM    4  C   UNL     1     -10.868  12.420  64.855  1.00  0.00    -0.297 A  
HETATM    5  C   UNL     1     -11.403  15.170  64.716  1.00  0.00    -0.399 A  
HETATM    6  C   UNL     1     -11.965  12.880  64.110  1.00  0.00    -0.491 A  
HETATM    7  C   UNL     1     -12.231  14.258  64.062  1.00  0.00    -0.336 A  
HETATM    8  C   UNL     1     -12.875  11.956  63.348  1.00  0.00    -0.393 C  
ENDROOT
BRANCH   4   9
HETATM    9  O   UNL     1     -10.632  11.071  64.843  1.00  0.00    -0.302 OA 
BRANCH   9  10
HETATM   10  C   UNL     1      -9.294  10.627  64.602  1.00  0.00    -0.238 C  
BRANCH  10  11
HETATM   11  C   UNL     1      -8.955   9.402  65.454  1.00  0.00    -0.251 C  
BRANCH  11  12
HETATM   12  C   UNL     1      -8.673   9.780  66.919  1.00  0.00    -0.143 C  
BRANCH  12  13
HETATM   13  C   UNL     1      -9.780   9.388  67.931  1.00  0.00    -0.177 C  
HETATM   14  C   UNL     1      -9.196   8.919  69.273  1.00  0.00    -0.145 C  
HETATM   15  C   UNL     1     -10.657   8.255  67.359  1.00  0.00    -0.324 C  
HETATM   16  C   UNL     1     -10.684  10.608  68.178  1.00  0.00    -0.225 C  
HETATM   17  O   UNL     1     -11.876  10.653  67.908  1.00  0.00    -0.485 OA 
HETATM   18  O   UNL     1     -10.056  11.671  68.732  1.00  0.00    -0.207 OA 
ENDBRANCH  12  13
ENDBRANCH  11  12
ENDBRANCH  10  11
ENDBRANCH   9  10
ENDBRANCH   4   9
TORSDOF 5
ENDMDL
MODEL      103
REMARK 921   NORMALIZED FREE ENERGY PREDICTED BY IDOCK:   -4.49 KCAL/MOL
REMARK 922        TOTAL FREE ENERGY PREDICTED BY IDOCK:   -6.29 KCAL/MOL
REMARK 923 INTER-LIGAND FREE ENERGY PREDICTED BY IDOCK:   -5.41 KCAL/MOL
REMARK 924 INTRA-LIGAND FREE ENERGY PREDICTED BY IDOCK:   -0.88 KCAL/MOL
REMARK 927      BINDING AFFINITY PREDICTED BY RF-SCORE:    0.00 PKD
ROOT
HETATM    1  C   UNL     1     -10.461  16.730  69.295  1.00  0.00    -0.331 C  
HETATM    2  C   UNL     1     -11.261  15.770  70.126  1.00  0.00    -0.357 A  
HETATM    3  C   UNL     1     -11.517  14.467  69.673  1.00  0.00    -0.332 A  
HETATM    4  C   UNL     1     -12.296  13.581  70.425  1.00  0.00    -0.327 A  
HETATM    5  C   UNL     1     -11.800  16.184  71.345  1.00  0.00    -0.490 A  
HETATM    6  C   UNL     1     -12.868  14.014  71.633  1.00  0.00    -0.433 A  
HETATM    7  C   UNL     1     -12.598  15.315  72.090  1.00  0.00    -0.428 A  
HETATM    8  C   UNL     1     -13.769  13.144  72.464  1.00  0.00    -0.563 C  
ENDROOT
BRANCH   4   9
HETATM    9  O   UNL     1     -12.617  12.317  70.006  1.00  0.00    -0.014 OA 
BRANCH   9  10
HETATM   10  C   UNL     1     -11.570  11.345  69.947  1.00  0.00    -0.323 C  
BRANCH  10  11
HETATM   11  C   UNL     1     -11.201  11.015  68.499  1.00  0.00    -0.329 C  
BRANCH  11  12
HETATM   12  C   UNL     1      -9.794  11.518  68.133  1.00  0.00    -0.197 C  
BRANCH  12  13
HETATM   13  C   UNL     1      -9.701  12.333  66.817  1.00  0.00    -0.219 C  
HETATM   14  C   UNL     1      -8.715  13.506  66.933  1.00  0.00    -0.158 C  
HETATM   15  C   UNL     1     -11.084  12.897  66.433  1.00  0.00    -0.316 C  
HETATM   16  C   UNL     1      -9.239  11.401  65.685  1.00  0.00    -0.193 C  
HETATM   17  O   UNL     1      -9.902  11.136  64.691  1.00  0.00    -0.244 OA 
HETATM   18  O   UNL     1      -8.008  10.868  65.860  1.00  0.00    -0.157 OA 
ENDBRANCH  12  13
ENDBRANCH  11  12
ENDBRANCH  10  11
ENDBRANCH   9  10
ENDBRANCH   4   9
TORSDOF 5
ENDMDL
MODEL      104
REMARK 921   NORMALIZED FREE ENERGY PREDICTED BY IDOCK:   -4.48 KCAL/MOL
REMARK 922        TOTAL FREE ENERGY PREDICTED BY IDOCK:   -6.28 KCAL/MOL
REMARK 923 INTER-LIGAND FREE ENERGY PREDICTED BY IDOCK:   -4.82 KCAL/MOL
REMARK 924 INTRA-LIGAND FREE ENERGY PREDICTED BY IDOCK:   -1.46 KCAL/MOL
REMARK 927      BINDING AFFINITY PREDICTED BY RF-SCORE:    0.00 PKD
ROOT
HETATM    1  C   UNL     1     -14.393   7.390  71.724  1.00  0.00    -0.586 C  
HETATM    2  C   UNL     1     -12.923   7.694  71.695  1.00  0.00    -0.385 A  
HETATM    3  C   UNL     1     -11.980   6.718  72.049  1.00  0.00    -0.355 A  
HETATM    4  C   UNL     1     -10.610   7.008  72.064  1.00  0.00    -0.211 A  
HETATM    5  C   UNL     1     -12.482   8.975  71.358  1.00  0.00    -0.378 A  
HETATM    6  C   UNL     1     -10.175   8.309  71.761  1.00  0.00    -0.297 A  
HETATM    7  C   UNL     1     -11.121   9.279  71.393  1.00  0.00    -0.437 A  
HETATM    8  C   UNL     1      -8.729   8.715  71.818  1.00  0.00    -0.266 C  
ENDROOT
BRANCH   4   9
HETATM    9  O   UNL     1      -9.653   6.108  72.448  1.00  0.00    -0.152 OA 
BRANCH   9  10
HETATM   10  C   UNL     1      -9.774   4.761  71.983  1.00  0.00    -0.162 C  
BRANCH  10  11
HETATM   11  C   UNL     1      -8.979   4.547  70.693  1.00  0.00    -0.155 C  
BRANCH  11  12
HETATM   12  C   UNL     1      -9.895   4.450  69.461  1.00  0.00    -0.258 C  
BRANCH  12  13
HETATM   13  C   UNL     1      -9.831   5.657  68.490  1.00  0.00    -0.185 C  
HETATM   14  C   UNL     1      -8.610   6.550  68.758  1.00  0.00    -0.121 C  
HETATM   15  C   UNL     1     -11.102   6.521  68.618  1.00  0.00    -0.348 C  
HETATM   16  C   UNL     1      -9.759   5.132  67.046  1.00  0.00    -0.159 C  
HETATM   17  O   UNL     1     -10.607   5.341  66.190  1.00  0.00    -0.257 OA 
HETATM   18  O   UNL     1      -8.658   4.395  66.768  1.00  0.00    -0.108 OA 
ENDBRANCH  12  13
ENDBRANCH  11  12
ENDBRANCH  10  11
ENDBRANCH   9  10
ENDBRANCH   4   9
TORSDOF 5
ENDMDL
MODEL      105
REMARK 921   NORMALIZED FREE ENERGY PREDICTED BY IDOCK:   -4.47 KCAL/MOL
REMARK 922        TOTAL FREE ENERGY PREDICTED BY IDOCK:   -6.25 KCAL/MOL
REMARK 923 INTER-LIGAND FREE ENERGY PREDICTED BY IDOCK:   -5.50 KCAL/MOL
REMARK 924 INTRA-LIGAND FREE ENERGY PREDICTED BY IDOCK:   -0.75 KCAL/MOL
REMARK 927      BINDING AFFINITY PREDICTED BY RF-SCORE:    0.00 PKD
ROOT
HETATM    1  C   UNL     1     -10.693   6.047  66.618  1.00  0.00    -0.315 C  
HETATM    2  C   UNL     1     -10.579   6.830  67.893  1.00  0.00    -0.296 A  
HETATM    3  C   UNL     1     -10.096   8.147  67.888  1.00  0.00    -0.246 A  
HETATM    4  C   UNL     1      -9.949   8.868  69.079  1.00  0.00    -0.190 A  
HETATM    5  C   UNL     1     -10.912   6.233  69.111  1.00  0.00    -0.442 A  
HETATM    6  C   UNL     1     -10.249   8.250  70.304  1.00  0.00    -0.199 A  
HETATM    7  C   UNL     1     -10.745   6.936  70.304  1.00  0.00    -0.274 A  
HETATM    8  C   UNL     1     -10.055   8.935  71.628  1.00  0.00    -0.411 C  
ENDROOT
BRANCH   4   9
HETATM    9  O   UNL     1      -9.436  10.136  69.133  1.00  0.00    -0.183 OA 
BRANCH   9  10
HETATM   10  C   UNL     1      -8.519  10.533  68.112  1.00  0.00    -0.123 C  
BRANCH  10  11
HETATM   11  C   UNL     1      -8.871  11.914  67.555  1.00  0.00    -0.169 C  
BRANCH  11  12
HETATM   12  C   UNL     1      -9.834  11.826  66.359  1.00  0.00    -0.237 C  
BRANCH  12  13
HETATM   13  C   UNL     1     -11.064  12.767  66.425  1.00  0.00    -0.320 C  
HETATM   14  C   UNL     1     -12.071  12.482  65.299  1.00  0.00    -0.500 C  
HETATM   15  C   UNL     1     -10.622  14.241  66.320  1.00  0.00    -0.291 C  
HETATM   16  C   UNL     1     -11.764  12.578  67.781  1.00  0.00    -0.359 C  
HETATM   17  O   UNL     1     -11.885  13.454  68.626  1.00  0.00    -0.329 OA 
HETATM   18  O   UNL     1     -12.256  11.336  67.994  1.00  0.00    -0.621 OA 
ENDBRANCH  12  13
ENDBRANCH  11  12
ENDBRANCH  10  11
ENDBRANCH   9  10
ENDBRANCH   4   9
TORSDOF 5
ENDMDL
MODEL      106
REMARK 921   NORMALIZED FREE ENERGY PREDICTED BY IDOCK:   -4.45 KCAL/MOL
REMARK 922        TOTAL FREE ENERGY PREDICTED BY IDOCK:   -6.23 KCAL/MOL
REMARK 923 INTER-LIGAND FREE ENERGY PREDICTED BY IDOCK:   -5.50 KCAL/MOL
REMARK 924 INTRA-LIGAND FREE ENERGY PREDICTED BY IDOCK:   -0.73 KCAL/MOL
REMARK 927      BINDING AFFINITY PREDICTED BY RF-SCORE:    0.00 PKD
ROOT
HETATM    1  C   UNL     1     -11.123  11.874  64.083  1.00  0.00    -0.441 C  
HETATM    2  C   UNL     1     -11.003  13.024  65.038  1.00  0.00    -0.320 A  
HETATM    3  C   UNL     1     -11.549  12.947  66.328  1.00  0.00    -0.424 A  
HETATM    4  C   UNL     1     -11.477  14.032  67.210  1.00  0.00    -0.348 A  
HETATM    5  C   UNL     1     -10.384  14.208  64.632  1.00  0.00    -0.296 A  
HETATM    6  C   UNL     1     -10.887  15.233  66.783  1.00  0.00    -0.312 A  
HETATM    7  C   UNL     1     -10.329  15.302  65.496  1.00  0.00    -0.408 A  
HETATM    8  C   UNL     1     -10.829  16.462  67.647  1.00  0.00    -0.280 C  
ENDROOT
BRANCH   4   9
HETATM    9  O   UNL     1     -12.035  14.026  68.460  1.00  0.00    -0.349 OA 
BRANCH   9  10
HETATM   10  C   UNL     1     -12.008  12.803  69.201  1.00  0.00    -0.246 C  
BRANCH  10  11
HETATM   11  C   UNL     1     -12.409  13.030  70.660  1.00  0.00    -0.391 C  
BRANCH  11  12
HETATM   12  C   UNL     1     -11.592  14.158  71.314  1.00  0.00     0.205 C  
BRANCH  12  13
HETATM   13  C   UNL     1     -12.406  15.406  71.740  1.00  0.00    -0.453 C  
HETATM   14  C   UNL     1     -13.856  15.350  71.234  1.00  0.00    -0.523 C  
HETATM   15  C   UNL     1     -11.750  16.691  71.195  1.00  0.00     0.263 C  
HETATM   16  C   UNL     1     -12.416  15.495  73.276  1.00  0.00    -0.482 C  
HETATM   17  O   UNL     1     -11.932  16.415  73.920  1.00  0.00    -0.380 OA 
HETATM   18  O   UNL     1     -13.014  14.452  73.897  1.00  0.00    -0.314 OA 
ENDBRANCH  12  13
ENDBRANCH  11  12
ENDBRANCH  10  11
ENDBRANCH   9  10
ENDBRANCH   4   9
TORSDOF 5
ENDMDL
MODEL      107
REMARK 921   NORMALIZED FREE ENERGY PREDICTED BY IDOCK:   -4.44 KCAL/MOL
REMARK 922        TOTAL FREE ENERGY PREDICTED BY IDOCK:   -6.22 KCAL/MOL
REMARK 923 INTER-LIGAND FREE ENERGY PREDICTED BY IDOCK:   -5.78 KCAL/MOL
REMARK 924 INTRA-LIGAND FREE ENERGY PREDICTED BY IDOCK:   -0.44 KCAL/MOL
REMARK 927      BINDING AFFINITY PREDICTED BY RF-SCORE:    0.00 PKD
ROOT
HETATM    1  C   UNL     1     -12.075  15.075  69.911  1.00  0.00    -0.376 C  
HETATM    2  C   UNL     1     -12.316  13.706  70.476  1.00  0.00    -0.425 A  
HETATM    3  C   UNL     1     -11.798  12.566  69.844  1.00  0.00    -0.373 A  
HETATM    4  C   UNL     1     -12.055  11.284  70.344  1.00  0.00    -0.384 A  
HETATM    5  C   UNL     1     -13.104  13.552  71.618  1.00  0.00    -0.459 A  
HETATM    6  C   UNL     1     -12.879  11.132  71.471  1.00  0.00    -0.542 A  
HETATM    7  C   UNL     1     -13.385  12.276  72.109  1.00  0.00    -0.473 A  
HETATM    8  C   UNL     1     -13.254   9.787  72.028  1.00  0.00    -0.557 C  
ENDROOT
BRANCH   4   9
HETATM    9  O   UNL     1     -11.615  10.137  69.739  1.00  0.00    -0.235 OA 
BRANCH   9  10
HETATM   10  C   UNL     1     -10.308   9.662  70.072  1.00  0.00    -0.257 C  
BRANCH  10  11
HETATM   11  C   UNL     1     -10.144   8.186  69.703  1.00  0.00    -0.199 C  
BRANCH  11  12
HETATM   12  C   UNL     1      -9.164   7.990  68.533  1.00  0.00    -0.135 C  
BRANCH  12  13
HETATM   13  C   UNL     1      -9.821   7.716  67.156  1.00  0.00    -0.265 C  
HETATM   14  C   UNL     1     -10.155   9.016  66.407  1.00  0.00    -0.351 C  
HETATM   15  C   UNL     1     -11.122   6.907  67.329  1.00  0.00    -0.355 C  
HETATM   16  C   UNL     1      -8.854   6.881  66.300  1.00  0.00    -0.148 C  
HETATM   17  O   UNL     1      -9.090   5.753  65.889  1.00  0.00    -0.159 OA 
HETATM   18  O   UNL     1      -7.680   7.491  66.018  1.00  0.00    -0.088 OA 
ENDBRANCH  12  13
ENDBRANCH  11  12
ENDBRANCH  10  11
ENDBRANCH   9  10
ENDBRANCH   4   9
TORSDOF 5
ENDMDL
MODEL      108
REMARK 921   NORMALIZED FREE ENERGY PREDICTED BY IDOCK:   -4.42 KCAL/MOL
REMARK 922        TOTAL FREE ENERGY PREDICTED BY IDOCK:   -6.19 KCAL/MOL
REMARK 923 INTER-LIGAND FREE ENERGY PREDICTED BY IDOCK:   -5.52 KCAL/MOL
REMARK 924 INTRA-LIGAND FREE ENERGY PREDICTED BY IDOCK:   -0.67 KCAL/MOL
REMARK 927      BINDING AFFINITY PREDICTED BY RF-SCORE:    0.00 PKD
ROOT
HETATM    1  C   UNL     1     -10.230  19.542  68.701  1.00  0.00    -0.481 C  
HETATM    2  C   UNL     1     -10.358  18.365  67.779  1.00  0.00    -0.428 A  
HETATM    3  C   UNL     1     -10.385  17.056  68.283  1.00  0.00    -0.347 A  
HETATM    4  C   UNL     1     -10.463  15.952  67.425  1.00  0.00    -0.306 A  
HETATM    5  C   UNL     1     -10.402  18.562  66.397  1.00  0.00    -0.456 A  
HETATM    6  C   UNL     1     -10.469  16.155  66.035  1.00  0.00    -0.349 A  
HETATM    7  C   UNL     1     -10.455  17.467  65.534  1.00  0.00    -0.112 A  
HETATM    8  C   UNL     1     -10.485  15.021  65.049  1.00  0.00    -0.415 C  
ENDROOT
BRANCH   4   9
HETATM    9  O   UNL     1     -10.443  14.655  67.862  1.00  0.00    -0.239 OA 
BRANCH   9  10
HETATM   10  C   UNL     1     -11.506  14.219  68.713  1.00  0.00    -0.296 C  
BRANCH  10  11
HETATM   11  C   UNL     1     -11.632  12.694  68.706  1.00  0.00    -0.355 C  
BRANCH  11  12
HETATM   12  C   UNL     1     -11.504  12.112  67.288  1.00  0.00    -0.413 C  
BRANCH  12  13
HETATM   13  C   UNL     1     -10.455  10.981  67.126  1.00  0.00    -0.274 C  
HETATM   14  C   UNL     1     -10.310  10.533  65.663  1.00  0.00    -0.274 C  
HETATM   15  C   UNL     1     -10.850   9.754  67.973  1.00  0.00    -0.276 C  
HETATM   16  C   UNL     1      -9.094  11.487  67.632  1.00  0.00    -0.168 C  
HETATM   17  O   UNL     1      -8.484  11.008  68.577  1.00  0.00    -0.139 OA 
HETATM   18  O   UNL     1      -8.592  12.538  66.942  1.00  0.00    -0.195 OA 
ENDBRANCH  12  13
ENDBRANCH  11  12
ENDBRANCH  10  11
ENDBRANCH   9  10
ENDBRANCH   4   9
TORSDOF 5
ENDMDL
MODEL      109
REMARK 921   NORMALIZED FREE ENERGY PREDICTED BY IDOCK:   -4.38 KCAL/MOL
REMARK 922        TOTAL FREE ENERGY PREDICTED BY IDOCK:   -6.14 KCAL/MOL
REMARK 923 INTER-LIGAND FREE ENERGY PREDICTED BY IDOCK:   -5.68 KCAL/MOL
REMARK 924 INTRA-LIGAND FREE ENERGY PREDICTED BY IDOCK:   -0.46 KCAL/MOL
REMARK 927      BINDING AFFINITY PREDICTED BY RF-SCORE:    0.00 PKD
ROOT
HETATM    1  C   UNL     1      -5.233  19.999  70.168  1.00  0.00    -0.256 C  
HETATM    2  C   UNL     1      -6.361  19.833  69.193  1.00  0.00    -0.349 A  
HETATM    3  C   UNL     1      -7.195  18.706  69.243  1.00  0.00    -0.153 A  
HETATM    4  C   UNL     1      -8.224  18.526  68.310  1.00  0.00    -0.314 A  
HETATM    5  C   UNL     1      -6.563  20.783  68.189  1.00  0.00    -0.302 A  
HETATM    6  C   UNL     1      -8.398  19.465  67.281  1.00  0.00    -0.324 A  
HETATM    7  C   UNL     1      -7.570  20.598  67.242  1.00  0.00    -0.381 A  
HETATM    8  C   UNL     1      -9.436  19.308  66.205  1.00  0.00    -0.387 C  
ENDROOT
BRANCH   4   9
HETATM    9  O   UNL     1      -9.033  17.422  68.286  1.00  0.00    -0.252 OA 
BRANCH   9  10
HETATM   10  C   UNL     1     -10.272  17.482  68.998  1.00  0.00    -0.314 C  
BRANCH  10  11
HETATM   11  C   UNL     1     -11.252  16.420  68.496  1.00  0.00    -0.334 C  
BRANCH  11  12
HETATM   12  C   UNL     1     -10.604  15.476  67.470  1.00  0.00    -0.297 C  
BRANCH  12  13
HETATM   13  C   UNL     1     -10.990  13.980  67.606  1.00  0.00    -0.281 C  
HETATM   14  C   UNL     1     -12.025  13.750  68.719  1.00  0.00    -0.400 C  
HETATM   15  C   UNL     1      -9.744  13.127  67.918  1.00  0.00    -0.221 C  
HETATM   16  C   UNL     1     -11.575  13.492  66.270  1.00  0.00    -0.345 C  
HETATM   17  O   UNL     1     -11.082  12.613  65.577  1.00  0.00    -0.281 OA 
HETATM   18  O   UNL     1     -12.713  14.119  65.890  1.00  0.00    -0.487 OA 
ENDBRANCH  12  13
ENDBRANCH  11  12
ENDBRANCH  10  11
ENDBRANCH   9  10
ENDBRANCH   4   9
TORSDOF 5
ENDMDL
MODEL      110
REMARK 921   NORMALIZED FREE ENERGY PREDICTED BY IDOCK:   -4.37 KCAL/MOL
REMARK 922        TOTAL FREE ENERGY PREDICTED BY IDOCK:   -6.13 KCAL/MOL
REMARK 923 INTER-LIGAND FREE ENERGY PREDICTED BY IDOCK:   -5.61 KCAL/MOL
REMARK 924 INTRA-LIGAND FREE ENERGY PREDICTED BY IDOCK:   -0.53 KCAL/MOL
REMARK 927      BINDING AFFINITY PREDICTED BY RF-SCORE:    0.00 PKD
ROOT
HETATM    1  C   UNL     1     -12.132  13.709  67.336  1.00  0.00    -0.375 C  
HETATM    2  C   UNL     1     -11.662  12.342  67.739  1.00  0.00    -0.413 A  
HETATM    3  C   UNL     1     -11.710  11.932  69.080  1.00  0.00    -0.380 A  
HETATM    4  C   UNL     1     -11.234  10.674  69.468  1.00  0.00    -0.272 A  
HETATM    5  C   UNL     1     -11.125  11.478  66.783  1.00  0.00    -0.361 A  
HETATM    6  C   UNL     1     -10.661   9.824  68.509  1.00  0.00    -0.252 A  
HETATM    7  C   UNL     1     -10.627  10.233  67.165  1.00  0.00    -0.320 A  
HETATM    8  C   UNL     1     -10.070   8.487  68.857  1.00  0.00    -0.213 C  
ENDROOT
BRANCH   4   9
HETATM    9  O   UNL     1     -11.213  10.245  70.768  1.00  0.00    -0.329 OA 
BRANCH   9  10
HETATM   10  C   UNL     1     -12.322   9.474  71.238  1.00  0.00    -0.345 C  
BRANCH  10  11
HETATM   11  C   UNL     1     -11.907   8.545  72.380  1.00  0.00    -0.437 C  
BRANCH  11  12
HETATM   12  C   UNL     1     -11.914   7.067  71.953  1.00  0.00    -0.355 C  
BRANCH  12  13
HETATM   13  C   UNL     1     -10.856   6.170  72.645  1.00  0.00    -0.279 C  
HETATM   14  C   UNL     1     -11.482   4.910  73.263  1.00  0.00    -0.359 C  
HETATM   15  C   UNL     1     -10.133   6.951  73.761  1.00  0.00    -0.373 C  
HETATM   16  C   UNL     1      -9.804   5.747  71.605  1.00  0.00    -0.167 C  
HETATM   17  O   UNL     1      -8.618   6.041  71.660  1.00  0.00    -0.130 OA 
HETATM   18  O   UNL     1     -10.288   5.002  70.585  1.00  0.00    -0.247 OA 
ENDBRANCH  12  13
ENDBRANCH  11  12
ENDBRANCH  10  11
ENDBRANCH   9  10
ENDBRANCH   4   9
TORSDOF 5
ENDMDL
MODEL      111
REMARK 921   NORMALIZED FREE ENERGY PREDICTED BY IDOCK:   -4.36 KCAL/MOL
REMARK 922        TOTAL FREE ENERGY PREDICTED BY IDOCK:   -6.12 KCAL/MOL
REMARK 923 INTER-LIGAND FREE ENERGY PREDICTED BY IDOCK:   -5.83 KCAL/MOL
REMARK 924 INTRA-LIGAND FREE ENERGY PREDICTED BY IDOCK:   -0.30 KCAL/MOL
REMARK 927      BINDING AFFINITY PREDICTED BY RF-SCORE:    0.00 PKD
ROOT
HETATM    1  C   UNL     1     -10.565   6.289  67.067  1.00  0.00    -0.386 C  
HETATM    2  C   UNL     1     -10.776   6.807  68.460  1.00  0.00    -0.280 A  
HETATM    3  C   UNL     1     -10.623   8.171  68.751  1.00  0.00    -0.149 A  
HETATM    4  C   UNL     1     -10.777   8.653  70.056  1.00  0.00    -0.228 A  
HETATM    5  C   UNL     1     -11.082   5.921  69.495  1.00  0.00    -0.403 A  
HETATM    6  C   UNL     1     -11.047   7.752  71.100  1.00  0.00    -0.269 A  
HETATM    7  C   UNL     1     -11.214   6.390  70.802  1.00  0.00    -0.386 A  
HETATM    8  C   UNL     1     -11.163   8.183  72.535  1.00  0.00    -0.459 C  
ENDROOT
BRANCH   4   9
HETATM    9  O   UNL     1     -10.591   9.964  70.402  1.00  0.00    -0.274 OA 
BRANCH   9  10
HETATM   10  C   UNL     1     -11.709  10.850  70.300  1.00  0.00    -0.347 C  
BRANCH  10  11
HETATM   11  C   UNL     1     -11.804  11.463  68.901  1.00  0.00    -0.413 C  
BRANCH  11  12
HETATM   12  C   UNL     1     -11.883  12.999  68.950  1.00  0.00    -0.358 C  
BRANCH  12  13
HETATM   13  C   UNL     1     -11.219  13.736  67.757  1.00  0.00    -0.312 C  
HETATM   14  C   UNL     1     -12.163  13.846  66.550  1.00  0.00    -0.482 C  
HETATM   15  C   UNL     1      -9.941  12.997  67.310  1.00  0.00    -0.232 C  
HETATM   16  C   UNL     1     -10.816  15.150  68.208  1.00  0.00    -0.262 C  
HETATM   17  O   UNL     1      -9.665  15.565  68.241  1.00  0.00    -0.199 OA 
HETATM   18  O   UNL     1     -11.849  15.939  68.582  1.00  0.00    -0.388 OA 
ENDBRANCH  12  13
ENDBRANCH  11  12
ENDBRANCH  10  11
ENDBRANCH   9  10
ENDBRANCH   4   9
TORSDOF 5
ENDMDL
MODEL      112
REMARK 921   NORMALIZED FREE ENERGY PREDICTED BY IDOCK:   -4.36 KCAL/MOL
REMARK 922        TOTAL FREE ENERGY PREDICTED BY IDOCK:   -6.12 KCAL/MOL
REMARK 923 INTER-LIGAND FREE ENERGY PREDICTED BY IDOCK:   -4.94 KCAL/MOL
REMARK 924 INTRA-LIGAND FREE ENERGY PREDICTED BY IDOCK:   -1.17 KCAL/MOL
REMARK 927      BINDING AFFINITY PREDICTED BY RF-SCORE:    0.00 PKD
ROOT
HETATM    1  C   UNL     1      -9.685  16.530  66.132  1.00  0.00    -0.344 C  
HETATM    2  C   UNL     1     -10.304  15.311  65.514  1.00  0.00    -0.408 A  
HETATM    3  C   UNL     1      -9.669  14.063  65.594  1.00  0.00    -0.181 A  
HETATM    4  C   UNL     1     -10.222  12.930  64.984  1.00  0.00    -0.269 A  
HETATM    5  C   UNL     1     -11.505  15.419  64.809  1.00  0.00    -0.337 A  
HETATM    6  C   UNL     1     -11.409  13.052  64.244  1.00  0.00    -0.419 A  
HETATM    7  C   UNL     1     -12.050  14.300  64.178  1.00  0.00    -0.423 A  
HETATM    8  C   UNL     1     -12.029  11.898  63.507  1.00  0.00    -0.567 C  
ENDROOT
BRANCH   4   9
HETATM    9  O   UNL     1      -9.618  11.701  64.989  1.00  0.00    -0.228 OA 
BRANCH   9  10
HETATM   10  C   UNL     1      -8.750  11.386  66.081  1.00  0.00    -0.153 C  
BRANCH  10  11
HETATM   11  C   UNL     1      -9.522  10.748  67.238  1.00  0.00    -0.177 C  
BRANCH  11  12
HETATM   12  C   UNL     1      -9.706  11.722  68.414  1.00  0.00    -0.197 C  
BRANCH  12  13
HETATM   13  C   UNL     1     -11.177  12.054  68.779  1.00  0.00    -0.316 C  
HETATM   14  C   UNL     1     -11.561  11.520  70.168  1.00  0.00    -0.336 C  
HETATM   15  C   UNL     1     -12.141  11.445  67.740  1.00  0.00     0.150 C  
HETATM   16  C   UNL     1     -11.363  13.580  68.760  1.00  0.00    -0.290 C  
HETATM   17  O   UNL     1     -12.117  14.177  68.003  1.00  0.00    -0.351 OA 
HETATM   18  O   UNL     1     -10.614  14.251  69.665  1.00  0.00    -0.098 OA 
ENDBRANCH  12  13
ENDBRANCH  11  12
ENDBRANCH  10  11
ENDBRANCH   9  10
ENDBRANCH   4   9
TORSDOF 5
ENDMDL
MODEL      113
REMARK 921   NORMALIZED FREE ENERGY PREDICTED BY IDOCK:   -4.36 KCAL/MOL
REMARK 922        TOTAL FREE ENERGY PREDICTED BY IDOCK:   -6.11 KCAL/MOL
REMARK 923 INTER-LIGAND FREE ENERGY PREDICTED BY IDOCK:   -5.51 KCAL/MOL
REMARK 924 INTRA-LIGAND FREE ENERGY PREDICTED BY IDOCK:   -0.61 KCAL/MOL
REMARK 927      BINDING AFFINITY PREDICTED BY RF-SCORE:    0.00 PKD
ROOT
HETATM    1  C   UNL     1     -10.766  19.821  66.018  1.00  0.00    -0.493 C  
HETATM    2  C   UNL     1     -10.246  18.589  66.699  1.00  0.00    -0.429 A  
HETATM    3  C   UNL     1     -10.430  17.321  66.128  1.00  0.00    -0.279 A  
HETATM    4  C   UNL     1      -9.983  16.164  66.779  1.00  0.00    -0.258 A  
HETATM    5  C   UNL     1      -9.612  18.691  67.939  1.00  0.00    -0.340 A  
HETATM    6  C   UNL     1      -9.380  16.270  68.043  1.00  0.00    -0.214 A  
HETATM    7  C   UNL     1      -9.186  17.542  68.605  1.00  0.00    -0.267 A  
HETATM    8  C   UNL     1      -8.933  15.071  68.832  1.00  0.00    -0.202 C  
ENDROOT
BRANCH   4   9
HETATM    9  O   UNL     1     -10.180  14.901  66.290  1.00  0.00    -0.272 OA 
BRANCH   9  10
HETATM   10  C   UNL     1     -11.526  14.461  66.091  1.00  0.00    -0.357 C  
BRANCH  10  11
HETATM   11  C   UNL     1     -11.667  12.963  66.369  1.00  0.00    -0.454 C  
BRANCH  11  12
HETATM   12  C   UNL     1     -10.323  12.319  66.751  1.00  0.00    -0.238 C  
BRANCH  12  13
HETATM   13  C   UNL     1     -10.381  11.309  67.926  1.00  0.00    -0.205 C  
HETATM   14  C   UNL     1      -9.077  11.296  68.741  1.00  0.00    -0.122 C  
HETATM   15  C   UNL     1     -10.640   9.883  67.401  1.00  0.00    -0.338 C  
HETATM   16  C   UNL     1     -11.546  11.691  68.855  1.00  0.00    -0.314 C  
HETATM   17  O   UNL     1     -12.518  10.982  69.074  1.00  0.00    -0.449 OA 
HETATM   18  O   UNL     1     -11.428  12.907  69.437  1.00  0.00    -0.273 OA 
ENDBRANCH  12  13
ENDBRANCH  11  12
ENDBRANCH  10  11
ENDBRANCH   9  10
ENDBRANCH   4   9
TORSDOF 5
ENDMDL
MODEL      114
REMARK 921   NORMALIZED FREE ENERGY PREDICTED BY IDOCK:   -4.36 KCAL/MOL
REMARK 922        TOTAL FREE ENERGY PREDICTED BY IDOCK:   -6.11 KCAL/MOL
REMARK 923 INTER-LIGAND FREE ENERGY PREDICTED BY IDOCK:   -5.17 KCAL/MOL
REMARK 924 INTRA-LIGAND FREE ENERGY PREDICTED BY IDOCK:   -0.94 KCAL/MOL
REMARK 927      BINDING AFFINITY PREDICTED BY RF-SCORE:    0.00 PKD
ROOT
HETATM    1  C   UNL     1     -12.903  14.738  73.211  1.00  0.00    -0.621 C  
HETATM    2  C   UNL     1     -12.665  14.302  71.795  1.00  0.00    -0.428 A  
HETATM    3  C   UNL     1     -12.650  12.942  71.454  1.00  0.00    -0.319 A  
HETATM    4  C   UNL     1     -12.388  12.528  70.142  1.00  0.00    -0.138 A  
HETATM    5  C   UNL     1     -12.407  15.254  70.806  1.00  0.00    -0.433 A  
HETATM    6  C   UNL     1     -12.093  13.488  69.160  1.00  0.00    -0.331 A  
HETATM    7  C   UNL     1     -12.122  14.849  69.502  1.00  0.00    -0.315 A  
HETATM    8  C   UNL     1     -11.737  13.120  67.746  1.00  0.00    -0.401 C  
ENDROOT
BRANCH   4   9
HETATM    9  O   UNL     1     -12.314  11.214  69.767  1.00  0.00    -0.303 OA 
BRANCH   9  10
HETATM   10  C   UNL     1     -11.725  10.288  70.683  1.00  0.00    -0.348 C  
BRANCH  10  11
HETATM   11  C   UNL     1     -10.859   9.259  69.952  1.00  0.00    -0.252 C  
BRANCH  11  12
HETATM   12  C   UNL     1     -10.741   9.568  68.450  1.00  0.00    -0.230 C  
BRANCH  12  13
HETATM   13  C   UNL     1      -9.306   9.868  67.944  1.00  0.00    -0.149 C  
HETATM   14  C   UNL     1      -8.333   8.721  68.258  1.00  0.00    -0.126 C  
HETATM   15  C   UNL     1      -8.764  11.158  68.592  1.00  0.00    -0.153 C  
HETATM   16  C   UNL     1      -9.350  10.084  66.422  1.00  0.00    -0.168 C  
HETATM   17  O   UNL     1      -9.048  11.128  65.861  1.00  0.00    -0.195 OA 
HETATM   18  O   UNL     1      -9.760   9.008  65.711  1.00  0.00    -0.265 OA 
ENDBRANCH  12  13
ENDBRANCH  11  12
ENDBRANCH  10  11
ENDBRANCH   9  10
ENDBRANCH   4   9
TORSDOF 5
ENDMDL
MODEL      115
REMARK 921   NORMALIZED FREE ENERGY PREDICTED BY IDOCK:   -4.34 KCAL/MOL
REMARK 922        TOTAL FREE ENERGY PREDICTED BY IDOCK:   -6.09 KCAL/MOL
REMARK 923 INTER-LIGAND FREE ENERGY PREDICTED BY IDOCK:   -5.23 KCAL/MOL
REMARK 924 INTRA-LIGAND FREE ENERGY PREDICTED BY IDOCK:   -0.86 KCAL/MOL
REMARK 927      BINDING AFFINITY PREDICTED BY RF-SCORE:    0.00 PKD
ROOT
HETATM    1  C   UNL     1     -10.366  15.774  67.002  1.00  0.00    -0.292 C  
HETATM    2  C   UNL     1     -10.999  14.771  66.083  1.00  0.00    -0.332 A  
HETATM    3  C   UNL     1     -10.954  13.400  66.376  1.00  0.00    -0.297 A  
HETATM    4  C   UNL     1     -11.507  12.456  65.501  1.00  0.00    -0.361 A  
HETATM    5  C   UNL     1     -11.599  15.193  64.896  1.00  0.00    -0.336 A  
HETATM    6  C   UNL     1     -12.076  12.883  64.291  1.00  0.00    -0.487 A  
HETATM    7  C   UNL     1     -12.130  14.258  64.007  1.00  0.00    -0.350 A  
HETATM    8  C   UNL     1     -12.630  11.928  63.271  1.00  0.00    -0.473 C  
ENDROOT
BRANCH   4   9
HETATM    9  O   UNL     1     -11.447  11.105  65.716  1.00  0.00    -0.011 OA 
BRANCH   9  10
HETATM   10  C   UNL     1     -10.223  10.431  65.412  1.00  0.00    -0.259 C  
BRANCH  10  11
HETATM   11  C   UNL     1      -9.655   9.730  66.648  1.00  0.00    -0.239 C  
BRANCH  11  12
HETATM   12  C   UNL     1     -10.716   9.545  67.745  1.00  0.00    -0.302 C  
BRANCH  12  13
HETATM   13  C   UNL     1     -10.482  10.364  69.041  1.00  0.00    -0.240 C  
HETATM   14  C   UNL     1     -11.649  11.317  69.341  1.00  0.00    -0.390 C  
HETATM   15  C   UNL     1      -9.190  11.198  68.926  1.00  0.00    -0.106 C  
HETATM   16  C   UNL     1     -10.314   9.392  70.221  1.00  0.00    -0.245 C  
HETATM   17  O   UNL     1      -9.300   9.290  70.896  1.00  0.00    -0.251 OA 
HETATM   18  O   UNL     1     -11.399   8.624  70.478  1.00  0.00    -0.259 OA 
ENDBRANCH  12  13
ENDBRANCH  11  12
ENDBRANCH  10  11
ENDBRANCH   9  10
ENDBRANCH   4   9
TORSDOF 5
ENDMDL
MODEL      116
REMARK 921   NORMALIZED FREE ENERGY PREDICTED BY IDOCK:   -4.34 KCAL/MOL
REMARK 922        TOTAL FREE ENERGY PREDICTED BY IDOCK:   -6.09 KCAL/MOL
REMARK 923 INTER-LIGAND FREE ENERGY PREDICTED BY IDOCK:   -5.55 KCAL/MOL
REMARK 924 INTRA-LIGAND FREE ENERGY PREDICTED BY IDOCK:   -0.54 KCAL/MOL
REMARK 927      BINDING AFFINITY PREDICTED BY RF-SCORE:    0.00 PKD
ROOT
HETATM    1  C   UNL     1      -8.193   7.638  72.157  1.00  0.00    -0.127 C  
HETATM    2  C   UNL     1      -9.285   8.409  71.476  1.00  0.00    -0.257 A  
HETATM    3  C   UNL     1      -9.050   9.068  70.260  1.00  0.00    -0.227 A  
HETATM    4  C   UNL     1     -10.053   9.824  69.642  1.00  0.00    -0.229 A  
HETATM    5  C   UNL     1     -10.541   8.517  72.076  1.00  0.00    -0.408 A  
HETATM    6  C   UNL     1     -11.303   9.960  70.268  1.00  0.00    -0.357 A  
HETATM    7  C   UNL     1     -11.539   9.287  71.478  1.00  0.00    -0.452 A  
HETATM    8  C   UNL     1     -12.408  10.805  69.700  1.00  0.00    -0.262 C  
ENDROOT
BRANCH   4   9
HETATM    9  O   UNL     1      -9.862  10.525  68.482  1.00  0.00    -0.156 OA 
BRANCH   9  10
HETATM   10  C   UNL     1      -8.999  11.665  68.523  1.00  0.00    -0.138 C  
BRANCH  10  11
HETATM   11  C   UNL     1      -8.832  12.284  67.133  1.00  0.00    -0.194 C  
BRANCH  11  12
HETATM   12  C   UNL     1      -9.779  13.476  66.916  1.00  0.00    -0.261 C  
BRANCH  12  13
HETATM   13  C   UNL     1     -10.576  13.457  65.586  1.00  0.00    -0.286 C  
HETATM   14  C   UNL     1     -10.114  12.327  64.652  1.00  0.00    -0.275 C  
HETATM   15  C   UNL     1     -10.416  14.799  64.842  1.00  0.00    -0.398 C  
HETATM   16  C   UNL     1     -12.069  13.266  65.902  1.00  0.00    -0.441 C  
HETATM   17  O   UNL     1     -12.943  14.081  65.640  1.00  0.00    -0.608 OA 
HETATM   18  O   UNL     1     -12.371  12.097  66.513  1.00  0.00    -0.474 OA 
ENDBRANCH  12  13
ENDBRANCH  11  12
ENDBRANCH  10  11
ENDBRANCH   9  10
ENDBRANCH   4   9
TORSDOF 5
ENDMDL
MODEL      117
REMARK 921   NORMALIZED FREE ENERGY PREDICTED BY IDOCK:   -4.32 KCAL/MOL
REMARK 922        TOTAL FREE ENERGY PREDICTED BY IDOCK:   -6.07 KCAL/MOL
REMARK 923 INTER-LIGAND FREE ENERGY PREDICTED BY IDOCK:   -5.56 KCAL/MOL
REMARK 924 INTRA-LIGAND FREE ENERGY PREDICTED BY IDOCK:   -0.51 KCAL/MOL
REMARK 927      BINDING AFFINITY PREDICTED BY RF-SCORE:    0.00 PKD
ROOT
HETATM    1  C   UNL     1      -8.719   9.940  69.209  1.00  0.00    -0.172 C  
HETATM    2  C   UNL     1      -9.604  10.937  68.521  1.00  0.00    -0.187 A  
HETATM    3  C   UNL     1      -9.153  12.239  68.259  1.00  0.00    -0.187 A  
HETATM    4  C   UNL     1      -9.989  13.185  67.654  1.00  0.00    -0.219 A  
HETATM    5  C   UNL     1     -10.911  10.588  68.175  1.00  0.00    -0.330 A  
HETATM    6  C   UNL     1     -11.315  12.840  67.343  1.00  0.00    -0.363 A  
HETATM    7  C   UNL     1     -11.758  11.532  67.594  1.00  0.00    -0.283 A  
HETATM    8  C   UNL     1     -12.292  13.818  66.754  1.00  0.00    -0.365 C  
ENDROOT
BRANCH   4   9
HETATM    9  O   UNL     1      -9.615  14.482  67.421  1.00  0.00    -0.206 OA 
BRANCH   9  10
HETATM   10  C   UNL     1      -8.990  15.200  68.487  1.00  0.00    -0.186 C  
BRANCH  10  11
HETATM   11  C   UNL     1      -9.584  16.603  68.634  1.00  0.00    -0.248 C  
BRANCH  11  12
HETATM   12  C   UNL     1      -8.496  17.689  68.680  1.00  0.00    -0.266 C  
BRANCH  12  13
HETATM   13  C   UNL     1      -8.826  18.994  67.912  1.00  0.00    -0.335 C  
HETATM   14  C   UNL     1      -7.656  19.990  67.935  1.00  0.00    -0.325 C  
HETATM   15  C   UNL     1     -10.063  19.682  68.524  1.00  0.00    -0.557 C  
HETATM   16  C   UNL     1      -9.155  18.642  66.451  1.00  0.00    -0.284 C  
HETATM   17  O   UNL     1     -10.237  18.842  65.917  1.00  0.00    -0.519 OA 
HETATM   18  O   UNL     1      -8.136  18.074  65.765  1.00  0.00    -0.525 OA 
ENDBRANCH  12  13
ENDBRANCH  11  12
ENDBRANCH  10  11
ENDBRANCH   9  10
ENDBRANCH   4   9
TORSDOF 5
ENDMDL
MODEL      118
REMARK 921   NORMALIZED FREE ENERGY PREDICTED BY IDOCK:   -4.26 KCAL/MOL
REMARK 922        TOTAL FREE ENERGY PREDICTED BY IDOCK:   -5.98 KCAL/MOL
REMARK 923 INTER-LIGAND FREE ENERGY PREDICTED BY IDOCK:   -5.48 KCAL/MOL
REMARK 924 INTRA-LIGAND FREE ENERGY PREDICTED BY IDOCK:   -0.51 KCAL/MOL
REMARK 927      BINDING AFFINITY PREDICTED BY RF-SCORE:    0.00 PKD
ROOT
HETATM    1  C   UNL     1     -12.336  13.779  66.974  1.00  0.00    -0.289 C  
HETATM    2  C   UNL     1     -11.670  12.929  65.932  1.00  0.00    -0.449 A  
HETATM    3  C   UNL     1     -10.727  11.955  66.293  1.00  0.00    -0.309 A  
HETATM    4  C   UNL     1     -10.073  11.188  65.322  1.00  0.00    -0.276 A  
HETATM    5  C   UNL     1     -11.951  13.135  64.580  1.00  0.00    -0.442 A  
HETATM    6  C   UNL     1     -10.331  11.426  63.962  1.00  0.00    -0.418 A  
HETATM    7  C   UNL     1     -11.286  12.392  63.605  1.00  0.00    -0.544 A  
HETATM    8  C   UNL     1      -9.622  10.690  62.860  1.00  0.00    -0.358 C  
ENDROOT
BRANCH   4   9
HETATM    9  O   UNL     1      -9.110  10.261  65.617  1.00  0.00    -0.159 OA 
BRANCH   9  10
HETATM   10  C   UNL     1      -9.537   8.959  66.027  1.00  0.00    -0.250 C  
BRANCH  10  11
HETATM   11  C   UNL     1      -9.356   8.765  67.534  1.00  0.00    -0.161 C  
BRANCH  11  12
HETATM   12  C   UNL     1     -10.674   8.381  68.227  1.00  0.00    -0.084 C  
BRANCH  12  13
HETATM   13  C   UNL     1     -10.522   7.641  69.582  1.00  0.00    -0.235 C  
HETATM   14  C   UNL     1      -9.047   7.428  69.960  1.00  0.00    -0.148 C  
HETATM   15  C   UNL     1     -11.213   6.264  69.526  1.00  0.00    -0.500 C  
HETATM   16  C   UNL     1     -11.205   8.470  70.682  1.00  0.00    -0.252 C  
HETATM   17  O   UNL     1     -12.162   8.090  71.343  1.00  0.00    -0.302 OA 
HETATM   18  O   UNL     1     -10.666   9.694  70.884  1.00  0.00    -0.302 OA 
ENDBRANCH  12  13
ENDBRANCH  11  12
ENDBRANCH  10  11
ENDBRANCH   9  10
ENDBRANCH   4   9
TORSDOF 5
ENDMDL
MODEL      119
REMARK 921   NORMALIZED FREE ENERGY PREDICTED BY IDOCK:   -4.24 KCAL/MOL
REMARK 922        TOTAL FREE ENERGY PREDICTED BY IDOCK:   -5.97 KCAL/MOL
REMARK 923 INTER-LIGAND FREE ENERGY PREDICTED BY IDOCK:   -5.46 KCAL/MOL
REMARK 924 INTRA-LIGAND FREE ENERGY PREDICTED BY IDOCK:   -0.51 KCAL/MOL
REMARK 927      BINDING AFFINITY PREDICTED BY RF-SCORE:    0.00 PKD
ROOT
HETATM    1  C   UNL     1      -8.044  15.231  68.221  1.00  0.00    -0.137 C  
HETATM    2  C   UNL     1      -9.211  14.692  67.447  1.00  0.00    -0.201 A  
HETATM    3  C   UNL     1     -10.080  13.751  68.019  1.00  0.00    -0.245 A  
HETATM    4  C   UNL     1     -11.146  13.214  67.288  1.00  0.00    -0.279 A  
HETATM    5  C   UNL     1      -9.415  15.089  66.124  1.00  0.00    -0.347 A  
HETATM    6  C   UNL     1     -11.325  13.589  65.946  1.00  0.00    -0.321 A  
HETATM    7  C   UNL     1     -10.461  14.541  65.381  1.00  0.00    -0.399 A  
HETATM    8  C   UNL     1     -12.404  13.008  65.077  1.00  0.00    -0.526 C  
ENDROOT
BRANCH   4   9
HETATM    9  O   UNL     1     -11.993  12.258  67.782  1.00  0.00    -0.474 OA 
BRANCH   9  10
HETATM   10  C   UNL     1     -11.430  11.007  68.186  1.00  0.00    -0.302 C  
BRANCH  10  11
HETATM   11  C   UNL     1     -11.566  10.800  69.696  1.00  0.00    -0.388 C  
BRANCH  11  12
HETATM   12  C   UNL     1     -10.414   9.954  70.267  1.00  0.00    -0.348 C  
BRANCH  12  13
HETATM   13  C   UNL     1     -10.847   8.705  71.078  1.00  0.00    -0.302 C  
HETATM   14  C   UNL     1     -12.352   8.709  71.385  1.00  0.00    -0.344 C  
HETATM   15  C   UNL     1     -10.078   8.637  72.414  1.00  0.00    -0.321 C  
HETATM   16  C   UNL     1     -10.504   7.443  70.270  1.00  0.00    -0.221 C  
HETATM   17  O   UNL     1      -9.715   6.581  70.632  1.00  0.00    -0.178 OA 
HETATM   18  O   UNL     1     -11.151   7.338  69.086  1.00  0.00    -0.125 OA 
ENDBRANCH  12  13
ENDBRANCH  11  12
ENDBRANCH  10  11
ENDBRANCH   9  10
ENDBRANCH   4   9
TORSDOF 5
ENDMDL
MODEL      120
REMARK 921   NORMALIZED FREE ENERGY PREDICTED BY IDOCK:   -4.20 KCAL/MOL
REMARK 922        TOTAL FREE ENERGY PREDICTED BY IDOCK:   -5.91 KCAL/MOL
REMARK 923 INTER-LIGAND FREE ENERGY PREDICTED BY IDOCK:   -5.48 KCAL/MOL
REMARK 924 INTRA-LIGAND FREE ENERGY PREDICTED BY IDOCK:   -0.43 KCAL/MOL
REMARK 927      BINDING AFFINITY PREDICTED BY RF-SCORE:    0.00 PKD
ROOT
HETATM    1  C   UNL     1     -12.369  11.862  63.522  1.00  0.00    -0.603 C  
HETATM    2  C   UNL     1     -11.913  12.451  64.825  1.00  0.00    -0.462 A  
HETATM    3  C   UNL     1     -10.823  11.903  65.518  1.00  0.00    -0.343 A  
HETATM    4  C   UNL     1     -10.418  12.422  66.754  1.00  0.00    -0.221 A  
HETATM    5  C   UNL     1     -12.604  13.527  65.385  1.00  0.00    -0.531 A  
HETATM    6  C   UNL     1     -11.140  13.480  67.331  1.00  0.00    -0.300 A  
HETATM    7  C   UNL     1     -12.222  14.034  66.628  1.00  0.00    -0.463 A  
HETATM    8  C   UNL     1     -10.808  14.048  68.682  1.00  0.00    -0.272 C  
ENDROOT
BRANCH   4   9
HETATM    9  O   UNL     1      -9.394  11.895  67.494  1.00  0.00    -0.171 OA 
BRANCH   9  10
HETATM   10  C   UNL     1      -9.718  10.920  68.488  1.00  0.00    -0.183 C  
BRANCH  10  11
HETATM   11  C   UNL     1      -9.411   9.503  67.998  1.00  0.00    -0.143 C  
BRANCH  11  12
HETATM   12  C   UNL     1     -10.601   8.551  68.203  1.00  0.00    -0.181 C  
BRANCH  12  13
HETATM   13  C   UNL     1     -10.426   7.503  69.333  1.00  0.00    -0.222 C  
HETATM   14  C   UNL     1      -8.995   7.494  69.895  1.00  0.00    -0.141 C  
HETATM   15  C   UNL     1     -10.752   6.089  68.812  1.00  0.00    -0.375 C  
HETATM   16  C   UNL     1     -11.408   7.827  70.471  1.00  0.00    -0.241 C  
HETATM   17  O   UNL     1     -12.312   7.089  70.837  1.00  0.00    -0.369 OA 
HETATM   18  O   UNL     1     -11.207   9.026  71.065  1.00  0.00    -0.257 OA 
ENDBRANCH  12  13
ENDBRANCH  11  12
ENDBRANCH  10  11
ENDBRANCH   9  10
ENDBRANCH   4   9
TORSDOF 5
ENDMDL
MODEL      121
REMARK 921   NORMALIZED FREE ENERGY PREDICTED BY IDOCK:   -4.19 KCAL/MOL
REMARK 922        TOTAL FREE ENERGY PREDICTED BY IDOCK:   -5.89 KCAL/MOL
REMARK 923 INTER-LIGAND FREE ENERGY PREDICTED BY IDOCK:   -5.34 KCAL/MOL
REMARK 924 INTRA-LIGAND FREE ENERGY PREDICTED BY IDOCK:   -0.55 KCAL/MOL
REMARK 927      BINDING AFFINITY PREDICTED BY RF-SCORE:    0.00 PKD
ROOT
HETATM    1  C   UNL     1     -10.454   6.049  67.136  1.00  0.00    -0.327 C  
HETATM    2  C   UNL     1     -10.705   6.673  68.478  1.00  0.00    -0.308 A  
HETATM    3  C   UNL     1     -10.571   8.057  68.663  1.00  0.00    -0.143 A  
HETATM    4  C   UNL     1     -10.763   8.640  69.922  1.00  0.00    -0.225 A  
HETATM    5  C   UNL     1     -11.029   5.869  69.572  1.00  0.00    -0.438 A  
HETATM    6  C   UNL     1     -11.053   7.822  71.026  1.00  0.00    -0.273 A  
HETATM    7  C   UNL     1     -11.199   6.439  70.834  1.00  0.00    -0.384 A  
HETATM    8  C   UNL     1     -11.208   8.364  72.419  1.00  0.00    -0.438 C  
ENDROOT
BRANCH   4   9
HETATM    9  O   UNL     1     -10.597   9.976  70.166  1.00  0.00    -0.264 OA 
BRANCH   9  10
HETATM   10  C   UNL     1     -11.680  10.855  69.851  1.00  0.00    -0.339 C  
BRANCH  10  11
HETATM   11  C   UNL     1     -11.183  12.110  69.130  1.00  0.00    -0.303 C  
BRANCH  11  12
HETATM   12  C   UNL     1     -10.117  11.783  68.071  1.00  0.00    -0.198 C  
BRANCH  12  13
HETATM   13  C   UNL     1     -10.352  12.413  66.674  1.00  0.00    -0.245 C  
HETATM   14  C   UNL     1      -9.612  13.750  66.511  1.00  0.00    -0.295 C  
HETATM   15  C   UNL     1     -11.857  12.658  66.439  1.00  0.00    -0.466 C  
HETATM   16  C   UNL     1      -9.858  11.434  65.595  1.00  0.00    -0.235 C  
HETATM   17  O   UNL     1     -10.573  10.919  64.747  1.00  0.00    -0.315 OA 
HETATM   18  O   UNL     1      -8.533  11.163  65.644  1.00  0.00    -0.145 OA 
ENDBRANCH  12  13
ENDBRANCH  11  12
ENDBRANCH  10  11
ENDBRANCH   9  10
ENDBRANCH   4   9
TORSDOF 5
ENDMDL
MODEL      122
REMARK 921   NORMALIZED FREE ENERGY PREDICTED BY IDOCK:   -4.18 KCAL/MOL
REMARK 922        TOTAL FREE ENERGY PREDICTED BY IDOCK:   -5.88 KCAL/MOL
REMARK 923 INTER-LIGAND FREE ENERGY PREDICTED BY IDOCK:   -5.32 KCAL/MOL
REMARK 924 INTRA-LIGAND FREE ENERGY PREDICTED BY IDOCK:   -0.56 KCAL/MOL
REMARK 927      BINDING AFFINITY PREDICTED BY RF-SCORE:    0.00 PKD
ROOT
HETATM    1  C   UNL     1      -8.749  15.433  67.412  1.00  0.00    -0.194 C  
HETATM    2  C   UNL     1      -9.766  14.635  66.651  1.00  0.00    -0.283 A  
HETATM    3  C   UNL     1     -10.349  13.490  67.214  1.00  0.00    -0.241 A  
HETATM    4  C   UNL     1     -11.269  12.718  66.493  1.00  0.00    -0.307 A  
HETATM    5  C   UNL     1     -10.109  15.002  65.348  1.00  0.00    -0.396 A  
HETATM    6  C   UNL     1     -11.581  13.070  65.170  1.00  0.00    -0.357 A  
HETATM    7  C   UNL     1     -11.006  14.225  64.614  1.00  0.00    -0.379 A  
HETATM    8  C   UNL     1     -12.507  12.257  64.310  1.00  0.00    -0.508 C  
ENDROOT
BRANCH   4   9
HETATM    9  O   UNL     1     -11.828  11.566  66.977  1.00  0.00    -0.568 OA 
BRANCH   9  10
HETATM   10  C   UNL     1     -11.039  10.751  67.846  1.00  0.00    -0.308 C  
BRANCH  10  11
HETATM   11  C   UNL     1     -10.196   9.749  67.053  1.00  0.00    -0.292 C  
BRANCH  11  12
HETATM   12  C   UNL     1     -10.715   8.310  67.208  1.00  0.00    -0.241 C  
BRANCH  12  13
HETATM   13  C   UNL     1      -9.914   7.417  68.191  1.00  0.00    -0.190 C  
HETATM   14  C   UNL     1      -8.686   8.145  68.762  1.00  0.00    -0.138 C  
HETATM   15  C   UNL     1      -9.433   6.133  67.485  1.00  0.00    -0.114 C  
HETATM   16  C   UNL     1     -10.834   7.004  69.352  1.00  0.00    -0.227 C  
HETATM   17  O   UNL     1     -11.149   5.850  69.609  1.00  0.00    -0.378 OA 
HETATM   18  O   UNL     1     -11.294   8.032  70.101  1.00  0.00    -0.204 OA 
ENDBRANCH  12  13
ENDBRANCH  11  12
ENDBRANCH  10  11
ENDBRANCH   9  10
ENDBRANCH   4   9
TORSDOF 5
ENDMDL
MODEL      123
REMARK 921   NORMALIZED FREE ENERGY PREDICTED BY IDOCK:   -4.16 KCAL/MOL
REMARK 922        TOTAL FREE ENERGY PREDICTED BY IDOCK:   -5.86 KCAL/MOL
REMARK 923 INTER-LIGAND FREE ENERGY PREDICTED BY IDOCK:   -5.03 KCAL/MOL
REMARK 924 INTRA-LIGAND FREE ENERGY PREDICTED BY IDOCK:   -0.83 KCAL/MOL
REMARK 927      BINDING AFFINITY PREDICTED BY RF-SCORE:    0.00 PKD
ROOT
HETATM    1  C   UNL     1     -13.038  14.840  72.840  1.00  0.00    -0.596 C  
HETATM    2  C   UNL     1     -12.684  13.806  71.812  1.00  0.00    -0.373 A  
HETATM    3  C   UNL     1     -12.926  12.445  72.047  1.00  0.00    -0.376 A  
HETATM    4  C   UNL     1     -12.560  11.473  71.107  1.00  0.00    -0.359 A  
HETATM    5  C   UNL     1     -12.062  14.190  70.622  1.00  0.00    -0.421 A  
HETATM    6  C   UNL     1     -11.901  11.861  69.930  1.00  0.00    -0.418 A  
HETATM    7  C   UNL     1     -11.672  13.226  69.692  1.00  0.00    -0.369 A  
HETATM    8  C   UNL     1     -11.419  10.873  68.905  1.00  0.00    -0.369 C  
ENDROOT
BRANCH   4   9
HETATM    9  O   UNL     1     -12.730  10.129  71.309  1.00  0.00    -0.340 OA 
BRANCH   9  10
HETATM   10  C   UNL     1     -12.722   9.647  72.655  1.00  0.00     0.146 C  
BRANCH  10  11
HETATM   11  C   UNL     1     -11.729   8.496  72.826  1.00  0.00    -0.150 C  
BRANCH  11  12
HETATM   12  C   UNL     1     -11.358   7.850  71.480  1.00  0.00    -0.293 C  
BRANCH  12  13
HETATM   13  C   UNL     1      -9.862   7.474  71.313  1.00  0.00    -0.188 C  
HETATM   14  C   UNL     1      -9.499   7.186  69.848  1.00  0.00    -0.153 C  
HETATM   15  C   UNL     1      -9.523   6.226  72.153  1.00  0.00    -0.155 C  
HETATM   16  C   UNL     1      -8.996   8.638  71.823  1.00  0.00    -0.237 C  
HETATM   17  O   UNL     1      -8.221   8.564  72.767  1.00  0.00    -0.332 OA 
HETATM   18  O   UNL     1      -9.150   9.797  71.140  1.00  0.00    -0.046 OA 
ENDBRANCH  12  13
ENDBRANCH  11  12
ENDBRANCH  10  11
ENDBRANCH   9  10
ENDBRANCH   4   9
TORSDOF 5
ENDMDL
MODEL      124
REMARK 921   NORMALIZED FREE ENERGY PREDICTED BY IDOCK:   -4.16 KCAL/MOL
REMARK 922        TOTAL FREE ENERGY PREDICTED BY IDOCK:   -5.85 KCAL/MOL
REMARK 923 INTER-LIGAND FREE ENERGY PREDICTED BY IDOCK:   -5.36 KCAL/MOL
REMARK 924 INTRA-LIGAND FREE ENERGY PREDICTED BY IDOCK:   -0.49 KCAL/MOL
REMARK 927      BINDING AFFINITY PREDICTED BY RF-SCORE:    0.00 PKD
ROOT
HETATM    1  C   UNL     1     -11.278   4.610  73.442  1.00  0.00    -0.423 C  
HETATM    2  C   UNL     1     -10.773   5.447  72.304  1.00  0.00    -0.287 A  
HETATM    3  C   UNL     1     -11.439   6.623  71.925  1.00  0.00    -0.332 A  
HETATM    4  C   UNL     1     -10.995   7.386  70.839  1.00  0.00    -0.253 A  
HETATM    5  C   UNL     1      -9.654   5.036  71.577  1.00  0.00    -0.213 A  
HETATM    6  C   UNL     1      -9.892   6.947  70.088  1.00  0.00    -0.185 A  
HETATM    7  C   UNL     1      -9.220   5.778  70.479  1.00  0.00    -0.168 A  
HETATM    8  C   UNL     1      -9.397   7.676  68.870  1.00  0.00    -0.145 C  
ENDROOT
BRANCH   4   9
HETATM    9  O   UNL     1     -11.637   8.512  70.398  1.00  0.00    -0.204 OA 
BRANCH   9  10
HETATM   10  C   UNL     1     -11.400   9.736  71.098  1.00  0.00    -0.389 C  
BRANCH  10  11
HETATM   11  C   UNL     1     -11.718  10.948  70.220  1.00  0.00    -0.437 C  
BRANCH  11  12
HETATM   12  C   UNL     1     -10.993  10.885  68.865  1.00  0.00    -0.278 C  
BRANCH  12  13
HETATM   13  C   UNL     1     -10.931  12.221  68.082  1.00  0.00    -0.269 C  
HETATM   14  C   UNL     1      -9.526  12.843  68.110  1.00  0.00    -0.218 C  
HETATM   15  C   UNL     1     -11.926  13.241  68.674  1.00  0.00    -0.345 C  
HETATM   16  C   UNL     1     -11.333  11.962  66.620  1.00  0.00    -0.337 C  
HETATM   17  O   UNL     1     -12.309  12.456  66.071  1.00  0.00    -0.627 OA 
HETATM   18  O   UNL     1     -10.512  11.120  65.951  1.00  0.00    -0.252 OA 
ENDBRANCH  12  13
ENDBRANCH  11  12
ENDBRANCH  10  11
ENDBRANCH   9  10
ENDBRANCH   4   9
TORSDOF 5
ENDMDL
MODEL      125
REMARK 921   NORMALIZED FREE ENERGY PREDICTED BY IDOCK:   -4.16 KCAL/MOL
REMARK 922        TOTAL FREE ENERGY PREDICTED BY IDOCK:   -5.85 KCAL/MOL
REMARK 923 INTER-LIGAND FREE ENERGY PREDICTED BY IDOCK:   -5.07 KCAL/MOL
REMARK 924 INTRA-LIGAND FREE ENERGY PREDICTED BY IDOCK:   -0.78 KCAL/MOL
REMARK 927      BINDING AFFINITY PREDICTED BY RF-SCORE:    0.00 PKD
ROOT
HETATM    1  C   UNL     1      -8.068  19.774  68.701  1.00  0.00    -0.252 C  
HETATM    2  C   UNL     1      -8.860  18.968  67.714  1.00  0.00    -0.326 A  
HETATM    3  C   UNL     1      -8.504  17.644  67.416  1.00  0.00    -0.227 A  
HETATM    4  C   UNL     1      -9.215  16.901  66.466  1.00  0.00    -0.269 A  
HETATM    5  C   UNL     1      -9.938  19.549  67.043  1.00  0.00    -0.489 A  
HETATM    6  C   UNL     1     -10.274  17.502  65.767  1.00  0.00    -0.184 A  
HETATM    7  C   UNL     1     -10.636  18.823  66.077  1.00  0.00    -0.442 A  
HETATM    8  C   UNL     1     -11.041  16.792  64.687  1.00  0.00     0.066 C  
ENDROOT
BRANCH   4   9
HETATM    9  O   UNL     1      -8.879  15.624  66.104  1.00  0.00    -0.321 OA 
BRANCH   9  10
HETATM   10  C   UNL     1      -8.414  14.738  67.125  1.00  0.00    -0.223 C  
BRANCH  10  11
HETATM   11  C   UNL     1      -9.518  13.776  67.569  1.00  0.00    -0.220 C  
BRANCH  11  12
HETATM   12  C   UNL     1     -10.762  13.872  66.670  1.00  0.00    -0.281 C  
BRANCH  12  13
HETATM   13  C   UNL     1     -11.140  12.570  65.917  1.00  0.00    -0.334 C  
HETATM   14  C   UNL     1     -12.534  12.656  65.278  1.00  0.00    -0.483 C  
HETATM   15  C   UNL     1     -11.120  11.365  66.879  1.00  0.00    -0.356 C  
HETATM   16  C   UNL     1     -10.099  12.313  64.814  1.00  0.00    -0.246 C  
HETATM   17  O   UNL     1      -9.365  11.336  64.769  1.00  0.00    -0.210 OA 
HETATM   18  O   UNL     1     -10.040  13.271  63.860  1.00  0.00    -0.274 OA 
ENDBRANCH  12  13
ENDBRANCH  11  12
ENDBRANCH  10  11
ENDBRANCH   9  10
ENDBRANCH   4   9
TORSDOF 5
ENDMDL
MODEL      126
REMARK 921   NORMALIZED FREE ENERGY PREDICTED BY IDOCK:   -4.15 KCAL/MOL
REMARK 922        TOTAL FREE ENERGY PREDICTED BY IDOCK:   -5.85 KCAL/MOL
REMARK 923 INTER-LIGAND FREE ENERGY PREDICTED BY IDOCK:   -5.14 KCAL/MOL
REMARK 924 INTRA-LIGAND FREE ENERGY PREDICTED BY IDOCK:   -0.71 KCAL/MOL
REMARK 927      BINDING AFFINITY PREDICTED BY RF-SCORE:    0.00 PKD
ROOT
HETATM    1  C   UNL     1      -9.648  10.411  63.990  1.00  0.00    -0.376 C  
HETATM    2  C   UNL     1     -10.128  10.562  65.404  1.00  0.00    -0.358 A  
HETATM    3  C   UNL     1     -10.219   9.450  66.255  1.00  0.00    -0.284 A  
HETATM    4  C   UNL     1     -10.706   9.579  67.562  1.00  0.00    -0.245 A  
HETATM    5  C   UNL     1     -10.536  11.812  65.873  1.00  0.00    -0.314 A  
HETATM    6  C   UNL     1     -11.150  10.831  68.015  1.00  0.00    -0.359 A  
HETATM    7  C   UNL     1     -11.044  11.944  67.165  1.00  0.00    -0.347 A  
HETATM    8  C   UNL     1     -11.744  11.037  69.381  1.00  0.00    -0.394 C  
ENDROOT
BRANCH   4   9
HETATM    9  O   UNL     1     -10.861   8.519  68.415  1.00  0.00    -0.081 OA 
BRANCH   9  10
HETATM   10  C   UNL     1     -10.217   7.288  68.079  1.00  0.00    -0.185 C  
BRANCH  10  11
HETATM   11  C   UNL     1     -10.131   6.358  69.291  1.00  0.00    -0.203 C  
BRANCH  11  12
HETATM   12  C   UNL     1      -9.743   7.116  70.573  1.00  0.00    -0.176 C  
BRANCH  12  13
HETATM   13  C   UNL     1     -10.848   7.198  71.657  1.00  0.00    -0.250 C  
HETATM   14  C   UNL     1     -12.219   6.762  71.117  1.00  0.00    -0.413 C  
HETATM   15  C   UNL     1     -10.972   8.639  72.193  1.00  0.00    -0.434 C  
HETATM   16  C   UNL     1     -10.461   6.287  72.833  1.00  0.00    -0.218 C  
HETATM   17  O   UNL     1     -10.246   6.679  73.972  1.00  0.00    -0.312 OA 
HETATM   18  O   UNL     1     -10.367   4.973  72.522  1.00  0.00    -0.189 OA 
ENDBRANCH  12  13
ENDBRANCH  11  12
ENDBRANCH  10  11
ENDBRANCH   9  10
ENDBRANCH   4   9
TORSDOF 5
ENDMDL
MODEL      127
REMARK 921   NORMALIZED FREE ENERGY PREDICTED BY IDOCK:   -4.15 KCAL/MOL
REMARK 922        TOTAL FREE ENERGY PREDICTED BY IDOCK:   -5.84 KCAL/MOL
REMARK 923 INTER-LIGAND FREE ENERGY PREDICTED BY IDOCK:   -5.12 KCAL/MOL
REMARK 924 INTRA-LIGAND FREE ENERGY PREDICTED BY IDOCK:   -0.72 KCAL/MOL
REMARK 927      BINDING AFFINITY PREDICTED BY RF-SCORE:    0.00 PKD
ROOT
HETATM    1  C   UNL     1      -9.880  10.467  64.256  1.00  0.00    -0.402 C  
HETATM    2  C   UNL     1      -9.903   9.903  65.646  1.00  0.00    -0.368 A  
HETATM    3  C   UNL     1     -10.418  10.650  66.716  1.00  0.00    -0.303 A  
HETATM    4  C   UNL     1     -10.405  10.145  68.022  1.00  0.00    -0.190 A  
HETATM    5  C   UNL     1      -9.366   8.639  65.896  1.00  0.00    -0.262 A  
HETATM    6  C   UNL     1      -9.829   8.889  68.273  1.00  0.00    -0.187 A  
HETATM    7  C   UNL     1      -9.328   8.138  67.197  1.00  0.00    -0.183 A  
HETATM    8  C   UNL     1      -9.719   8.307  69.655  1.00  0.00    -0.173 C  
ENDROOT
BRANCH   4   9
HETATM    9  O   UNL     1     -10.849  10.851  69.107  1.00  0.00    -0.207 OA 
BRANCH   9  10
HETATM   10  C   UNL     1     -12.013  11.666  68.947  1.00  0.00    -0.292 C  
BRANCH  10  11
HETATM   11  C   UNL     1     -11.724  13.123  69.313  1.00  0.00    -0.376 C  
BRANCH  11  12
HETATM   12  C   UNL     1     -11.928  14.069  68.117  1.00  0.00    -0.382 C  
BRANCH  12  13
HETATM   13  C   UNL     1     -10.728  14.995  67.791  1.00  0.00    -0.278 C  
HETATM   14  C   UNL     1      -9.407  14.451  68.358  1.00  0.00    -0.206 C  
HETATM   15  C   UNL     1     -10.961  16.406  68.369  1.00  0.00    -0.353 C  
HETATM   16  C   UNL     1     -10.600  15.125  66.263  1.00  0.00    -0.310 C  
HETATM   17  O   UNL     1     -10.719  16.174  65.645  1.00  0.00    -0.346 OA 
HETATM   18  O   UNL     1     -10.338  13.965  65.619  1.00  0.00    -0.302 OA 
ENDBRANCH  12  13
ENDBRANCH  11  12
ENDBRANCH  10  11
ENDBRANCH   9  10
ENDBRANCH   4   9
TORSDOF 5
ENDMDL
MODEL      128
REMARK 921   NORMALIZED FREE ENERGY PREDICTED BY IDOCK:   -4.14 KCAL/MOL
REMARK 922        TOTAL FREE ENERGY PREDICTED BY IDOCK:   -5.84 KCAL/MOL
REMARK 923 INTER-LIGAND FREE ENERGY PREDICTED BY IDOCK:   -5.28 KCAL/MOL
REMARK 924 INTRA-LIGAND FREE ENERGY PREDICTED BY IDOCK:   -0.55 KCAL/MOL
REMARK 927      BINDING AFFINITY PREDICTED BY RF-SCORE:    0.00 PKD
ROOT
HETATM    1  C   UNL     1     -12.174  14.649  71.303  1.00  0.00    -0.410 C  
HETATM    2  C   UNL     1     -11.474  14.639  69.975  1.00  0.00    -0.313 A  
HETATM    3  C   UNL     1     -10.370  15.472  69.738  1.00  0.00    -0.316 A  
HETATM    4  C   UNL     1      -9.740  15.496  68.488  1.00  0.00    -0.203 A  
HETATM    5  C   UNL     1     -11.949  13.828  68.942  1.00  0.00    -0.394 A  
HETATM    6  C   UNL     1     -10.244  14.707  67.442  1.00  0.00    -0.240 A  
HETATM    7  C   UNL     1     -11.341  13.865  67.687  1.00  0.00    -0.335 A  
HETATM    8  C   UNL     1      -9.663  14.728  66.056  1.00  0.00    -0.350 C  
ENDROOT
BRANCH   4   9
HETATM    9  O   UNL     1      -8.691  16.325  68.189  1.00  0.00    -0.176 OA 
BRANCH   9  10
HETATM   10  C   UNL     1      -7.463  16.134  68.896  1.00  0.00    -0.197 C  
BRANCH  10  11
HETATM   11  C   UNL     1      -6.740  17.464  69.120  1.00  0.00    -0.243 C  
BRANCH  11  12
HETATM   12  C   UNL     1      -6.634  18.288  67.825  1.00  0.00    -0.204 C  
BRANCH  12  13
HETATM   13  C   UNL     1      -7.333  19.671  67.859  1.00  0.00    -0.315 C  
HETATM   14  C   UNL     1      -6.345  20.810  68.160  1.00  0.00    -0.354 C  
HETATM   15  C   UNL     1      -8.439  19.691  68.934  1.00  0.00    -0.230 C  
HETATM   16  C   UNL     1      -7.994  19.930  66.495  1.00  0.00    -0.321 C  
HETATM   17  O   UNL     1      -9.197  20.071  66.323  1.00  0.00    -0.366 OA 
HETATM   18  O   UNL     1      -7.132  19.993  65.454  1.00  0.00    -0.316 OA 
ENDBRANCH  12  13
ENDBRANCH  11  12
ENDBRANCH  10  11
ENDBRANCH   9  10
ENDBRANCH   4   9
TORSDOF 5
ENDMDL
MODEL      129
REMARK 921   NORMALIZED FREE ENERGY PREDICTED BY IDOCK:   -4.14 KCAL/MOL
REMARK 922        TOTAL FREE ENERGY PREDICTED BY IDOCK:   -5.83 KCAL/MOL
REMARK 923 INTER-LIGAND FREE ENERGY PREDICTED BY IDOCK:   -5.52 KCAL/MOL
REMARK 924 INTRA-LIGAND FREE ENERGY PREDICTED BY IDOCK:   -0.31 KCAL/MOL
REMARK 927      BINDING AFFINITY PREDICTED BY RF-SCORE:    0.00 PKD
ROOT
HETATM    1  C   UNL     1     -13.681  14.242  72.349  1.00  0.00    -0.616 C  
HETATM    2  C   UNL     1     -13.063  13.134  71.548  1.00  0.00    -0.404 A  
HETATM    3  C   UNL     1     -12.383  13.405  70.351  1.00  0.00    -0.382 A  
HETATM    4  C   UNL     1     -11.840  12.371  69.579  1.00  0.00    -0.303 A  
HETATM    5  C   UNL     1     -13.202  11.809  71.966  1.00  0.00    -0.460 A  
HETATM    6  C   UNL     1     -12.015  11.038  69.984  1.00  0.00    -0.430 A  
HETATM    7  C   UNL     1     -12.685  10.772  71.190  1.00  0.00    -0.532 A  
HETATM    8  C   UNL     1     -11.519   9.872  69.177  1.00  0.00    -0.017 C  
ENDROOT
BRANCH   4   9
HETATM    9  O   UNL     1     -11.211  12.577  68.380  1.00  0.00    -0.234 OA 
BRANCH   9  10
HETATM   10  C   UNL     1      -9.784  12.662  68.378  1.00  0.00    -0.187 C  
BRANCH  10  11
HETATM   11  C   UNL     1      -9.159  11.483  67.629  1.00  0.00    -0.168 C  
BRANCH  11  12
HETATM   12  C   UNL     1      -8.805  11.846  66.176  1.00  0.00    -0.063 C  
BRANCH  12  13
HETATM   13  C   UNL     1      -9.409  10.917  65.093  1.00  0.00    -0.252 C  
HETATM   14  C   UNL     1     -10.085   9.680  65.705  1.00  0.00    -0.274 C  
HETATM   15  C   UNL     1      -8.313  10.440  64.118  1.00  0.00    -0.139 C  
HETATM   16  C   UNL     1     -10.452  11.706  64.283  1.00  0.00    -0.331 C  
HETATM   17  O   UNL     1     -10.367  11.940  63.086  1.00  0.00    -0.402 OA 
HETATM   18  O   UNL     1     -11.509  12.146  65.003  1.00  0.00    -0.325 OA 
ENDBRANCH  12  13
ENDBRANCH  11  12
ENDBRANCH  10  11
ENDBRANCH   9  10
ENDBRANCH   4   9
TORSDOF 5
ENDMDL
MODEL      130
REMARK 921   NORMALIZED FREE ENERGY PREDICTED BY IDOCK:   -4.12 KCAL/MOL
REMARK 922        TOTAL FREE ENERGY PREDICTED BY IDOCK:   -5.81 KCAL/MOL
REMARK 923 INTER-LIGAND FREE ENERGY PREDICTED BY IDOCK:   -5.46 KCAL/MOL
REMARK 924 INTRA-LIGAND FREE ENERGY PREDICTED BY IDOCK:   -0.35 KCAL/MOL
REMARK 927      BINDING AFFINITY PREDICTED BY RF-SCORE:    0.00 PKD
ROOT
HETATM    1  C   UNL     1     -12.514  12.077  63.339  1.00  0.00    -0.625 C  
HETATM    2  C   UNL     1     -11.536  12.290  64.457  1.00  0.00    -0.418 A  
HETATM    3  C   UNL     1     -11.630  13.415  65.290  1.00  0.00    -0.329 A  
HETATM    4  C   UNL     1     -10.696  13.639  66.309  1.00  0.00    -0.285 A  
HETATM    5  C   UNL     1     -10.488  11.387  64.649  1.00  0.00    -0.373 A  
HETATM    6  C   UNL     1      -9.623  12.748  66.473  1.00  0.00    -0.257 A  
HETATM    7  C   UNL     1      -9.540  11.616  65.646  1.00  0.00    -0.252 A  
HETATM    8  C   UNL     1      -8.545  12.955  67.500  1.00  0.00    -0.188 C  
ENDROOT
BRANCH   4   9
HETATM    9  O   UNL     1     -10.713  14.744  67.117  1.00  0.00    -0.287 OA 
BRANCH   9  10
HETATM   10  C   UNL     1      -9.981  15.897  66.692  1.00  0.00    -0.257 C  
BRANCH  10  11
HETATM   11  C   UNL     1     -10.241  17.090  67.614  1.00  0.00    -0.317 C  
BRANCH  11  12
HETATM   12  C   UNL     1      -9.008  17.442  68.463  1.00  0.00    -0.276 C  
BRANCH  12  13
HETATM   13  C   UNL     1      -8.203  18.678  67.985  1.00  0.00    -0.294 C  
HETATM   14  C   UNL     1      -7.579  19.451  69.158  1.00  0.00    -0.316 C  
HETATM   15  C   UNL     1      -9.113  19.643  67.197  1.00  0.00    -0.393 C  
HETATM   16  C   UNL     1      -7.082  18.209  67.042  1.00  0.00    -0.196 C  
HETATM   17  O   UNL     1      -6.990  18.526  65.864  1.00  0.00    -0.254 OA 
HETATM   18  O   UNL     1      -6.169  17.392  67.615  1.00  0.00    -0.142 OA 
ENDBRANCH  12  13
ENDBRANCH  11  12
ENDBRANCH  10  11
ENDBRANCH   9  10
ENDBRANCH   4   9
TORSDOF 5
ENDMDL
MODEL      131
REMARK 921   NORMALIZED FREE ENERGY PREDICTED BY IDOCK:   -4.12 KCAL/MOL
REMARK 922        TOTAL FREE ENERGY PREDICTED BY IDOCK:   -5.81 KCAL/MOL
REMARK 923 INTER-LIGAND FREE ENERGY PREDICTED BY IDOCK:   -5.04 KCAL/MOL
REMARK 924 INTRA-LIGAND FREE ENERGY PREDICTED BY IDOCK:   -0.76 KCAL/MOL
REMARK 927      BINDING AFFINITY PREDICTED BY RF-SCORE:    0.00 PKD
ROOT
HETATM    1  C   UNL     1     -10.283   5.324  67.091  1.00  0.00    -0.264 C  
HETATM    2  C   UNL     1      -9.919   6.744  66.774  1.00  0.00    -0.242 A  
HETATM    3  C   UNL     1     -10.705   7.809  67.238  1.00  0.00    -0.326 A  
HETATM    4  C   UNL     1     -10.394   9.134  66.910  1.00  0.00    -0.251 A  
HETATM    5  C   UNL     1      -8.813   7.017  65.967  1.00  0.00    -0.155 A  
HETATM    6  C   UNL     1      -9.302   9.400  66.067  1.00  0.00    -0.279 A  
HETATM    7  C   UNL     1      -8.509   8.333  65.616  1.00  0.00    -0.173 A  
HETATM    8  C   UNL     1      -8.943  10.789  65.618  1.00  0.00    -0.205 C  
ENDROOT
BRANCH   4   9
HETATM    9  O   UNL     1     -11.155  10.205  67.295  1.00  0.00    -0.244 OA 
BRANCH   9  10
HETATM   10  C   UNL     1     -11.186  10.539  68.685  1.00  0.00    -0.270 C  
BRANCH  10  11
HETATM   11  C   UNL     1     -11.351  12.047  68.889  1.00  0.00    -0.333 C  
BRANCH  11  12
HETATM   12  C   UNL     1     -10.359  12.856  68.036  1.00  0.00    -0.230 C  
BRANCH  12  13
HETATM   13  C   UNL     1     -10.987  13.986  67.180  1.00  0.00    -0.303 C  
HETATM   14  C   UNL     1     -11.334  15.224  68.022  1.00  0.00    -0.345 C  
HETATM   15  C   UNL     1     -12.275  13.490  66.491  1.00  0.00    -0.433 C  
HETATM   16  C   UNL     1      -9.990  14.393  66.082  1.00  0.00    -0.311 C  
HETATM   17  O   UNL     1     -10.196  14.280  64.881  1.00  0.00    -0.413 OA 
HETATM   18  O   UNL     1      -8.823  14.902  66.540  1.00  0.00    -0.266 OA 
ENDBRANCH  12  13
ENDBRANCH  11  12
ENDBRANCH  10  11
ENDBRANCH   9  10
ENDBRANCH   4   9
TORSDOF 5
ENDMDL
MODEL      132
REMARK 921   NORMALIZED FREE ENERGY PREDICTED BY IDOCK:   -4.12 KCAL/MOL
REMARK 922        TOTAL FREE ENERGY PREDICTED BY IDOCK:   -5.80 KCAL/MOL
REMARK 923 INTER-LIGAND FREE ENERGY PREDICTED BY IDOCK:   -5.06 KCAL/MOL
REMARK 924 INTRA-LIGAND FREE ENERGY PREDICTED BY IDOCK:   -0.74 KCAL/MOL
REMARK 927      BINDING AFFINITY PREDICTED BY RF-SCORE:    0.00 PKD
ROOT
HETATM    1  C   UNL     1     -11.298  15.635  68.049  1.00  0.00    -0.324 C  
HETATM    2  C   UNL     1     -11.609  14.436  68.896  1.00  0.00    -0.340 A  
HETATM    3  C   UNL     1     -11.716  13.160  68.323  1.00  0.00    -0.384 A  
HETATM    4  C   UNL     1     -12.047  12.044  69.102  1.00  0.00    -0.183 A  
HETATM    5  C   UNL     1     -11.843  14.589  70.264  1.00  0.00    -0.373 A  
HETATM    6  C   UNL     1     -12.318  12.210  70.469  1.00  0.00    -0.358 A  
HETATM    7  C   UNL     1     -12.197  13.487  71.042  1.00  0.00    -0.348 A  
HETATM    8  C   UNL     1     -12.743  11.074  71.357  1.00  0.00    -0.534 C  
ENDROOT
BRANCH   4   9
HETATM    9  O   UNL     1     -12.212  10.787  68.585  1.00  0.00    -0.472 OA 
BRANCH   9  10
HETATM   10  C   UNL     1     -11.131  10.221  67.840  1.00  0.00    -0.276 C  
BRANCH  10  11
HETATM   11  C   UNL     1     -10.025   9.713  68.768  1.00  0.00    -0.184 C  
BRANCH  11  12
HETATM   12  C   UNL     1     -10.454   8.454  69.541  1.00  0.00    -0.225 C  
BRANCH  12  13
HETATM   13  C   UNL     1      -9.739   7.143  69.123  1.00  0.00    -0.158 C  
HETATM   14  C   UNL     1      -8.436   7.415  68.356  1.00  0.00    -0.125 C  
HETATM   15  C   UNL     1     -10.660   6.288  68.230  1.00  0.00    -0.318 C  
HETATM   16  C   UNL     1      -9.415   6.328  70.387  1.00  0.00    -0.161 C  
HETATM   17  O   UNL     1      -9.869   5.218  70.631  1.00  0.00    -0.173 OA 
HETATM   18  O   UNL     1      -8.567   6.936  71.248  1.00  0.00    -0.123 OA 
ENDBRANCH  12  13
ENDBRANCH  11  12
ENDBRANCH  10  11
ENDBRANCH   9  10
ENDBRANCH   4   9
TORSDOF 5
ENDMDL
MODEL      133
REMARK 921   NORMALIZED FREE ENERGY PREDICTED BY IDOCK:   -4.10 KCAL/MOL
REMARK 922        TOTAL FREE ENERGY PREDICTED BY IDOCK:   -5.79 KCAL/MOL
REMARK 923 INTER-LIGAND FREE ENERGY PREDICTED BY IDOCK:   -5.35 KCAL/MOL
REMARK 924 INTRA-LIGAND FREE ENERGY PREDICTED BY IDOCK:   -0.44 KCAL/MOL
REMARK 927      BINDING AFFINITY PREDICTED BY RF-SCORE:    0.00 PKD
ROOT
HETATM    1  C   UNL     1     -12.417  15.939  71.640  1.00  0.00    -0.502 C  
HETATM    2  C   UNL     1     -12.540  14.451  71.497  1.00  0.00    -0.424 A  
HETATM    3  C   UNL     1     -11.941  13.780  70.420  1.00  0.00    -0.385 A  
HETATM    4  C   UNL     1     -12.087  12.397  70.259  1.00  0.00    -0.297 A  
HETATM    5  C   UNL     1     -13.298  13.721  72.415  1.00  0.00    -0.635 A  
HETATM    6  C   UNL     1     -12.882  11.674  71.164  1.00  0.00    -0.392 A  
HETATM    7  C   UNL     1     -13.469  12.347  72.248  1.00  0.00    -0.428 A  
HETATM    8  C   UNL     1     -13.140  10.201  71.021  1.00  0.00    -0.458 C  
ENDROOT
BRANCH   4   9
HETATM    9  O   UNL     1     -11.565  11.703  69.201  1.00  0.00    -0.258 OA 
BRANCH   9  10
HETATM   10  C   UNL     1     -10.224  11.996  68.803  1.00  0.00    -0.129 C  
BRANCH  10  11
HETATM   11  C   UNL     1      -9.716  10.983  67.775  1.00  0.00    -0.183 C  
BRANCH  11  12
HETATM   12  C   UNL     1      -8.925   9.840  68.433  1.00  0.00    -0.123 C  
BRANCH  12  13
HETATM   13  C   UNL     1      -8.823   8.537  67.600  1.00  0.00    -0.138 C  
HETATM   14  C   UNL     1      -7.642   7.659  68.044  1.00  0.00    -0.110 C  
HETATM   15  C   UNL     1      -8.649   8.865  66.103  1.00  0.00    -0.155 C  
HETATM   16  C   UNL     1     -10.127   7.738  67.762  1.00  0.00    -0.189 C  
HETATM   17  O   UNL     1     -10.895   7.473  66.847  1.00  0.00    -0.345 OA 
HETATM   18  O   UNL     1     -10.387   7.332  69.026  1.00  0.00    -0.195 OA 
ENDBRANCH  12  13
ENDBRANCH  11  12
ENDBRANCH  10  11
ENDBRANCH   9  10
ENDBRANCH   4   9
TORSDOF 5
ENDMDL
MODEL      134
REMARK 921   NORMALIZED FREE ENERGY PREDICTED BY IDOCK:   -4.10 KCAL/MOL
REMARK 922        TOTAL FREE ENERGY PREDICTED BY IDOCK:   -5.79 KCAL/MOL
REMARK 923 INTER-LIGAND FREE ENERGY PREDICTED BY IDOCK:   -5.00 KCAL/MOL
REMARK 924 INTRA-LIGAND FREE ENERGY PREDICTED BY IDOCK:   -0.78 KCAL/MOL
REMARK 927      BINDING AFFINITY PREDICTED BY RF-SCORE:    0.00 PKD
ROOT
HETATM    1  C   UNL     1     -11.384  16.563  68.950  1.00  0.00    -0.206 C  
HETATM    2  C   UNL     1     -11.549  15.094  69.207  1.00  0.00    -0.344 A  
HETATM    3  C   UNL     1     -11.340  14.157  68.184  1.00  0.00    -0.316 A  
HETATM    4  C   UNL     1     -11.533  12.788  68.406  1.00  0.00    -0.311 A  
HETATM    5  C   UNL     1     -11.963  14.646  70.463  1.00  0.00    -0.376 A  
HETATM    6  C   UNL     1     -11.985  12.348  69.661  1.00  0.00    -0.341 A  
HETATM    7  C   UNL     1     -12.180  13.287  70.686  1.00  0.00    -0.417 A  
HETATM    8  C   UNL     1     -12.277  10.903  69.958  1.00  0.00    -0.422 C  
ENDROOT
BRANCH   4   9
HETATM    9  O   UNL     1     -11.389  11.839  67.430  1.00  0.00    -0.281 OA 
BRANCH   9  10
HETATM   10  C   UNL     1     -10.072  11.571  66.943  1.00  0.00    -0.212 C  
BRANCH  10  11
HETATM   11  C   UNL     1      -9.553  10.226  67.457  1.00  0.00    -0.180 C  
BRANCH  11  12
HETATM   12  C   UNL     1     -10.535   9.079  67.162  1.00  0.00    -0.333 C  
BRANCH  12  13
HETATM   13  C   UNL     1     -10.163   7.709  67.785  1.00  0.00    -0.259 C  
HETATM   14  C   UNL     1     -11.079   6.580  67.286  1.00  0.00    -0.429 C  
HETATM   15  C   UNL     1     -10.261   7.771  69.323  1.00  0.00    -0.211 C  
HETATM   16  C   UNL     1      -8.709   7.372  67.416  1.00  0.00    -0.121 C  
HETATM   17  O   UNL     1      -7.802   7.236  68.226  1.00  0.00    -0.117 OA 
HETATM   18  O   UNL     1      -8.481   7.232  66.089  1.00  0.00    -0.128 OA 
ENDBRANCH  12  13
ENDBRANCH  11  12
ENDBRANCH  10  11
ENDBRANCH   9  10
ENDBRANCH   4   9
TORSDOF 5
ENDMDL
MODEL      135
REMARK 921   NORMALIZED FREE ENERGY PREDICTED BY IDOCK:   -4.10 KCAL/MOL
REMARK 922        TOTAL FREE ENERGY PREDICTED BY IDOCK:   -5.78 KCAL/MOL
REMARK 923 INTER-LIGAND FREE ENERGY PREDICTED BY IDOCK:   -5.23 KCAL/MOL
REMARK 924 INTRA-LIGAND FREE ENERGY PREDICTED BY IDOCK:   -0.55 KCAL/MOL
REMARK 927      BINDING AFFINITY PREDICTED BY RF-SCORE:    0.00 PKD
ROOT
HETATM    1  C   UNL     1     -10.338   5.747  67.944  1.00  0.00    -0.266 C  
HETATM    2  C   UNL     1     -10.481   6.153  69.382  1.00  0.00    -0.316 A  
HETATM    3  C   UNL     1     -10.571   7.506  69.741  1.00  0.00    -0.245 A  
HETATM    4  C   UNL     1     -10.663   7.892  71.084  1.00  0.00    -0.227 A  
HETATM    5  C   UNL     1     -10.476   5.182  70.385  1.00  0.00    -0.287 A  
HETATM    6  C   UNL     1     -10.620   6.914  72.090  1.00  0.00    -0.241 A  
HETATM    7  C   UNL     1     -10.543   5.560  71.726  1.00  0.00    -0.296 A  
HETATM    8  C   UNL     1     -10.647   7.253  73.554  1.00  0.00    -0.408 C  
ENDROOT
BRANCH   4   9
HETATM    9  O   UNL     1     -10.704   9.199  71.491  1.00  0.00    -0.318 OA 
BRANCH   9  10
HETATM   10  C   UNL     1     -11.982   9.834  71.576  1.00  0.00    -0.407 C  
BRANCH  10  11
HETATM   11  C   UNL     1     -12.403  10.416  70.225  1.00  0.00    -0.327 C  
BRANCH  11  12
HETATM   12  C   UNL     1     -11.764  11.791  69.965  1.00  0.00    -0.386 C  
BRANCH  12  13
HETATM   13  C   UNL     1     -10.869  11.879  68.702  1.00  0.00    -0.273 C  
HETATM   14  C   UNL     1     -11.527  11.219  67.480  1.00  0.00    -0.324 C  
HETATM   15  C   UNL     1      -9.511  11.193  68.953  1.00  0.00    -0.136 C  
HETATM   16  C   UNL     1     -10.599  13.360  68.384  1.00  0.00    -0.248 C  
HETATM   17  O   UNL     1      -9.492  13.879  68.391  1.00  0.00    -0.213 OA 
HETATM   18  O   UNL     1     -11.703  14.084  68.088  1.00  0.00    -0.313 OA 
ENDBRANCH  12  13
ENDBRANCH  11  12
ENDBRANCH  10  11
ENDBRANCH   9  10
ENDBRANCH   4   9
TORSDOF 5
ENDMDL
MODEL      136
REMARK 921   NORMALIZED FREE ENERGY PREDICTED BY IDOCK:   -4.07 KCAL/MOL
REMARK 922        TOTAL FREE ENERGY PREDICTED BY IDOCK:   -5.75 KCAL/MOL
REMARK 923 INTER-LIGAND FREE ENERGY PREDICTED BY IDOCK:   -5.23 KCAL/MOL
REMARK 924 INTRA-LIGAND FREE ENERGY PREDICTED BY IDOCK:   -0.52 KCAL/MOL
REMARK 927      BINDING AFFINITY PREDICTED BY RF-SCORE:    0.00 PKD
ROOT
HETATM    1  C   UNL     1     -13.320   9.337  72.084  1.00  0.00    -0.537 C  
HETATM    2  C   UNL     1     -13.007  10.674  71.478  1.00  0.00    -0.566 A  
HETATM    3  C   UNL     1     -12.272  10.769  70.287  1.00  0.00    -0.431 A  
HETATM    4  C   UNL     1     -11.943  12.015  69.739  1.00  0.00    -0.300 A  
HETATM    5  C   UNL     1     -13.408  11.845  72.125  1.00  0.00    -0.361 A  
HETATM    6  C   UNL     1     -12.315  13.189  70.414  1.00  0.00    -0.351 A  
HETATM    7  C   UNL     1     -13.063  13.090  71.598  1.00  0.00    -0.440 A  
HETATM    8  C   UNL     1     -11.942  14.560  69.924  1.00  0.00    -0.382 C  
ENDROOT
BRANCH   4   9
HETATM    9  O   UNL     1     -11.187  12.163  68.607  1.00  0.00    -0.229 OA 
BRANCH   9  10
HETATM   10  C   UNL     1      -9.779  11.936  68.707  1.00  0.00    -0.039 C  
BRANCH  10  11
HETATM   11  C   UNL     1      -9.329  10.821  67.760  1.00  0.00    -0.158 C  
BRANCH  11  12
HETATM   12  C   UNL     1      -9.489   9.428  68.391  1.00  0.00    -0.148 C  
BRANCH  12  13
HETATM   13  C   UNL     1      -9.272   8.233  67.427  1.00  0.00    -0.163 C  
HETATM   14  C   UNL     1      -7.841   7.680  67.507  1.00  0.00    -0.119 C  
HETATM   15  C   UNL     1      -9.549   8.657  65.970  1.00  0.00    -0.265 C  
HETATM   16  C   UNL     1     -10.262   7.113  67.790  1.00  0.00    -0.184 C  
HETATM   17  O   UNL     1     -11.137   6.693  67.046  1.00  0.00    -0.403 OA 
HETATM   18  O   UNL     1     -10.103   6.601  69.032  1.00  0.00    -0.153 OA 
ENDBRANCH  12  13
ENDBRANCH  11  12
ENDBRANCH  10  11
ENDBRANCH   9  10
ENDBRANCH   4   9
TORSDOF 5
ENDMDL
MODEL      137
REMARK 921   NORMALIZED FREE ENERGY PREDICTED BY IDOCK:   -4.07 KCAL/MOL
REMARK 922        TOTAL FREE ENERGY PREDICTED BY IDOCK:   -5.74 KCAL/MOL
REMARK 923 INTER-LIGAND FREE ENERGY PREDICTED BY IDOCK:   -5.28 KCAL/MOL
REMARK 924 INTRA-LIGAND FREE ENERGY PREDICTED BY IDOCK:   -0.46 KCAL/MOL
REMARK 927      BINDING AFFINITY PREDICTED BY RF-SCORE:    0.00 PKD
ROOT
HETATM    1  C   UNL     1     -10.776   5.334  66.415  1.00  0.00    -0.290 C  
HETATM    2  C   UNL     1     -10.772   6.430  67.440  1.00  0.00    -0.411 A  
HETATM    3  C   UNL     1     -10.550   7.764  67.066  1.00  0.00    -0.396 A  
HETATM    4  C   UNL     1     -10.505   8.785  68.023  1.00  0.00    -0.204 A  
HETATM    5  C   UNL     1     -10.945   6.123  68.791  1.00  0.00    -0.421 A  
HETATM    6  C   UNL     1     -10.641   8.465  69.383  1.00  0.00    -0.204 A  
HETATM    7  C   UNL     1     -10.877   7.131  69.753  1.00  0.00    -0.261 A  
HETATM    8  C   UNL     1     -10.539   9.495  70.474  1.00  0.00    -0.358 C  
ENDROOT
BRANCH   4   9
HETATM    9  O   UNL     1     -10.242  10.093  67.717  1.00  0.00    -0.171 OA 
BRANCH   9  10
HETATM   10  C   UNL     1      -9.993  10.424  66.348  1.00  0.00    -0.221 C  
BRANCH  10  11
HETATM   11  C   UNL     1     -10.564  11.800  65.998  1.00  0.00    -0.302 C  
BRANCH  11  12
HETATM   12  C   UNL     1     -10.012  12.904  66.916  1.00  0.00    -0.238 C  
BRANCH  12  13
HETATM   13  C   UNL     1     -11.037  13.986  67.345  1.00  0.00    -0.317 C  
HETATM   14  C   UNL     1     -11.979  13.483  68.450  1.00  0.00    -0.378 C  
HETATM   15  C   UNL     1     -11.893  14.427  66.140  1.00  0.00    -0.391 C  
HETATM   16  C   UNL     1     -10.275  15.218  67.860  1.00  0.00    -0.235 C  
HETATM   17  O   UNL     1     -10.323  16.328  67.347  1.00  0.00    -0.274 OA 
HETATM   18  O   UNL     1      -9.516  14.994  68.958  1.00  0.00    -0.203 OA 
ENDBRANCH  12  13
ENDBRANCH  11  12
ENDBRANCH  10  11
ENDBRANCH   9  10
ENDBRANCH   4   9
TORSDOF 5
ENDMDL
MODEL      138
REMARK 921   NORMALIZED FREE ENERGY PREDICTED BY IDOCK:   -4.06 KCAL/MOL
REMARK 922        TOTAL FREE ENERGY PREDICTED BY IDOCK:   -5.73 KCAL/MOL
REMARK 923 INTER-LIGAND FREE ENERGY PREDICTED BY IDOCK:   -5.17 KCAL/MOL
REMARK 924 INTRA-LIGAND FREE ENERGY PREDICTED BY IDOCK:   -0.56 KCAL/MOL
REMARK 927      BINDING AFFINITY PREDICTED BY RF-SCORE:    0.00 PKD
ROOT
HETATM    1  C   UNL     1     -10.246   5.279  67.349  1.00  0.00    -0.240 C  
HETATM    2  C   UNL     1     -10.349   6.699  67.822  1.00  0.00    -0.239 A  
HETATM    3  C   UNL     1     -10.102   7.768  66.948  1.00  0.00    -0.356 A  
HETATM    4  C   UNL     1     -10.157   9.094  67.394  1.00  0.00    -0.230 A  
HETATM    5  C   UNL     1     -10.648   6.969  69.159  1.00  0.00    -0.235 A  
HETATM    6  C   UNL     1     -10.420   9.359  68.748  1.00  0.00    -0.236 A  
HETATM    7  C   UNL     1     -10.681   8.287  69.617  1.00  0.00    -0.196 A  
HETATM    8  C   UNL     1     -10.431  10.750  69.316  1.00  0.00    -0.243 C  
ENDROOT
BRANCH   4   9
HETATM    9  O   UNL     1      -9.876  10.170  66.595  1.00  0.00    -0.183 OA 
BRANCH   9  10
HETATM   10  C   UNL     1      -9.459   9.916  65.251  1.00  0.00    -0.268 C  
BRANCH  10  11
HETATM   11  C   UNL     1     -10.165  10.850  64.266  1.00  0.00    -0.430 C  
BRANCH  11  12
HETATM   12  C   UNL     1     -10.107  12.319  64.721  1.00  0.00    -0.271 C  
BRANCH  12  13
HETATM   13  C   UNL     1     -11.455  13.083  64.670  1.00  0.00    -0.374 C  
HETATM   14  C   UNL     1     -12.388  12.687  65.825  1.00  0.00    -0.323 C  
HETATM   15  C   UNL     1     -12.183  12.805  63.339  1.00  0.00    -0.594 C  
HETATM   16  C   UNL     1     -11.175  14.593  64.749  1.00  0.00    -0.389 C  
HETATM   17  O   UNL     1     -11.449  15.396  63.868  1.00  0.00    -0.065 OA 
HETATM   18  O   UNL     1     -10.581  14.997  65.896  1.00  0.00    -0.299 OA 
ENDBRANCH  12  13
ENDBRANCH  11  12
ENDBRANCH  10  11
ENDBRANCH   9  10
ENDBRANCH   4   9
TORSDOF 5
ENDMDL
MODEL      139
REMARK 921   NORMALIZED FREE ENERGY PREDICTED BY IDOCK:   -4.06 KCAL/MOL
REMARK 922        TOTAL FREE ENERGY PREDICTED BY IDOCK:   -5.72 KCAL/MOL
REMARK 923 INTER-LIGAND FREE ENERGY PREDICTED BY IDOCK:   -5.30 KCAL/MOL
REMARK 924 INTRA-LIGAND FREE ENERGY PREDICTED BY IDOCK:   -0.42 KCAL/MOL
REMARK 927      BINDING AFFINITY PREDICTED BY RF-SCORE:    0.00 PKD
ROOT
HETATM    1  C   UNL     1     -12.273  13.894  66.921  1.00  0.00    -0.415 C  
HETATM    2  C   UNL     1     -11.668  12.972  65.903  1.00  0.00    -0.442 A  
HETATM    3  C   UNL     1     -10.947  11.835  66.299  1.00  0.00    -0.346 A  
HETATM    4  C   UNL     1     -10.347  10.995  65.355  1.00  0.00    -0.268 A  
HETATM    5  C   UNL     1     -11.779  13.265  64.542  1.00  0.00    -0.420 A  
HETATM    6  C   UNL     1     -10.430  11.315  63.990  1.00  0.00    -0.440 A  
HETATM    7  C   UNL     1     -11.164  12.445  63.596  1.00  0.00    -0.544 A  
HETATM    8  C   UNL     1      -9.757  10.499  62.922  1.00  0.00    -0.304 C  
ENDROOT
BRANCH   4   9
HETATM    9  O   UNL     1      -9.592   9.902  65.691  1.00  0.00    -0.215 OA 
BRANCH   9  10
HETATM   10  C   UNL     1     -10.147   8.963  66.615  1.00  0.00    -0.287 C  
BRANCH  10  11
HETATM   11  C   UNL     1      -9.305   8.877  67.890  1.00  0.00    -0.155 C  
BRANCH  11  12
HETATM   12  C   UNL     1      -9.156   7.428  68.385  1.00  0.00    -0.132 C  
BRANCH  12  13
HETATM   13  C   UNL     1      -9.460   7.206  69.889  1.00  0.00    -0.153 C  
HETATM   14  C   UNL     1     -10.021   8.471  70.558  1.00  0.00    -0.214 C  
HETATM   15  C   UNL     1      -8.182   6.784  70.642  1.00  0.00    -0.120 C  
HETATM   16  C   UNL     1     -10.487   6.070  70.028  1.00  0.00    -0.250 C  
HETATM   17  O   UNL     1     -10.275   5.009  70.598  1.00  0.00    -0.238 OA 
HETATM   18  O   UNL     1     -11.688   6.322  69.456  1.00  0.00    -0.360 OA 
ENDBRANCH  12  13
ENDBRANCH  11  12
ENDBRANCH  10  11
ENDBRANCH   9  10
ENDBRANCH   4   9
TORSDOF 5
ENDMDL
MODEL      140
REMARK 921   NORMALIZED FREE ENERGY PREDICTED BY IDOCK:   -4.03 KCAL/MOL
REMARK 922        TOTAL FREE ENERGY PREDICTED BY IDOCK:   -5.68 KCAL/MOL
REMARK 923 INTER-LIGAND FREE ENERGY PREDICTED BY IDOCK:   -4.80 KCAL/MOL
REMARK 924 INTRA-LIGAND FREE ENERGY PREDICTED BY IDOCK:   -0.88 KCAL/MOL
REMARK 927      BINDING AFFINITY PREDICTED BY RF-SCORE:    0.00 PKD
ROOT
HETATM    1  C   UNL     1     -11.324  11.338  68.127  1.00  0.00    -0.372 C  
HETATM    2  C   UNL     1     -11.003  12.799  68.245  1.00  0.00    -0.278 A  
HETATM    3  C   UNL     1      -9.674  13.240  68.313  1.00  0.00    -0.225 A  
HETATM    4  C   UNL     1      -9.370  14.598  68.464  1.00  0.00    -0.201 A  
HETATM    5  C   UNL     1     -12.036  13.735  68.336  1.00  0.00    -0.395 A  
HETATM    6  C   UNL     1     -10.412  15.531  68.593  1.00  0.00    -0.237 A  
HETATM    7  C   UNL     1     -11.742  15.087  68.511  1.00  0.00    -0.345 A  
HETATM    8  C   UNL     1     -10.167  16.996  68.823  1.00  0.00    -0.317 C  
ENDROOT
BRANCH   4   9
HETATM    9  O   UNL     1      -8.092  15.076  68.585  1.00  0.00    -0.136 OA 
BRANCH   9  10
HETATM   10  C   UNL     1      -7.197  14.879  67.488  1.00  0.00    -0.201 C  
BRANCH  10  11
HETATM   11  C   UNL     1      -6.344  16.125  67.238  1.00  0.00    -0.204 C  
BRANCH  11  12
HETATM   12  C   UNL     1      -7.159  17.264  66.603  1.00  0.00    -0.279 C  
BRANCH  12  13
HETATM   13  C   UNL     1      -6.879  18.679  67.172  1.00  0.00    -0.207 C  
HETATM   14  C   UNL     1      -5.578  19.278  66.615  1.00  0.00    -0.163 C  
HETATM   15  C   UNL     1      -6.773  18.631  68.710  1.00  0.00    -0.288 C  
HETATM   16  C   UNL     1      -8.052  19.604  66.807  1.00  0.00    -0.297 C  
HETATM   17  O   UNL     1      -8.784  20.149  67.621  1.00  0.00    -0.324 OA 
HETATM   18  O   UNL     1      -8.235  19.786  65.478  1.00  0.00    -0.333 OA 
ENDBRANCH  12  13
ENDBRANCH  11  12
ENDBRANCH  10  11
ENDBRANCH   9  10
ENDBRANCH   4   9
TORSDOF 5
ENDMDL
MODEL      141
REMARK 921   NORMALIZED FREE ENERGY PREDICTED BY IDOCK:   -4.00 KCAL/MOL
REMARK 922        TOTAL FREE ENERGY PREDICTED BY IDOCK:   -5.65 KCAL/MOL
REMARK 923 INTER-LIGAND FREE ENERGY PREDICTED BY IDOCK:   -5.11 KCAL/MOL
REMARK 924 INTRA-LIGAND FREE ENERGY PREDICTED BY IDOCK:   -0.54 KCAL/MOL
REMARK 927      BINDING AFFINITY PREDICTED BY RF-SCORE:    0.00 PKD
ROOT
HETATM    1  C   UNL     1      -9.774  15.488  69.335  1.00  0.00    -0.283 C  
HETATM    2  C   UNL     1     -10.484  14.769  68.226  1.00  0.00    -0.241 A  
HETATM    3  C   UNL     1     -10.997  13.477  68.418  1.00  0.00    -0.289 A  
HETATM    4  C   UNL     1     -11.624  12.786  67.375  1.00  0.00    -0.356 A  
HETATM    5  C   UNL     1     -10.599  15.365  66.968  1.00  0.00    -0.309 A  
HETATM    6  C   UNL     1     -11.704  13.375  66.103  1.00  0.00    -0.405 A  
HETATM    7  C   UNL     1     -11.201  14.673  65.917  1.00  0.00    -0.336 A  
HETATM    8  C   UNL     1     -12.303  12.671  64.917  1.00  0.00    -0.563 C  
ENDROOT
BRANCH   4   9
HETATM    9  O   UNL     1     -12.098  11.507  67.497  1.00  0.00    -0.614 OA 
BRANCH   9  10
HETATM   10  C   UNL     1     -11.234  10.524  68.070  1.00  0.00    -0.294 C  
BRANCH  10  11
HETATM   11  C   UNL     1     -10.474   9.754  66.988  1.00  0.00    -0.295 C  
BRANCH  11  12
HETATM   12  C   UNL     1     -10.497   8.236  67.235  1.00  0.00    -0.373 C  
BRANCH  12  13
HETATM   13  C   UNL     1      -9.118   7.589  67.528  1.00  0.00    -0.130 C  
HETATM   14  C   UNL     1      -9.076   6.921  68.912  1.00  0.00    -0.134 C  
HETATM   15  C   UNL     1      -8.001   8.650  67.466  1.00  0.00    -0.106 C  
HETATM   16  C   UNL     1      -8.826   6.530  66.452  1.00  0.00    -0.143 C  
HETATM   17  O   UNL     1      -7.889   6.580  65.667  1.00  0.00    -0.090 OA 
HETATM   18  O   UNL     1      -9.702   5.499  66.423  1.00  0.00    -0.152 OA 
ENDBRANCH  12  13
ENDBRANCH  11  12
ENDBRANCH  10  11
ENDBRANCH   9  10
ENDBRANCH   4   9
TORSDOF 5
ENDMDL
MODEL      142
REMARK 921   NORMALIZED FREE ENERGY PREDICTED BY IDOCK:   -3.99 KCAL/MOL
REMARK 922        TOTAL FREE ENERGY PREDICTED BY IDOCK:   -5.64 KCAL/MOL
REMARK 923 INTER-LIGAND FREE ENERGY PREDICTED BY IDOCK:   -4.89 KCAL/MOL
REMARK 924 INTRA-LIGAND FREE ENERGY PREDICTED BY IDOCK:   -0.76 KCAL/MOL
REMARK 927      BINDING AFFINITY PREDICTED BY RF-SCORE:    0.00 PKD
ROOT
HETATM    1  C   UNL     1     -10.354  16.548  67.673  1.00  0.00    -0.291 C  
HETATM    2  C   UNL     1     -10.852  15.474  66.751  1.00  0.00    -0.291 A  
HETATM    3  C   UNL     1     -11.285  14.238  67.254  1.00  0.00    -0.330 A  
HETATM    4  C   UNL     1     -11.712  13.218  66.395  1.00  0.00    -0.373 A  
HETATM    5  C   UNL     1     -10.845  15.681  65.370  1.00  0.00    -0.394 A  
HETATM    6  C   UNL     1     -11.667  13.418  65.006  1.00  0.00    -0.350 A  
HETATM    7  C   UNL     1     -11.247  14.662  64.506  1.00  0.00    -0.290 A  
HETATM    8  C   UNL     1     -12.046  12.351  64.018  1.00  0.00    -0.563 C  
ENDROOT
BRANCH   4   9
HETATM    9  O   UNL     1     -12.096  11.978  66.830  1.00  0.00    -0.608 OA 
BRANCH   9  10
HETATM   10  C   UNL     1     -11.255  11.308  67.772  1.00  0.00    -0.291 C  
BRANCH  10  11
HETATM   11  C   UNL     1     -10.088  10.608  67.073  1.00  0.00    -0.255 C  
BRANCH  11  12
HETATM   12  C   UNL     1      -8.763  11.368  67.261  1.00  0.00    -0.148 C  
BRANCH  12  13
HETATM   13  C   UNL     1      -7.481  10.561  66.932  1.00  0.00    -0.110 C  
HETATM   14  C   UNL     1      -7.325  10.316  65.422  1.00  0.00    -0.144 C  
HETATM   15  C   UNL     1      -7.506   9.194  67.646  1.00  0.00    -0.084 C  
HETATM   16  C   UNL     1      -6.257  11.340  67.441  1.00  0.00    -0.071 C  
HETATM   17  O   UNL     1      -5.487  10.935  68.302  1.00  0.00    -0.040 OA 
HETATM   18  O   UNL     1      -6.075  12.548  66.859  1.00  0.00    -0.251 OA 
ENDBRANCH  12  13
ENDBRANCH  11  12
ENDBRANCH  10  11
ENDBRANCH   9  10
ENDBRANCH   4   9
TORSDOF 5
ENDMDL
MODEL      143
REMARK 921   NORMALIZED FREE ENERGY PREDICTED BY IDOCK:   -3.98 KCAL/MOL
REMARK 922        TOTAL FREE ENERGY PREDICTED BY IDOCK:   -5.63 KCAL/MOL
REMARK 923 INTER-LIGAND FREE ENERGY PREDICTED BY IDOCK:   -4.83 KCAL/MOL
REMARK 924 INTRA-LIGAND FREE ENERGY PREDICTED BY IDOCK:   -0.79 KCAL/MOL
REMARK 927      BINDING AFFINITY PREDICTED BY RF-SCORE:    0.00 PKD
ROOT
HETATM    1  C   UNL     1     -14.084   8.389  71.732  1.00  0.00    -0.509 C  
HETATM    2  C   UNL     1     -12.664   7.936  71.552  1.00  0.00    -0.342 A  
HETATM    3  C   UNL     1     -12.356   6.852  70.718  1.00  0.00    -0.314 A  
HETATM    4  C   UNL     1     -11.038   6.399  70.578  1.00  0.00    -0.328 A  
HETATM    5  C   UNL     1     -11.636   8.566  72.256  1.00  0.00    -0.444 A  
HETATM    6  C   UNL     1     -10.014   7.012  71.318  1.00  0.00    -0.196 A  
HETATM    7  C   UNL     1     -10.324   8.106  72.141  1.00  0.00    -0.342 A  
HETATM    8  C   UNL     1      -8.586   6.543  71.272  1.00  0.00    -0.127 C  
ENDROOT
BRANCH   4   9
HETATM    9  O   UNL     1     -10.690   5.316  69.816  1.00  0.00    -0.286 OA 
BRANCH   9  10
HETATM   10  C   UNL     1     -10.181   5.557  68.502  1.00  0.00    -0.184 C  
BRANCH  10  11
HETATM   11  C   UNL     1     -11.011   6.615  67.771  1.00  0.00    -0.367 C  
BRANCH  11  12
HETATM   12  C   UNL     1     -10.168   7.412  66.761  1.00  0.00    -0.313 C  
BRANCH  12  13
HETATM   13  C   UNL     1      -9.836   8.869  67.176  1.00  0.00    -0.267 C  
HETATM   14  C   UNL     1     -10.571   9.285  68.460  1.00  0.00    -0.222 C  
HETATM   15  C   UNL     1     -10.225   9.852  66.053  1.00  0.00    -0.269 C  
HETATM   16  C   UNL     1      -8.320   8.988  67.406  1.00  0.00    -0.112 C  
HETATM   17  O   UNL     1      -7.576   9.710  66.757  1.00  0.00    -0.097 OA 
HETATM   18  O   UNL     1      -7.839   8.216  68.407  1.00  0.00    -0.114 OA 
ENDBRANCH  12  13
ENDBRANCH  11  12
ENDBRANCH  10  11
ENDBRANCH   9  10
ENDBRANCH   4   9
TORSDOF 5
ENDMDL
MODEL      144
REMARK 921   NORMALIZED FREE ENERGY PREDICTED BY IDOCK:   -3.95 KCAL/MOL
REMARK 922        TOTAL FREE ENERGY PREDICTED BY IDOCK:   -5.58 KCAL/MOL
REMARK 923 INTER-LIGAND FREE ENERGY PREDICTED BY IDOCK:   -4.93 KCAL/MOL
REMARK 924 INTRA-LIGAND FREE ENERGY PREDICTED BY IDOCK:   -0.65 KCAL/MOL
REMARK 927      BINDING AFFINITY PREDICTED BY RF-SCORE:    0.00 PKD
ROOT
HETATM    1  C   UNL     1     -12.304  12.439  63.336  1.00  0.00    -0.603 C  
HETATM    2  C   UNL     1     -11.852  12.847  64.708  1.00  0.00    -0.409 A  
HETATM    3  C   UNL     1     -10.655  12.352  65.248  1.00  0.00    -0.322 A  
HETATM    4  C   UNL     1     -10.249  12.697  66.543  1.00  0.00    -0.243 A  
HETATM    5  C   UNL     1     -12.648  13.693  65.482  1.00  0.00    -0.541 A  
HETATM    6  C   UNL     1     -11.073  13.517  67.331  1.00  0.00    -0.300 A  
HETATM    7  C   UNL     1     -12.262  14.022  66.782  1.00  0.00    -0.439 A  
HETATM    8  C   UNL     1     -10.738  13.879  68.751  1.00  0.00    -0.278 C  
ENDROOT
BRANCH   4   9
HETATM    9  O   UNL     1      -9.118  12.203  67.134  1.00  0.00    -0.177 OA 
BRANCH   9  10
HETATM   10  C   UNL     1      -8.723  10.866  66.815  1.00  0.00    -0.147 C  
BRANCH  10  11
HETATM   11  C   UNL     1      -9.349   9.858  67.781  1.00  0.00    -0.154 C  
BRANCH  11  12
HETATM   12  C   UNL     1      -9.966   8.658  67.042  1.00  0.00    -0.317 C  
BRANCH  12  13
HETATM   13  C   UNL     1      -9.370   7.274  67.409  1.00  0.00    -0.148 C  
HETATM   14  C   UNL     1      -8.105   7.401  68.273  1.00  0.00    -0.125 C  
HETATM   15  C   UNL     1      -9.010   6.486  66.133  1.00  0.00    -0.161 C  
HETATM   16  C   UNL     1     -10.425   6.466  68.182  1.00  0.00    -0.218 C  
HETATM   17  O   UNL     1     -10.910   5.411  67.797  1.00  0.00    -0.115 OA 
HETATM   18  O   UNL     1     -10.803   7.014  69.361  1.00  0.00    -0.235 OA 
ENDBRANCH  12  13
ENDBRANCH  11  12
ENDBRANCH  10  11
ENDBRANCH   9  10
ENDBRANCH   4   9
TORSDOF 5
ENDMDL
MODEL      145
REMARK 921   NORMALIZED FREE ENERGY PREDICTED BY IDOCK:   -3.94 KCAL/MOL
REMARK 922        TOTAL FREE ENERGY PREDICTED BY IDOCK:   -5.57 KCAL/MOL
REMARK 923 INTER-LIGAND FREE ENERGY PREDICTED BY IDOCK:   -5.38 KCAL/MOL
REMARK 924 INTRA-LIGAND FREE ENERGY PREDICTED BY IDOCK:   -0.19 KCAL/MOL
REMARK 927      BINDING AFFINITY PREDICTED BY RF-SCORE:    0.00 PKD
ROOT
HETATM    1  C   UNL     1     -10.834   6.877  70.955  1.00  0.00    -0.272 C  
HETATM    2  C   UNL     1     -11.511   8.198  71.177  1.00  0.00    -0.304 A  
HETATM    3  C   UNL     1     -11.106   9.340  70.471  1.00  0.00    -0.317 A  
HETATM    4  C   UNL     1     -11.706  10.584  70.704  1.00  0.00    -0.357 A  
HETATM    5  C   UNL     1     -12.526   8.311  72.129  1.00  0.00    -0.398 A  
HETATM    6  C   UNL     1     -12.700  10.699  71.689  1.00  0.00    -0.531 A  
HETATM    7  C   UNL     1     -13.113   9.551  72.383  1.00  0.00    -0.430 A  
HETATM    8  C   UNL     1     -13.345  12.010  72.042  1.00  0.00    -0.447 C  
ENDROOT
BRANCH   4   9
HETATM    9  O   UNL     1     -11.315  11.737  70.079  1.00  0.00    -0.193 OA 
BRANCH   9  10
HETATM   10  C   UNL     1     -12.013  12.127  68.893  1.00  0.00    -0.242 C  
BRANCH  10  11
HETATM   11  C   UNL     1     -11.045  12.355  67.730  1.00  0.00    -0.292 C  
BRANCH  11  12
HETATM   12  C   UNL     1     -10.652  11.037  67.041  1.00  0.00    -0.303 C  
BRANCH  12  13
HETATM   13  C   UNL     1      -9.669  11.177  65.850  1.00  0.00    -0.268 C  
HETATM   14  C   UNL     1      -9.987  12.404  64.981  1.00  0.00    -0.219 C  
HETATM   15  C   UNL     1      -9.722   9.922  64.956  1.00  0.00    -0.359 C  
HETATM   16  C   UNL     1      -8.238  11.310  66.397  1.00  0.00    -0.150 C  
HETATM   17  O   UNL     1      -7.337  10.511  66.181  1.00  0.00    -0.124 OA 
HETATM   18  O   UNL     1      -8.026  12.405  67.163  1.00  0.00    -0.174 OA 
ENDBRANCH  12  13
ENDBRANCH  11  12
ENDBRANCH  10  11
ENDBRANCH   9  10
ENDBRANCH   4   9
TORSDOF 5
ENDMDL
MODEL      146
REMARK 921   NORMALIZED FREE ENERGY PREDICTED BY IDOCK:   -3.92 KCAL/MOL
REMARK 922        TOTAL FREE ENERGY PREDICTED BY IDOCK:   -5.55 KCAL/MOL
REMARK 923 INTER-LIGAND FREE ENERGY PREDICTED BY IDOCK:   -4.99 KCAL/MOL
REMARK 924 INTRA-LIGAND FREE ENERGY PREDICTED BY IDOCK:   -0.56 KCAL/MOL
REMARK 927      BINDING AFFINITY PREDICTED BY RF-SCORE:    0.00 PKD
ROOT
HETATM    1  C   UNL     1     -10.321   9.955  66.813  1.00  0.00    -0.285 C  
HETATM    2  C   UNL     1     -10.634  11.270  67.464  1.00  0.00    -0.257 A  
HETATM    3  C   UNL     1      -9.881  12.417  67.168  1.00  0.00    -0.206 A  
HETATM    4  C   UNL     1     -10.143  13.637  67.803  1.00  0.00    -0.242 A  
HETATM    5  C   UNL     1     -11.656  11.355  68.412  1.00  0.00    -0.385 A  
HETATM    6  C   UNL     1     -11.146  13.706  68.783  1.00  0.00    -0.302 A  
HETATM    7  C   UNL     1     -11.907  12.561  69.067  1.00  0.00    -0.344 A  
HETATM    8  C   UNL     1     -11.442  14.962  69.555  1.00  0.00    -0.325 C  
ENDROOT
BRANCH   4   9
HETATM    9  O   UNL     1      -9.407  14.771  67.587  1.00  0.00    -0.191 OA 
BRANCH   9  10
HETATM   10  C   UNL     1      -9.502  15.397  66.305  1.00  0.00    -0.309 C  
BRANCH  10  11
HETATM   11  C   UNL     1      -8.862  16.787  66.318  1.00  0.00    -0.334 C  
BRANCH  11  12
HETATM   12  C   UNL     1      -8.554  17.267  67.747  1.00  0.00    -0.225 C  
BRANCH  12  13
HETATM   13  C   UNL     1      -7.252  18.094  67.904  1.00  0.00    -0.223 C  
HETATM   14  C   UNL     1      -6.491  18.231  66.576  1.00  0.00    -0.229 C  
HETATM   15  C   UNL     1      -6.315  17.435  68.936  1.00  0.00    -0.202 C  
HETATM   16  C   UNL     1      -7.613  19.497  68.420  1.00  0.00    -0.330 C  
HETATM   17  O   UNL     1      -7.244  19.957  69.492  1.00  0.00    -0.287 OA 
HETATM   18  O   UNL     1      -8.395  20.221  67.587  1.00  0.00    -0.315 OA 
ENDBRANCH  12  13
ENDBRANCH  11  12
ENDBRANCH  10  11
ENDBRANCH   9  10
ENDBRANCH   4   9
TORSDOF 5
ENDMDL
MODEL      147
REMARK 921   NORMALIZED FREE ENERGY PREDICTED BY IDOCK:   -3.92 KCAL/MOL
REMARK 922        TOTAL FREE ENERGY PREDICTED BY IDOCK:   -5.55 KCAL/MOL
REMARK 923 INTER-LIGAND FREE ENERGY PREDICTED BY IDOCK:   -4.98 KCAL/MOL
REMARK 924 INTRA-LIGAND FREE ENERGY PREDICTED BY IDOCK:   -0.56 KCAL/MOL
REMARK 927      BINDING AFFINITY PREDICTED BY RF-SCORE:    0.00 PKD
ROOT
HETATM    1  C   UNL     1      -9.040  14.512  67.506  1.00  0.00    -0.193 C  
HETATM    2  C   UNL     1      -9.931  13.568  68.259  1.00  0.00    -0.237 A  
HETATM    3  C   UNL     1      -9.567  12.225  68.439  1.00  0.00    -0.183 A  
HETATM    4  C   UNL     1     -10.413  11.330  69.105  1.00  0.00    -0.160 A  
HETATM    5  C   UNL     1     -11.161  14.010  68.750  1.00  0.00    -0.287 A  
HETATM    6  C   UNL     1     -11.665  11.771  69.563  1.00  0.00    -0.408 A  
HETATM    7  C   UNL     1     -12.020  13.119  69.393  1.00  0.00    -0.347 A  
HETATM    8  C   UNL     1     -12.655  10.856  70.228  1.00  0.00    -0.342 C  
ENDROOT
BRANCH   4   9
HETATM    9  O   UNL     1     -10.127  10.001  69.264  1.00  0.00    -0.188 OA 
BRANCH   9  10
HETATM   10  C   UNL     1      -9.231   9.628  70.314  1.00  0.00    -0.236 C  
BRANCH  10  11
HETATM   11  C   UNL     1      -9.871   8.603  71.252  1.00  0.00    -0.307 C  
BRANCH  11  12
HETATM   12  C   UNL     1      -9.411   7.169  70.939  1.00  0.00    -0.160 C  
BRANCH  12  13
HETATM   13  C   UNL     1     -10.548   6.131  70.757  1.00  0.00    -0.299 C  
HETATM   14  C   UNL     1     -10.007   4.700  70.613  1.00  0.00    -0.293 C  
HETATM   15  C   UNL     1     -11.386   6.463  69.505  1.00  0.00    -0.460 C  
HETATM   16  C   UNL     1     -11.479   6.193  71.980  1.00  0.00    -0.313 C  
HETATM   17  O   UNL     1     -12.661   6.504  71.936  1.00  0.00    -0.325 OA 
HETATM   18  O   UNL     1     -10.890   5.870  73.154  1.00  0.00    -0.244 OA 
ENDBRANCH  12  13
ENDBRANCH  11  12
ENDBRANCH  10  11
ENDBRANCH   9  10
ENDBRANCH   4   9
TORSDOF 5
ENDMDL
MODEL      148
REMARK 921   NORMALIZED FREE ENERGY PREDICTED BY IDOCK:   -3.92 KCAL/MOL
REMARK 922        TOTAL FREE ENERGY PREDICTED BY IDOCK:   -5.54 KCAL/MOL
REMARK 923 INTER-LIGAND FREE ENERGY PREDICTED BY IDOCK:   -4.87 KCAL/MOL
REMARK 924 INTRA-LIGAND FREE ENERGY PREDICTED BY IDOCK:   -0.68 KCAL/MOL
REMARK 927      BINDING AFFINITY PREDICTED BY RF-SCORE:    0.00 PKD
ROOT
HETATM    1  C   UNL     1     -12.129  12.587  70.529  1.00  0.00    -0.361 C  
HETATM    2  C   UNL     1     -12.262  11.142  70.912  1.00  0.00    -0.468 A  
HETATM    3  C   UNL     1     -11.440  10.166  70.331  1.00  0.00    -0.400 A  
HETATM    4  C   UNL     1     -11.588   8.811  70.654  1.00  0.00    -0.205 A  
HETATM    5  C   UNL     1     -13.245  10.749  71.822  1.00  0.00    -0.523 A  
HETATM    6  C   UNL     1     -12.603   8.418  71.541  1.00  0.00    -0.334 A  
HETATM    7  C   UNL     1     -13.415   9.400  72.131  1.00  0.00    -0.543 A  
HETATM    8  C   UNL     1     -12.866   6.979  71.887  1.00  0.00    -0.296 C  
ENDROOT
BRANCH   4   9
HETATM    9  O   UNL     1     -10.846   7.815  70.079  1.00  0.00    -0.247 OA 
BRANCH   9  10
HETATM   10  C   UNL     1      -9.430   7.830  70.283  1.00  0.00    -0.160 C  
BRANCH  10  11
HETATM   11  C   UNL     1      -8.681   7.499  68.991  1.00  0.00    -0.136 C  
BRANCH  11  12
HETATM   12  C   UNL     1      -8.311   8.765  68.198  1.00  0.00    -0.122 C  
BRANCH  12  13
HETATM   13  C   UNL     1      -8.870   8.831  66.754  1.00  0.00    -0.147 C  
HETATM   14  C   UNL     1     -10.381   8.555  66.706  1.00  0.00    -0.346 C  
HETATM   15  C   UNL     1      -8.158   7.802  65.852  1.00  0.00    -0.121 C  
HETATM   16  C   UNL     1      -8.599  10.232  66.178  1.00  0.00    -0.139 C  
HETATM   17  O   UNL     1      -7.895  10.457  65.204  1.00  0.00    -0.148 OA 
HETATM   18  O   UNL     1      -9.209  11.241  66.842  1.00  0.00    -0.169 OA 
ENDBRANCH  12  13
ENDBRANCH  11  12
ENDBRANCH  10  11
ENDBRANCH   9  10
ENDBRANCH   4   9
TORSDOF 5
ENDMDL
MODEL      149
REMARK 921   NORMALIZED FREE ENERGY PREDICTED BY IDOCK:   -3.89 KCAL/MOL
REMARK 922        TOTAL FREE ENERGY PREDICTED BY IDOCK:   -5.52 KCAL/MOL
REMARK 923 INTER-LIGAND FREE ENERGY PREDICTED BY IDOCK:   -4.85 KCAL/MOL
REMARK 924 INTRA-LIGAND FREE ENERGY PREDICTED BY IDOCK:   -0.67 KCAL/MOL
REMARK 927      BINDING AFFINITY PREDICTED BY RF-SCORE:    0.00 PKD
ROOT
HETATM    1  C   UNL     1     -11.615  15.903  68.673  1.00  0.00    -0.383 C  
HETATM    2  C   UNL     1     -11.833  14.563  69.311  1.00  0.00    -0.361 A  
HETATM    3  C   UNL     1     -11.772  13.386  68.550  1.00  0.00    -0.392 A  
HETATM    4  C   UNL     1     -12.015  12.136  69.132  1.00  0.00    -0.255 A  
HETATM    5  C   UNL     1     -12.149  14.479  70.669  1.00  0.00    -0.392 A  
HETATM    6  C   UNL     1     -12.370  12.061  70.489  1.00  0.00    -0.369 A  
HETATM    7  C   UNL     1     -12.417  13.240  71.251  1.00  0.00    -0.351 A  
HETATM    8  C   UNL     1     -12.709  10.764  71.169  1.00  0.00    -0.532 C  
ENDROOT
BRANCH   4   9
HETATM    9  O   UNL     1     -12.016  10.963  68.425  1.00  0.00    -0.543 OA 
BRANCH   9  10
HETATM   10  C   UNL     1     -10.899  10.692  67.576  1.00  0.00    -0.296 C  
BRANCH  10  11
HETATM   11  C   UNL     1      -9.693  10.207  68.384  1.00  0.00    -0.157 C  
BRANCH  11  12
HETATM   12  C   UNL     1      -8.370  10.779  67.845  1.00  0.00    -0.117 C  
BRANCH  12  13
HETATM   13  C   UNL     1      -7.087  10.256  68.541  1.00  0.00    -0.074 C  
HETATM   14  C   UNL     1      -6.032   9.784  67.529  1.00  0.00    -0.051 C  
HETATM   15  C   UNL     1      -7.424   9.078  69.478  1.00  0.00    -0.076 C  
HETATM   16  C   UNL     1      -6.490  11.386  69.397  1.00  0.00    -0.108 C  
HETATM   17  O   UNL     1      -6.366  11.342  70.613  1.00  0.00    -0.329 OA 
HETATM   18  O   UNL     1      -6.095  12.475  68.698  1.00  0.00    -0.061 OA 
ENDBRANCH  12  13
ENDBRANCH  11  12
ENDBRANCH  10  11
ENDBRANCH   9  10
ENDBRANCH   4   9
TORSDOF 5
ENDMDL
MODEL      150
REMARK 921   NORMALIZED FREE ENERGY PREDICTED BY IDOCK:   -3.87 KCAL/MOL
REMARK 922        TOTAL FREE ENERGY PREDICTED BY IDOCK:   -5.49 KCAL/MOL
REMARK 923 INTER-LIGAND FREE ENERGY PREDICTED BY IDOCK:   -4.69 KCAL/MOL
REMARK 924 INTRA-LIGAND FREE ENERGY PREDICTED BY IDOCK:   -0.80 KCAL/MOL
REMARK 927      BINDING AFFINITY PREDICTED BY RF-SCORE:    0.00 PKD
ROOT
HETATM    1  C   UNL     1      -7.811   6.997  72.891  1.00  0.00    -0.105 C  
HETATM    2  C   UNL     1      -9.240   7.062  72.437  1.00  0.00    -0.148 A  
HETATM    3  C   UNL     1      -9.625   6.529  71.198  1.00  0.00    -0.181 A  
HETATM    4  C   UNL     1     -10.948   6.624  70.751  1.00  0.00    -0.270 A  
HETATM    5  C   UNL     1     -10.196   7.701  73.229  1.00  0.00    -0.398 A  
HETATM    6  C   UNL     1     -11.898   7.300  71.534  1.00  0.00    -0.335 A  
HETATM    7  C   UNL     1     -11.511   7.821  72.780  1.00  0.00    -0.415 A  
HETATM    8  C   UNL     1     -13.321   7.500  71.093  1.00  0.00    -0.229 C  
ENDROOT
BRANCH   4   9
HETATM    9  O   UNL     1     -11.366   6.165  69.530  1.00  0.00    -0.418 OA 
BRANCH   9  10
HETATM   10  C   UNL     1     -10.378   5.650  68.634  1.00  0.00    -0.208 C  
BRANCH  10  11
HETATM   11  C   UNL     1     -10.148   6.600  67.456  1.00  0.00    -0.202 C  
BRANCH  11  12
HETATM   12  C   UNL     1     -10.893   7.933  67.638  1.00  0.00    -0.125 C  
BRANCH  12  13
HETATM   13  C   UNL     1      -9.995   9.196  67.678  1.00  0.00    -0.245 C  
HETATM   14  C   UNL     1      -9.630   9.690  66.269  1.00  0.00    -0.281 C  
HETATM   15  C   UNL     1      -8.689   8.906  68.444  1.00  0.00    -0.134 C  
HETATM   16  C   UNL     1     -10.741  10.316  68.422  1.00  0.00    -0.226 C  
HETATM   17  O   UNL     1     -10.361  10.828  69.466  1.00  0.00    -0.215 OA 
HETATM   18  O   UNL     1     -11.891  10.717  67.831  1.00  0.00    -0.553 OA 
ENDBRANCH  12  13
ENDBRANCH  11  12
ENDBRANCH  10  11
ENDBRANCH   9  10
ENDBRANCH   4   9
TORSDOF 5
ENDMDL
MODEL      151
REMARK 921   NORMALIZED FREE ENERGY PREDICTED BY IDOCK:   -3.86 KCAL/MOL
REMARK 922        TOTAL FREE ENERGY PREDICTED BY IDOCK:   -5.47 KCAL/MOL
REMARK 923 INTER-LIGAND FREE ENERGY PREDICTED BY IDOCK:   -4.97 KCAL/MOL
REMARK 924 INTRA-LIGAND FREE ENERGY PREDICTED BY IDOCK:   -0.49 KCAL/MOL
REMARK 927      BINDING AFFINITY PREDICTED BY RF-SCORE:    0.00 PKD
ROOT
HETATM    1  C   UNL     1     -12.748   9.857  71.435  1.00  0.00    -0.503 C  
HETATM    2  C   UNL     1     -12.770  11.342  71.224  1.00  0.00    -0.498 A  
HETATM    3  C   UNL     1     -12.097  11.925  70.139  1.00  0.00    -0.382 A  
HETATM    4  C   UNL     1     -12.080  13.313  69.961  1.00  0.00    -0.315 A  
HETATM    5  C   UNL     1     -13.425  12.168  72.140  1.00  0.00    -0.383 A  
HETATM    6  C   UNL     1     -12.708  14.141  70.906  1.00  0.00    -0.432 A  
HETATM    7  C   UNL     1     -13.392  13.554  71.983  1.00  0.00    -0.563 A  
HETATM    8  C   UNL     1     -12.678  15.641  70.819  1.00  0.00    -0.483 C  
ENDROOT
BRANCH   4   9
HETATM    9  O   UNL     1     -11.399  13.934  68.949  1.00  0.00    -0.250 OA 
BRANCH   9  10
HETATM   10  C   UNL     1      -9.970  13.890  68.976  1.00  0.00     0.023 C  
BRANCH  10  11
HETATM   11  C   UNL     1      -9.374  15.293  69.108  1.00  0.00    -0.236 C  
BRANCH  11  12
HETATM   12  C   UNL     1      -7.891  15.254  69.516  1.00  0.00    -0.204 C  
BRANCH  12  13
HETATM   13  C   UNL     1      -6.886  15.069  68.350  1.00  0.00    -0.110 C  
HETATM   14  C   UNL     1      -5.555  15.791  68.616  1.00  0.00    -0.102 C  
HETATM   15  C   UNL     1      -7.480  15.612  67.035  1.00  0.00    -0.228 C  
HETATM   16  C   UNL     1      -6.611  13.567  68.162  1.00  0.00    -0.121 C  
HETATM   17  O   UNL     1      -6.878  12.936  67.149  1.00  0.00    -0.107 OA 
HETATM   18  O   UNL     1      -6.036  12.962  69.226  1.00  0.00    -0.080 OA 
ENDBRANCH  12  13
ENDBRANCH  11  12
ENDBRANCH  10  11
ENDBRANCH   9  10
ENDBRANCH   4   9
TORSDOF 5
ENDMDL
MODEL      152
REMARK 921   NORMALIZED FREE ENERGY PREDICTED BY IDOCK:   -3.85 KCAL/MOL
REMARK 922        TOTAL FREE ENERGY PREDICTED BY IDOCK:   -5.46 KCAL/MOL
REMARK 923 INTER-LIGAND FREE ENERGY PREDICTED BY IDOCK:   -4.81 KCAL/MOL
REMARK 924 INTRA-LIGAND FREE ENERGY PREDICTED BY IDOCK:   -0.65 KCAL/MOL
REMARK 927      BINDING AFFINITY PREDICTED BY RF-SCORE:    0.00 PKD
ROOT
HETATM    1  C   UNL     1     -10.796   6.989  69.735  1.00  0.00    -0.276 C  
HETATM    2  C   UNL     1     -10.088   7.303  68.449  1.00  0.00    -0.188 A  
HETATM    3  C   UNL     1      -9.313   8.465  68.320  1.00  0.00    -0.139 A  
HETATM    4  C   UNL     1      -8.683   8.783  67.111  1.00  0.00    -0.120 A  
HETATM    5  C   UNL     1     -10.234   6.457  67.348  1.00  0.00    -0.223 A  
HETATM    6  C   UNL     1      -8.865   7.949  65.996  1.00  0.00    -0.191 A  
HETATM    7  C   UNL     1      -9.630   6.780  66.132  1.00  0.00    -0.012 A  
HETATM    8  C   UNL     1      -8.276   8.257  64.647  1.00  0.00    -0.145 C  
ENDROOT
BRANCH   4   9
HETATM    9  O   UNL     1      -7.957   9.927  66.918  1.00  0.00    -0.108 OA 
BRANCH   9  10
HETATM   10  C   UNL     1      -8.554  11.171  67.291  1.00  0.00    -0.140 C  
BRANCH  10  11
HETATM   11  C   UNL     1      -9.169  11.877  66.081  1.00  0.00    -0.204 C  
BRANCH  11  12
HETATM   12  C   UNL     1     -10.682  12.097  66.248  1.00  0.00    -0.296 C  
BRANCH  12  13
HETATM   13  C   UNL     1     -11.325  13.087  65.243  1.00  0.00    -0.325 C  
HETATM   14  C   UNL     1     -10.288  14.039  64.627  1.00  0.00    -0.337 C  
HETATM   15  C   UNL     1     -12.410  13.935  65.940  1.00  0.00    -0.517 C  
HETATM   16  C   UNL     1     -12.000  12.287  64.117  1.00  0.00    -0.432 C  
HETATM   17  O   UNL     1     -13.200  12.305  63.877  1.00  0.00    -0.766 OA 
HETATM   18  O   UNL     1     -11.156  11.530  63.378  1.00  0.00    -0.391 OA 
ENDBRANCH  12  13
ENDBRANCH  11  12
ENDBRANCH  10  11
ENDBRANCH   9  10
ENDBRANCH   4   9
TORSDOF 5
ENDMDL
MODEL      153
REMARK 921   NORMALIZED FREE ENERGY PREDICTED BY IDOCK:   -3.84 KCAL/MOL
REMARK 922        TOTAL FREE ENERGY PREDICTED BY IDOCK:   -5.44 KCAL/MOL
REMARK 923 INTER-LIGAND FREE ENERGY PREDICTED BY IDOCK:   -5.15 KCAL/MOL
REMARK 924 INTRA-LIGAND FREE ENERGY PREDICTED BY IDOCK:   -0.29 KCAL/MOL
REMARK 927      BINDING AFFINITY PREDICTED BY RF-SCORE:    0.00 PKD
ROOT
HETATM    1  C   UNL     1     -13.210   9.611  71.932  1.00  0.00    -0.538 C  
HETATM    2  C   UNL     1     -12.892  10.938  71.308  1.00  0.00    -0.536 A  
HETATM    3  C   UNL     1     -12.212  11.012  70.083  1.00  0.00    -0.424 A  
HETATM    4  C   UNL     1     -11.876  12.248  69.517  1.00  0.00    -0.315 A  
HETATM    5  C   UNL     1     -13.232  12.120  71.969  1.00  0.00    -0.496 A  
HETATM    6  C   UNL     1     -12.187  13.432  70.204  1.00  0.00    -0.385 A  
HETATM    7  C   UNL     1     -12.880  13.355  71.423  1.00  0.00    -0.420 A  
HETATM    8  C   UNL     1     -11.802  14.793  69.694  1.00  0.00    -0.362 C  
ENDROOT
BRANCH   4   9
HETATM    9  O   UNL     1     -11.170  12.375  68.351  1.00  0.00    -0.233 OA 
BRANCH   9  10
HETATM   10  C   UNL     1      -9.743  12.358  68.426  1.00  0.00    -0.189 C  
BRANCH  10  11
HETATM   11  C   UNL     1      -9.183  10.987  68.038  1.00  0.00    -0.159 C  
BRANCH  11  12
HETATM   12  C   UNL     1      -9.218  10.760  66.517  1.00  0.00    -0.187 C  
BRANCH  12  13
HETATM   13  C   UNL     1      -8.254   9.666  65.987  1.00  0.00    -0.119 C  
HETATM   14  C   UNL     1      -8.785   8.249  66.256  1.00  0.00    -0.173 C  
HETATM   15  C   UNL     1      -6.868   9.801  66.650  1.00  0.00    -0.084 C  
HETATM   16  C   UNL     1      -8.074   9.853  64.471  1.00  0.00    -0.149 C  
HETATM   17  O   UNL     1      -7.011  10.113  63.926  1.00  0.00    -0.130 OA 
HETATM   18  O   UNL     1      -9.208   9.709  63.747  1.00  0.00    -0.248 OA 
ENDBRANCH  12  13
ENDBRANCH  11  12
ENDBRANCH  10  11
ENDBRANCH   9  10
ENDBRANCH   4   9
TORSDOF 5
ENDMDL
MODEL      154
REMARK 921   NORMALIZED FREE ENERGY PREDICTED BY IDOCK:   -3.82 KCAL/MOL
REMARK 922        TOTAL FREE ENERGY PREDICTED BY IDOCK:   -5.42 KCAL/MOL
REMARK 923 INTER-LIGAND FREE ENERGY PREDICTED BY IDOCK:   -4.99 KCAL/MOL
REMARK 924 INTRA-LIGAND FREE ENERGY PREDICTED BY IDOCK:   -0.43 KCAL/MOL
REMARK 927      BINDING AFFINITY PREDICTED BY RF-SCORE:    0.00 PKD
ROOT
HETATM    1  C   UNL     1     -11.077  15.668  67.309  1.00  0.00    -0.238 C  
HETATM    2  C   UNL     1     -11.529  14.846  68.480  1.00  0.00    -0.336 A  
HETATM    3  C   UNL     1     -11.687  13.457  68.366  1.00  0.00    -0.390 A  
HETATM    4  C   UNL     1     -12.148  12.691  69.443  1.00  0.00    -0.179 A  
HETATM    5  C   UNL     1     -11.845  15.468  69.690  1.00  0.00    -0.384 A  
HETATM    6  C   UNL     1     -12.500  13.327  70.644  1.00  0.00    -0.373 A  
HETATM    7  C   UNL     1     -12.328  14.716  70.760  1.00  0.00    -0.398 A  
HETATM    8  C   UNL     1     -13.063  12.582  71.823  1.00  0.00    -0.450 C  
ENDROOT
BRANCH   4   9
HETATM    9  O   UNL     1     -12.366  11.341  69.369  1.00  0.00    -0.285 OA 
BRANCH   9  10
HETATM   10  C   UNL     1     -11.247  10.470  69.556  1.00  0.00    -0.271 C  
BRANCH  10  11
HETATM   11  C   UNL     1     -10.644  10.047  68.214  1.00  0.00    -0.264 C  
BRANCH  11  12
HETATM   12  C   UNL     1      -9.332   9.264  68.394  1.00  0.00    -0.142 C  
BRANCH  12  13
HETATM   13  C   UNL     1      -9.196   7.987  67.524  1.00  0.00    -0.153 C  
HETATM   14  C   UNL     1      -7.908   7.210  67.837  1.00  0.00    -0.114 C  
HETATM   15  C   UNL     1      -9.192   8.353  66.026  1.00  0.00    -0.247 C  
HETATM   16  C   UNL     1     -10.406   7.075  67.786  1.00  0.00    -0.202 C  
HETATM   17  O   UNL     1     -11.230   6.757  66.939  1.00  0.00    -0.375 OA 
HETATM   18  O   UNL     1     -10.511   6.628  69.059  1.00  0.00    -0.185 OA 
ENDBRANCH  12  13
ENDBRANCH  11  12
ENDBRANCH  10  11
ENDBRANCH   9  10
ENDBRANCH   4   9
TORSDOF 5
ENDMDL
MODEL      155
REMARK 921   NORMALIZED FREE ENERGY PREDICTED BY IDOCK:   -3.81 KCAL/MOL
REMARK 922        TOTAL FREE ENERGY PREDICTED BY IDOCK:   -5.41 KCAL/MOL
REMARK 923 INTER-LIGAND FREE ENERGY PREDICTED BY IDOCK:   -5.06 KCAL/MOL
REMARK 924 INTRA-LIGAND FREE ENERGY PREDICTED BY IDOCK:   -0.35 KCAL/MOL
REMARK 927      BINDING AFFINITY PREDICTED BY RF-SCORE:    0.00 PKD
ROOT
HETATM    1  C   UNL     1     -11.015   8.319  70.077  1.00  0.00    -0.197 C  
HETATM    2  C   UNL     1     -11.692   9.595  70.484  1.00  0.00    -0.312 A  
HETATM    3  C   UNL     1     -11.461  10.787  69.781  1.00  0.00    -0.386 A  
HETATM    4  C   UNL     1     -12.058  11.989  70.181  1.00  0.00    -0.298 A  
HETATM    5  C   UNL     1     -12.527   9.617  71.602  1.00  0.00    -0.494 A  
HETATM    6  C   UNL     1     -12.866  12.013  71.329  1.00  0.00    -0.364 A  
HETATM    7  C   UNL     1     -13.106  10.815  72.022  1.00  0.00    -0.476 A  
HETATM    8  C   UNL     1     -13.488  13.274  71.859  1.00  0.00    -0.525 C  
ENDROOT
BRANCH   4   9
HETATM    9  O   UNL     1     -11.827  13.188  69.561  1.00  0.00    -0.299 OA 
BRANCH   9  10
HETATM   10  C   UNL     1     -10.693  13.288  68.695  1.00  0.00    -0.259 C  
BRANCH  10  11
HETATM   11  C   UNL     1      -9.940  14.601  68.918  1.00  0.00    -0.228 C  
BRANCH  11  12
HETATM   12  C   UNL     1      -8.720  14.730  67.989  1.00  0.00    -0.168 C  
BRANCH  12  13
HETATM   13  C   UNL     1      -7.707  15.838  68.374  1.00  0.00    -0.128 C  
HETATM   14  C   UNL     1      -6.976  15.521  69.689  1.00  0.00    -0.173 C  
HETATM   15  C   UNL     1      -8.423  17.195  68.531  1.00  0.00    -0.262 C  
HETATM   16  C   UNL     1      -6.669  15.978  67.247  1.00  0.00    -0.197 C  
HETATM   17  O   UNL     1      -6.505  16.989  66.578  1.00  0.00    -0.210 OA 
HETATM   18  O   UNL     1      -5.920  14.872  67.029  1.00  0.00    -0.085 OA 
ENDBRANCH  12  13
ENDBRANCH  11  12
ENDBRANCH  10  11
ENDBRANCH   9  10
ENDBRANCH   4   9
TORSDOF 5
ENDMDL
MODEL      156
REMARK 921   NORMALIZED FREE ENERGY PREDICTED BY IDOCK:   -3.80 KCAL/MOL
REMARK 922        TOTAL FREE ENERGY PREDICTED BY IDOCK:   -5.39 KCAL/MOL
REMARK 923 INTER-LIGAND FREE ENERGY PREDICTED BY IDOCK:   -5.02 KCAL/MOL
REMARK 924 INTRA-LIGAND FREE ENERGY PREDICTED BY IDOCK:   -0.37 KCAL/MOL
REMARK 927      BINDING AFFINITY PREDICTED BY RF-SCORE:    0.00 PKD
ROOT
HETATM    1  C   UNL     1     -12.166  15.529  70.214  1.00  0.00    -0.432 C  
HETATM    2  C   UNL     1     -12.338  14.089  70.599  1.00  0.00    -0.446 A  
HETATM    3  C   UNL     1     -11.932  13.060  69.736  1.00  0.00    -0.377 A  
HETATM    4  C   UNL     1     -12.128  11.715  70.073  1.00  0.00    -0.319 A  
HETATM    5  C   UNL     1     -12.952  13.758  71.809  1.00  0.00    -0.441 A  
HETATM    6  C   UNL     1     -12.779  11.389  71.274  1.00  0.00    -0.498 A  
HETATM    7  C   UNL     1     -13.172  12.421  72.141  1.00  0.00    -0.491 A  
HETATM    8  C   UNL     1     -13.084   9.973  71.674  1.00  0.00    -0.547 C  
ENDROOT
BRANCH   4   9
HETATM    9  O   UNL     1     -11.795  10.676  69.247  1.00  0.00    -0.282 OA 
BRANCH   9  10
HETATM   10  C   UNL     1     -10.866  10.930  68.190  1.00  0.00    -0.234 C  
BRANCH  10  11
HETATM   11  C   UNL     1      -9.671   9.977  68.260  1.00  0.00    -0.155 C  
BRANCH  11  12
HETATM   12  C   UNL     1      -9.339   9.367  66.887  1.00  0.00    -0.188 C  
BRANCH  12  13
HETATM   13  C   UNL     1      -7.879   9.569  66.406  1.00  0.00    -0.097 C  
HETATM   14  C   UNL     1      -6.860   8.957  67.381  1.00  0.00    -0.070 C  
HETATM   15  C   UNL     1      -7.565  11.071  66.253  1.00  0.00    -0.111 C  
HETATM   16  C   UNL     1      -7.712   8.907  65.028  1.00  0.00    -0.103 C  
HETATM   17  O   UNL     1      -7.429   9.507  64.001  1.00  0.00    -0.112 OA 
HETATM   18  O   UNL     1      -7.907   7.568  65.018  1.00  0.00    -0.112 OA 
ENDBRANCH  12  13
ENDBRANCH  11  12
ENDBRANCH  10  11
ENDBRANCH   9  10
ENDBRANCH   4   9
TORSDOF 5
ENDMDL
MODEL      157
REMARK 921   NORMALIZED FREE ENERGY PREDICTED BY IDOCK:   -3.78 KCAL/MOL
REMARK 922        TOTAL FREE ENERGY PREDICTED BY IDOCK:   -5.37 KCAL/MOL
REMARK 923 INTER-LIGAND FREE ENERGY PREDICTED BY IDOCK:   -4.62 KCAL/MOL
REMARK 924 INTRA-LIGAND FREE ENERGY PREDICTED BY IDOCK:   -0.75 KCAL/MOL
REMARK 927      BINDING AFFINITY PREDICTED BY RF-SCORE:    0.00 PKD
ROOT
HETATM    1  C   UNL     1     -10.425  16.863  66.007  1.00  0.00    -0.297 C  
HETATM    2  C   UNL     1     -10.587  15.422  65.621  1.00  0.00    -0.379 A  
HETATM    3  C   UNL     1      -9.801  14.425  66.218  1.00  0.00    -0.321 A  
HETATM    4  C   UNL     1      -9.919  13.085  65.832  1.00  0.00    -0.267 A  
HETATM    5  C   UNL     1     -11.496  15.065  64.623  1.00  0.00    -0.382 A  
HETATM    6  C   UNL     1     -10.808  12.736  64.802  1.00  0.00    -0.335 A  
HETATM    7  C   UNL     1     -11.603  13.735  64.216  1.00  0.00    -0.395 A  
HETATM    8  C   UNL     1     -10.944  11.330  64.287  1.00  0.00    -0.358 C  
ENDROOT
BRANCH   4   9
HETATM    9  O   UNL     1      -9.143  12.081  66.347  1.00  0.00    -0.211 OA 
BRANCH   9  10
HETATM   10  C   UNL     1      -8.274  12.398  67.437  1.00  0.00    -0.180 C  
BRANCH  10  11
HETATM   11  C   UNL     1      -8.234  11.262  68.462  1.00  0.00    -0.150 C  
BRANCH  11  12
HETATM   12  C   UNL     1      -9.538  10.447  68.471  1.00  0.00    -0.161 C  
BRANCH  12  13
HETATM   13  C   UNL     1      -9.386   8.946  68.112  1.00  0.00    -0.151 C  
HETATM   14  C   UNL     1      -7.932   8.578  67.775  1.00  0.00    -0.107 C  
HETATM   15  C   UNL     1     -10.271   8.588  66.901  1.00  0.00    -0.375 C  
HETATM   16  C   UNL     1      -9.853   8.098  69.307  1.00  0.00    -0.182 C  
HETATM   17  O   UNL     1     -10.798   7.323  69.279  1.00  0.00    -0.220 OA 
HETATM   18  O   UNL     1      -9.127   8.268  70.436  1.00  0.00    -0.143 OA 
ENDBRANCH  12  13
ENDBRANCH  11  12
ENDBRANCH  10  11
ENDBRANCH   9  10
ENDBRANCH   4   9
TORSDOF 5
ENDMDL
MODEL      158
REMARK 921   NORMALIZED FREE ENERGY PREDICTED BY IDOCK:   -3.76 KCAL/MOL
REMARK 922        TOTAL FREE ENERGY PREDICTED BY IDOCK:   -5.35 KCAL/MOL
REMARK 923 INTER-LIGAND FREE ENERGY PREDICTED BY IDOCK:   -5.16 KCAL/MOL
REMARK 924 INTRA-LIGAND FREE ENERGY PREDICTED BY IDOCK:   -0.19 KCAL/MOL
REMARK 927      BINDING AFFINITY PREDICTED BY RF-SCORE:    0.00 PKD
ROOT
HETATM    1  C   UNL     1     -12.053  13.034  63.264  1.00  0.00    -0.499 C  
HETATM    2  C   UNL     1     -11.670  13.824  64.481  1.00  0.00    -0.432 A  
HETATM    3  C   UNL     1     -12.123  13.448  65.754  1.00  0.00    -0.481 A  
HETATM    4  C   UNL     1     -11.802  14.206  66.887  1.00  0.00    -0.431 A  
HETATM    5  C   UNL     1     -10.892  14.976  64.348  1.00  0.00     0.042 A  
HETATM    6  C   UNL     1     -11.052  15.384  66.743  1.00  0.00    -0.244 A  
HETATM    7  C   UNL     1     -10.589  15.749  65.469  1.00  0.00    -0.424 A  
HETATM    8  C   UNL     1     -10.723  16.284  67.901  1.00  0.00    -0.329 C  
ENDROOT
BRANCH   4   9
HETATM    9  O   UNL     1     -12.258  13.911  68.144  1.00  0.00    -0.329 OA 
BRANCH   9  10
HETATM   10  C   UNL     1     -11.519  12.965  68.921  1.00  0.00    -0.304 C  
BRANCH  10  11
HETATM   11  C   UNL     1     -11.681  11.547  68.369  1.00  0.00    -0.372 C  
BRANCH  11  12
HETATM   12  C   UNL     1     -10.946  10.505  69.230  1.00  0.00    -0.291 C  
BRANCH  12  13
HETATM   13  C   UNL     1      -9.565  10.052  68.690  1.00  0.00    -0.158 C  
HETATM   14  C   UNL     1      -8.965   8.910  69.526  1.00  0.00    -0.145 C  
HETATM   15  C   UNL     1      -8.571  11.231  68.693  1.00  0.00    -0.139 C  
HETATM   16  C   UNL     1      -9.730   9.575  67.237  1.00  0.00    -0.167 C  
HETATM   17  O   UNL     1      -9.190  10.097  66.271  1.00  0.00    -0.150 OA 
HETATM   18  O   UNL     1     -10.540   8.502  67.084  1.00  0.00    -0.303 OA 
ENDBRANCH  12  13
ENDBRANCH  11  12
ENDBRANCH  10  11
ENDBRANCH   9  10
ENDBRANCH   4   9
TORSDOF 5
ENDMDL
MODEL      159
REMARK 921   NORMALIZED FREE ENERGY PREDICTED BY IDOCK:   -3.76 KCAL/MOL
REMARK 922        TOTAL FREE ENERGY PREDICTED BY IDOCK:   -5.34 KCAL/MOL
REMARK 923 INTER-LIGAND FREE ENERGY PREDICTED BY IDOCK:   -4.24 KCAL/MOL
REMARK 924 INTRA-LIGAND FREE ENERGY PREDICTED BY IDOCK:   -1.10 KCAL/MOL
REMARK 927      BINDING AFFINITY PREDICTED BY RF-SCORE:    0.00 PKD
ROOT
HETATM    1  C   UNL     1     -13.102   8.535  72.161  1.00  0.00    -0.393 C  
HETATM    2  C   UNL     1     -11.703   8.768  71.670  1.00  0.00    -0.402 A  
HETATM    3  C   UNL     1     -10.602   8.570  72.516  1.00  0.00    -0.308 A  
HETATM    4  C   UNL     1      -9.297   8.825  72.076  1.00  0.00    -0.252 A  
HETATM    5  C   UNL     1     -11.487   9.234  70.372  1.00  0.00    -0.255 A  
HETATM    6  C   UNL     1      -9.089   9.329  70.782  1.00  0.00    -0.306 A  
HETATM    7  C   UNL     1     -10.193   9.513  69.933  1.00  0.00    -0.261 A  
HETATM    8  C   UNL     1      -7.727   9.689  70.260  1.00  0.00    -0.184 C  
ENDROOT
BRANCH   4   9
HETATM    9  O   UNL     1      -8.194   8.695  72.876  1.00  0.00    -0.393 OA 
BRANCH   9  10
HETATM   10  C   UNL     1      -7.373   7.537  72.702  1.00  0.00    -0.075 C  
BRANCH  10  11
HETATM   11  C   UNL     1      -8.108   6.266  73.135  1.00  0.00    -0.110 C  
BRANCH  11  12
HETATM   12  C   UNL     1      -8.197   5.235  71.997  1.00  0.00    -0.118 C  
BRANCH  12  13
HETATM   13  C   UNL     1      -9.631   4.779  71.624  1.00  0.00    -0.216 C  
HETATM   14  C   UNL     1     -10.191   5.557  70.423  1.00  0.00    -0.321 C  
HETATM   15  C   UNL     1     -10.587   4.975  72.818  1.00  0.00    -0.274 C  
HETATM   16  C   UNL     1      -9.604   3.280  71.280  1.00  0.00    -0.159 C  
HETATM   17  O   UNL     1     -10.207   2.416  71.900  1.00  0.00    -0.150 OA 
HETATM   18  O   UNL     1      -8.840   2.962  70.209  1.00  0.00    -0.069 OA 
ENDBRANCH  12  13
ENDBRANCH  11  12
ENDBRANCH  10  11
ENDBRANCH   9  10
ENDBRANCH   4   9
TORSDOF 5
ENDMDL
MODEL      160
REMARK 921   NORMALIZED FREE ENERGY PREDICTED BY IDOCK:   -3.75 KCAL/MOL
REMARK 922        TOTAL FREE ENERGY PREDICTED BY IDOCK:   -5.33 KCAL/MOL
REMARK 923 INTER-LIGAND FREE ENERGY PREDICTED BY IDOCK:   -4.89 KCAL/MOL
REMARK 924 INTRA-LIGAND FREE ENERGY PREDICTED BY IDOCK:   -0.45 KCAL/MOL
REMARK 927      BINDING AFFINITY PREDICTED BY RF-SCORE:    0.00 PKD
ROOT
HETATM    1  C   UNL     1     -11.226  15.426  67.982  1.00  0.00    -0.326 C  
HETATM    2  C   UNL     1     -11.350  14.367  66.925  1.00  0.00    -0.357 A  
HETATM    3  C   UNL     1     -10.595  13.187  66.998  1.00  0.00    -0.259 A  
HETATM    4  C   UNL     1     -10.675  12.215  65.994  1.00  0.00    -0.273 A  
HETATM    5  C   UNL     1     -12.189  14.570  65.828  1.00  0.00    -0.270 A  
HETATM    6  C   UNL     1     -11.492  12.441  64.874  1.00  0.00    -0.378 A  
HETATM    7  C   UNL     1     -12.257  13.617  64.812  1.00  0.00    -0.440 A  
HETATM    8  C   UNL     1     -11.582  11.476  63.726  1.00  0.00    -0.329 C  
ENDROOT
BRANCH   4   9
HETATM    9  O   UNL     1      -9.924  11.070  65.992  1.00  0.00    -0.220 OA 
BRANCH   9  10
HETATM   10  C   UNL     1     -10.298  10.021  66.890  1.00  0.00    -0.234 C  
BRANCH  10  11
HETATM   11  C   UNL     1      -9.909   8.650  66.333  1.00  0.00    -0.341 C  
BRANCH  11  12
HETATM   12  C   UNL     1     -10.714   7.514  66.986  1.00  0.00    -0.367 C  
BRANCH  12  13
HETATM   13  C   UNL     1      -9.868   6.364  67.592  1.00  0.00    -0.138 C  
HETATM   14  C   UNL     1     -10.630   5.603  68.689  1.00  0.00    -0.268 C  
HETATM   15  C   UNL     1      -8.563   6.916  68.199  1.00  0.00    -0.123 C  
HETATM   16  C   UNL     1      -9.491   5.379  66.472  1.00  0.00    -0.149 C  
HETATM   17  O   UNL     1      -8.345   5.140  66.117  1.00  0.00    -0.112 OA 
HETATM   18  O   UNL     1     -10.543   4.771  65.877  1.00  0.00    -0.303 OA 
ENDBRANCH  12  13
ENDBRANCH  11  12
ENDBRANCH  10  11
ENDBRANCH   9  10
ENDBRANCH   4   9
TORSDOF 5
ENDMDL
MODEL      161
REMARK 921   NORMALIZED FREE ENERGY PREDICTED BY IDOCK:   -3.74 KCAL/MOL
REMARK 922        TOTAL FREE ENERGY PREDICTED BY IDOCK:   -5.31 KCAL/MOL
REMARK 923 INTER-LIGAND FREE ENERGY PREDICTED BY IDOCK:   -4.88 KCAL/MOL
REMARK 924 INTRA-LIGAND FREE ENERGY PREDICTED BY IDOCK:   -0.43 KCAL/MOL
REMARK 927      BINDING AFFINITY PREDICTED BY RF-SCORE:    0.00 PKD
ROOT
HETATM    1  C   UNL     1     -11.434   6.410  69.911  1.00  0.00    -0.483 C  
HETATM    2  C   UNL     1     -10.696   6.994  68.742  1.00  0.00    -0.226 A  
HETATM    3  C   UNL     1     -10.182   8.298  68.795  1.00  0.00    -0.226 A  
HETATM    4  C   UNL     1      -9.529   8.862  67.692  1.00  0.00    -0.138 A  
HETATM    5  C   UNL     1     -10.556   6.254  67.566  1.00  0.00    -0.348 A  
HETATM    6  C   UNL     1      -9.424   8.128  66.500  1.00  0.00    -0.286 A  
HETATM    7  C   UNL     1      -9.927   6.818  66.455  1.00  0.00    -0.146 A  
HETATM    8  C   UNL     1      -8.795   8.688  65.254  1.00  0.00    -0.178 C  
ENDROOT
BRANCH   4   9
HETATM    9  O   UNL     1      -9.053  10.145  67.674  1.00  0.00    -0.137 OA 
BRANCH   9  10
HETATM   10  C   UNL     1      -9.950  11.198  68.036  1.00  0.00    -0.176 C  
BRANCH  10  11
HETATM   11  C   UNL     1     -10.296  12.071  66.827  1.00  0.00    -0.233 C  
BRANCH  11  12
HETATM   12  C   UNL     1     -10.162  13.571  67.142  1.00  0.00    -0.247 C  
BRANCH  12  13
HETATM   13  C   UNL     1     -10.961  14.519  66.211  1.00  0.00    -0.323 C  
HETATM   14  C   UNL     1     -12.474  14.437  66.464  1.00  0.00    -0.151 C  
HETATM   15  C   UNL     1     -10.696  14.172  64.731  1.00  0.00    -0.436 C  
HETATM   16  C   UNL     1     -10.491  15.964  66.449  1.00  0.00    -0.308 C  
HETATM   17  O   UNL     1      -9.958  16.668  65.603  1.00  0.00    -0.519 OA 
HETATM   18  O   UNL     1     -10.711  16.428  67.701  1.00  0.00    -0.322 OA 
ENDBRANCH  12  13
ENDBRANCH  11  12
ENDBRANCH  10  11
ENDBRANCH   9  10
ENDBRANCH   4   9
TORSDOF 5
ENDMDL
MODEL      162
REMARK 921   NORMALIZED FREE ENERGY PREDICTED BY IDOCK:   -3.72 KCAL/MOL
REMARK 922        TOTAL FREE ENERGY PREDICTED BY IDOCK:   -5.29 KCAL/MOL
REMARK 923 INTER-LIGAND FREE ENERGY PREDICTED BY IDOCK:   -5.84 KCAL/MOL
REMARK 924 INTRA-LIGAND FREE ENERGY PREDICTED BY IDOCK:    0.54 KCAL/MOL
REMARK 927      BINDING AFFINITY PREDICTED BY RF-SCORE:    0.00 PKD
ROOT
HETATM    1  C   UNL     1      -5.866  16.120  68.824  1.00  0.00    -0.109 C  
HETATM    2  C   UNL     1      -7.084  16.910  68.444  1.00  0.00    -0.187 A  
HETATM    3  C   UNL     1      -8.229  16.270  67.946  1.00  0.00    -0.156 A  
HETATM    4  C   UNL     1      -9.353  17.006  67.551  1.00  0.00    -0.233 A  
HETATM    5  C   UNL     1      -7.070  18.303  68.538  1.00  0.00    -0.277 A  
HETATM    6  C   UNL     1      -9.320  18.408  67.613  1.00  0.00    -0.274 A  
HETATM    7  C   UNL     1      -8.177  19.044  68.124  1.00  0.00    -0.349 A  
HETATM    8  C   UNL     1     -10.461  19.269  67.147  1.00  0.00    -0.560 C  
ENDROOT
BRANCH   4   9
HETATM    9  O   UNL     1     -10.476  16.435  67.014  1.00  0.00    -0.299 OA 
BRANCH   9  10
HETATM   10  C   UNL     1     -10.602  15.012  67.080  1.00  0.00    -0.295 C  
BRANCH  10  11
HETATM   11  C   UNL     1      -9.766  14.331  65.995  1.00  0.00    -0.312 C  
BRANCH  11  12
HETATM   12  C   UNL     1     -10.585  14.060  64.721  1.00  0.00    -0.441 C  
BRANCH  12  13
HETATM   13  C   UNL     1     -11.714  13.008  64.868  1.00  0.00    -0.381 C  
HETATM   14  C   UNL     1     -11.906  12.184  63.585  1.00  0.00    -0.608 C  
HETATM   15  C   UNL     1     -13.052  13.695  65.209  1.00  0.00    -0.163 C  
HETATM   16  C   UNL     1     -11.361  12.057  66.024  1.00  0.00    -0.343 C  
HETATM   17  O   UNL     1     -12.024  11.932  67.045  1.00  0.00    -0.615 OA 
HETATM   18  O   UNL     1     -10.229  11.340  65.839  1.00  0.00    -0.233 OA 
ENDBRANCH  12  13
ENDBRANCH  11  12
ENDBRANCH  10  11
ENDBRANCH   9  10
ENDBRANCH   4   9
TORSDOF 5
ENDMDL
MODEL      163
REMARK 921   NORMALIZED FREE ENERGY PREDICTED BY IDOCK:   -3.71 KCAL/MOL
REMARK 922        TOTAL FREE ENERGY PREDICTED BY IDOCK:   -5.28 KCAL/MOL
REMARK 923 INTER-LIGAND FREE ENERGY PREDICTED BY IDOCK:   -4.60 KCAL/MOL
REMARK 924 INTRA-LIGAND FREE ENERGY PREDICTED BY IDOCK:   -0.68 KCAL/MOL
REMARK 927      BINDING AFFINITY PREDICTED BY RF-SCORE:    0.00 PKD
ROOT
HETATM    1  C   UNL     1     -12.186  14.840  71.906  1.00  0.00    -0.415 C  
HETATM    2  C   UNL     1     -12.005  14.561  70.443  1.00  0.00    -0.386 A  
HETATM    3  C   UNL     1     -12.075  13.251  69.947  1.00  0.00    -0.377 A  
HETATM    4  C   UNL     1     -11.866  12.980  68.589  1.00  0.00    -0.318 A  
HETATM    5  C   UNL     1     -11.715  15.606  69.564  1.00  0.00    -0.382 A  
HETATM    6  C   UNL     1     -11.538  14.030  67.716  1.00  0.00    -0.378 A  
HETATM    7  C   UNL     1     -11.481  15.342  68.214  1.00  0.00    -0.359 A  
HETATM    8  C   UNL     1     -11.235  13.811  66.260  1.00  0.00    -0.310 C  
ENDROOT
BRANCH   4   9
HETATM    9  O   UNL     1     -11.875  11.716  68.063  1.00  0.00    -0.514 OA 
BRANCH   9  10
HETATM   10  C   UNL     1     -11.448  10.638  68.900  1.00  0.00    -0.265 C  
BRANCH  10  11
HETATM   11  C   UNL     1     -10.250   9.906  68.291  1.00  0.00    -0.204 C  
BRANCH  11  12
HETATM   12  C   UNL     1      -9.302  10.865  67.552  1.00  0.00    -0.164 C  
BRANCH  12  13
HETATM   13  C   UNL     1      -7.845  10.898  68.081  1.00  0.00    -0.114 C  
HETATM   14  C   UNL     1      -6.859  10.245  67.100  1.00  0.00    -0.082 C  
HETATM   15  C   UNL     1      -7.745  10.162  69.433  1.00  0.00    -0.138 C  
HETATM   16  C   UNL     1      -7.430  12.362  68.307  1.00  0.00    -0.124 C  
HETATM   17  O   UNL     1      -7.129  12.837  69.393  1.00  0.00     0.026 OA 
HETATM   18  O   UNL     1      -7.419  13.124  67.189  1.00  0.00    -0.103 OA 
ENDBRANCH  12  13
ENDBRANCH  11  12
ENDBRANCH  10  11
ENDBRANCH   9  10
ENDBRANCH   4   9
TORSDOF 5
ENDMDL
MODEL      164
REMARK 921   NORMALIZED FREE ENERGY PREDICTED BY IDOCK:   -3.71 KCAL/MOL
REMARK 922        TOTAL FREE ENERGY PREDICTED BY IDOCK:   -5.28 KCAL/MOL
REMARK 923 INTER-LIGAND FREE ENERGY PREDICTED BY IDOCK:   -4.76 KCAL/MOL
REMARK 924 INTRA-LIGAND FREE ENERGY PREDICTED BY IDOCK:   -0.51 KCAL/MOL
REMARK 927      BINDING AFFINITY PREDICTED BY RF-SCORE:    0.00 PKD
ROOT
HETATM    1  C   UNL     1     -12.052  12.882  64.255  1.00  0.00    -0.487 C  
HETATM    2  C   UNL     1     -11.761  13.408  65.629  1.00  0.00    -0.374 A  
HETATM    3  C   UNL     1     -11.645  12.538  66.723  1.00  0.00    -0.446 A  
HETATM    4  C   UNL     1     -11.414  13.027  68.015  1.00  0.00    -0.309 A  
HETATM    5  C   UNL     1     -11.648  14.784  65.840  1.00  0.00    -0.286 A  
HETATM    6  C   UNL     1     -11.340  14.413  68.227  1.00  0.00    -0.311 A  
HETATM    7  C   UNL     1     -11.443  15.281  67.127  1.00  0.00    -0.202 A  
HETATM    8  C   UNL     1     -11.160  15.018  69.591  1.00  0.00    -0.291 C  
ENDROOT
BRANCH   4   9
HETATM    9  O   UNL     1     -11.342  12.226  69.122  1.00  0.00    -0.248 OA 
BRANCH   9  10
HETATM   10  C   UNL     1     -11.783  10.871  68.999  1.00  0.00    -0.320 C  
BRANCH  10  11
HETATM   11  C   UNL     1     -10.767   9.900  69.605  1.00  0.00    -0.277 C  
BRANCH  11  12
HETATM   12  C   UNL     1      -9.838   9.298  68.537  1.00  0.00    -0.173 C  
BRANCH  12  13
HETATM   13  C   UNL     1      -9.471   7.806  68.741  1.00  0.00    -0.149 C  
HETATM   14  C   UNL     1     -10.184   7.197  69.959  1.00  0.00    -0.205 C  
HETATM   15  C   UNL     1      -7.949   7.646  68.938  1.00  0.00    -0.125 C  
HETATM   16  C   UNL     1      -9.870   7.017  67.482  1.00  0.00    -0.148 C  
HETATM   17  O   UNL     1      -9.083   6.422  66.759  1.00  0.00    -0.130 OA 
HETATM   18  O   UNL     1     -11.195   7.022  67.210  1.00  0.00    -0.281 OA 
ENDBRANCH  12  13
ENDBRANCH  11  12
ENDBRANCH  10  11
ENDBRANCH   9  10
ENDBRANCH   4   9
TORSDOF 5
ENDMDL
MODEL      165
REMARK 921   NORMALIZED FREE ENERGY PREDICTED BY IDOCK:   -3.69 KCAL/MOL
REMARK 922        TOTAL FREE ENERGY PREDICTED BY IDOCK:   -5.26 KCAL/MOL
REMARK 923 INTER-LIGAND FREE ENERGY PREDICTED BY IDOCK:   -5.07 KCAL/MOL
REMARK 924 INTRA-LIGAND FREE ENERGY PREDICTED BY IDOCK:   -0.19 KCAL/MOL
REMARK 927      BINDING AFFINITY PREDICTED BY RF-SCORE:    0.00 PKD
ROOT
HETATM    1  C   UNL     1     -13.154  15.249  71.617  1.00  0.00    -0.507 C  
HETATM    2  C   UNL     1     -12.526  14.663  70.386  1.00  0.00    -0.410 A  
HETATM    3  C   UNL     1     -12.419  13.274  70.225  1.00  0.00    -0.255 A  
HETATM    4  C   UNL     1     -11.797  12.723  69.098  1.00  0.00    -0.301 A  
HETATM    5  C   UNL     1     -11.995  15.504  69.405  1.00  0.00    -0.358 A  
HETATM    6  C   UNL     1     -11.232  13.573  68.133  1.00  0.00    -0.302 A  
HETATM    7  C   UNL     1     -11.353  14.963  68.291  1.00  0.00    -0.325 A  
HETATM    8  C   UNL     1     -10.492  13.058  66.931  1.00  0.00    -0.258 C  
ENDROOT
BRANCH   4   9
HETATM    9  O   UNL     1     -11.624  11.377  68.916  1.00  0.00    -0.264 OA 
BRANCH   9  10
HETATM   10  C   UNL     1     -10.418  10.784  69.404  1.00  0.00    -0.200 C  
BRANCH  10  11
HETATM   11  C   UNL     1     -10.702   9.465  70.126  1.00  0.00    -0.282 C  
BRANCH  11  12
HETATM   12  C   UNL     1      -9.943   8.286  69.492  1.00  0.00    -0.187 C  
BRANCH  12  13
HETATM   13  C   UNL     1     -10.301   6.886  70.054  1.00  0.00    -0.219 C  
HETATM   14  C   UNL     1     -11.742   6.828  70.585  1.00  0.00    -0.440 C  
HETATM   15  C   UNL     1      -9.344   6.505  71.202  1.00  0.00    -0.167 C  
HETATM   16  C   UNL     1     -10.138   5.843  68.936  1.00  0.00    -0.180 C  
HETATM   17  O   UNL     1      -9.341   4.916  68.964  1.00  0.00    -0.112 OA 
HETATM   18  O   UNL     1     -10.960   6.021  67.875  1.00  0.00    -0.302 OA 
ENDBRANCH  12  13
ENDBRANCH  11  12
ENDBRANCH  10  11
ENDBRANCH   9  10
ENDBRANCH   4   9
TORSDOF 5
ENDMDL
MODEL      166
REMARK 921   NORMALIZED FREE ENERGY PREDICTED BY IDOCK:   -3.68 KCAL/MOL
REMARK 922        TOTAL FREE ENERGY PREDICTED BY IDOCK:   -5.23 KCAL/MOL
REMARK 923 INTER-LIGAND FREE ENERGY PREDICTED BY IDOCK:   -4.58 KCAL/MOL
REMARK 924 INTRA-LIGAND FREE ENERGY PREDICTED BY IDOCK:   -0.66 KCAL/MOL
REMARK 927      BINDING AFFINITY PREDICTED BY RF-SCORE:    0.00 PKD
ROOT
HETATM    1  C   UNL     1      -8.754   9.494  63.544  1.00  0.00    -0.235 C  
HETATM    2  C   UNL     1      -9.476  10.092  64.715  1.00  0.00    -0.366 A  
HETATM    3  C   UNL     1      -9.500   9.437  65.956  1.00  0.00    -0.304 A  
HETATM    4  C   UNL     1     -10.207   9.970  67.040  1.00  0.00    -0.237 A  
HETATM    5  C   UNL     1     -10.175  11.291  64.566  1.00  0.00    -0.370 A  
HETATM    6  C   UNL     1     -10.939  11.156  66.874  1.00  0.00    -0.333 A  
HETATM    7  C   UNL     1     -10.902  11.816  65.635  1.00  0.00    -0.342 A  
HETATM    8  C   UNL     1     -11.774  11.756  67.971  1.00  0.00    -0.363 C  
ENDROOT
BRANCH   4   9
HETATM    9  O   UNL     1     -10.303   9.347  68.256  1.00  0.00    -0.195 OA 
BRANCH   9  10
HETATM   10  C   UNL     1      -9.100   9.146  69.003  1.00  0.00    -0.143 C  
BRANCH  10  11
HETATM   11  C   UNL     1      -9.406   8.758  70.452  1.00  0.00    -0.205 C  
BRANCH  11  12
HETATM   12  C   UNL     1     -10.613   9.529  71.013  1.00  0.00    -0.392 C  
BRANCH  12  13
HETATM   13  C   UNL     1     -11.925   8.713  71.132  1.00  0.00    -0.320 C  
HETATM   14  C   UNL     1     -11.806   7.329  70.475  1.00  0.00    -0.237 C  
HETATM   15  C   UNL     1     -13.093   9.469  70.465  1.00  0.00     0.215 C  
HETATM   16  C   UNL     1     -12.267   8.533  72.620  1.00  0.00    -0.228 C  
HETATM   17  O   UNL     1     -13.275   8.971  73.158  1.00  0.00    -0.200 OA 
HETATM   18  O   UNL     1     -11.350   7.834  73.329  1.00  0.00    -0.321 OA 
ENDBRANCH  12  13
ENDBRANCH  11  12
ENDBRANCH  10  11
ENDBRANCH   9  10
ENDBRANCH   4   9
TORSDOF 5
ENDMDL
MODEL      167
REMARK 921   NORMALIZED FREE ENERGY PREDICTED BY IDOCK:   -3.68 KCAL/MOL
REMARK 922        TOTAL FREE ENERGY PREDICTED BY IDOCK:   -5.23 KCAL/MOL
REMARK 923 INTER-LIGAND FREE ENERGY PREDICTED BY IDOCK:   -4.56 KCAL/MOL
REMARK 924 INTRA-LIGAND FREE ENERGY PREDICTED BY IDOCK:   -0.68 KCAL/MOL
REMARK 927      BINDING AFFINITY PREDICTED BY RF-SCORE:    0.00 PKD
ROOT
HETATM    1  C   UNL     1     -10.704   4.303  73.842  1.00  0.00    -0.335 C  
HETATM    2  C   UNL     1     -10.454   4.672  72.409  1.00  0.00    -0.250 A  
HETATM    3  C   UNL     1     -10.795   5.943  71.924  1.00  0.00    -0.307 A  
HETATM    4  C   UNL     1     -10.602   6.279  70.579  1.00  0.00    -0.249 A  
HETATM    5  C   UNL     1      -9.918   3.730  71.529  1.00  0.00    -0.195 A  
HETATM    6  C   UNL     1     -10.098   5.316  69.690  1.00  0.00    -0.327 A  
HETATM    7  C   UNL     1      -9.745   4.049  70.182  1.00  0.00    -0.265 A  
HETATM    8  C   UNL     1      -9.924   5.579  68.220  1.00  0.00    -0.201 C  
ENDROOT
BRANCH   4   9
HETATM    9  O   UNL     1     -10.963   7.487  70.045  1.00  0.00    -0.257 OA 
BRANCH   9  10
HETATM   10  C   UNL     1     -11.119   8.594  70.936  1.00  0.00    -0.264 C  
BRANCH  10  11
HETATM   11  C   UNL     1     -10.704   9.907  70.267  1.00  0.00    -0.367 C  
BRANCH  11  12
HETATM   12  C   UNL     1      -9.802   9.671  69.044  1.00  0.00    -0.183 C  
BRANCH  12  13
HETATM   13  C   UNL     1     -10.203  10.446  67.763  1.00  0.00    -0.229 C  
HETATM   14  C   UNL     1     -11.494  11.257  67.960  1.00  0.00    -0.369 C  
HETATM   15  C   UNL     1     -10.416   9.471  66.587  1.00  0.00    -0.241 C  
HETATM   16  C   UNL     1      -9.063  11.405  67.382  1.00  0.00    -0.160 C  
HETATM   17  O   UNL     1      -8.424  11.343  66.341  1.00  0.00    -0.173 OA 
HETATM   18  O   UNL     1      -8.796  12.358  68.305  1.00  0.00    -0.185 OA 
ENDBRANCH  12  13
ENDBRANCH  11  12
ENDBRANCH  10  11
ENDBRANCH   9  10
ENDBRANCH   4   9
TORSDOF 5
ENDMDL
MODEL      168
REMARK 921   NORMALIZED FREE ENERGY PREDICTED BY IDOCK:   -3.68 KCAL/MOL
REMARK 922        TOTAL FREE ENERGY PREDICTED BY IDOCK:   -5.23 KCAL/MOL
REMARK 923 INTER-LIGAND FREE ENERGY PREDICTED BY IDOCK:   -3.98 KCAL/MOL
REMARK 924 INTRA-LIGAND FREE ENERGY PREDICTED BY IDOCK:   -1.25 KCAL/MOL
REMARK 927      BINDING AFFINITY PREDICTED BY RF-SCORE:    0.00 PKD
ROOT
HETATM    1  C   UNL     1      -7.256  13.839  68.113  1.00  0.00    -0.121 C  
HETATM    2  C   UNL     1      -8.655  13.898  67.574  1.00  0.00    -0.195 A  
HETATM    3  C   UNL     1      -9.705  13.233  68.224  1.00  0.00    -0.225 A  
HETATM    4  C   UNL     1     -11.004  13.251  67.703  1.00  0.00    -0.262 A  
HETATM    5  C   UNL     1      -8.917  14.583  66.386  1.00  0.00    -0.153 A  
HETATM    6  C   UNL     1     -11.254  13.909  66.488  1.00  0.00    -0.327 A  
HETATM    7  C   UNL     1     -10.204  14.585  65.847  1.00  0.00    -0.339 A  
HETATM    8  C   UNL     1     -12.607  13.918  65.832  1.00  0.00    -0.498 C  
ENDROOT
BRANCH   4   9
HETATM    9  O   UNL     1     -12.053  12.578  68.271  1.00  0.00    -0.284 OA 
BRANCH   9  10
HETATM   10  C   UNL     1     -11.787  11.312  68.880  1.00  0.00    -0.345 C  
BRANCH  10  11
HETATM   11  C   UNL     1     -11.376  10.271  67.837  1.00  0.00    -0.181 C  
BRANCH  11  12
HETATM   12  C   UNL     1     -10.074   9.549  68.226  1.00  0.00    -0.210 C  
BRANCH  12  13
HETATM   13  C   UNL     1      -8.920   9.659  67.195  1.00  0.00    -0.148 C  
HETATM   14  C   UNL     1      -7.651  10.268  67.812  1.00  0.00    -0.089 C  
HETATM   15  C   UNL     1      -9.347  10.533  65.998  1.00  0.00    -0.215 C  
HETATM   16  C   UNL     1      -8.592   8.254  66.663  1.00  0.00    -0.129 C  
HETATM   17  O   UNL     1      -8.711   7.910  65.495  1.00  0.00    -0.148 OA 
HETATM   18  O   UNL     1      -8.149   7.384  67.600  1.00  0.00    -0.112 OA 
ENDBRANCH  12  13
ENDBRANCH  11  12
ENDBRANCH  10  11
ENDBRANCH   9  10
ENDBRANCH   4   9
TORSDOF 5
ENDMDL
MODEL      169
REMARK 921   NORMALIZED FREE ENERGY PREDICTED BY IDOCK:   -3.67 KCAL/MOL
REMARK 922        TOTAL FREE ENERGY PREDICTED BY IDOCK:   -5.23 KCAL/MOL
REMARK 923 INTER-LIGAND FREE ENERGY PREDICTED BY IDOCK:   -4.57 KCAL/MOL
REMARK 924 INTRA-LIGAND FREE ENERGY PREDICTED BY IDOCK:   -0.66 KCAL/MOL
REMARK 927      BINDING AFFINITY PREDICTED BY RF-SCORE:    0.00 PKD
ROOT
HETATM    1  C   UNL     1      -7.798   4.748  64.529  1.00  0.00    -0.089 C  
HETATM    2  C   UNL     1      -8.467   5.849  65.299  1.00  0.00    -0.144 A  
HETATM    3  C   UNL     1      -9.512   5.569  66.193  1.00  0.00    -0.166 A  
HETATM    4  C   UNL     1     -10.166   6.596  66.883  1.00  0.00    -0.220 A  
HETATM    5  C   UNL     1      -8.084   7.176  65.095  1.00  0.00    -0.127 A  
HETATM    6  C   UNL     1      -9.802   7.932  66.646  1.00  0.00    -0.311 A  
HETATM    7  C   UNL     1      -8.747   8.207  65.761  1.00  0.00    -0.183 A  
HETATM    8  C   UNL     1     -10.501   9.092  67.298  1.00  0.00    -0.343 C  
ENDROOT
BRANCH   4   9
HETATM    9  O   UNL     1     -11.222   6.382  67.728  1.00  0.00    -0.323 OA 
BRANCH   9  10
HETATM   10  C   UNL     1     -10.978   5.656  68.935  1.00  0.00    -0.066 C  
BRANCH  10  11
HETATM   11  C   UNL     1     -11.254   6.520  70.168  1.00  0.00    -0.437 C  
BRANCH  11  12
HETATM   12  C   UNL     1      -9.956   6.958  70.867  1.00  0.00    -0.200 C  
BRANCH  12  13
HETATM   13  C   UNL     1     -10.125   8.041  71.964  1.00  0.00    -0.280 C  
HETATM   14  C   UNL     1      -8.798   8.358  72.672  1.00  0.00    -0.288 C  
HETATM   15  C   UNL     1     -11.144   7.579  73.026  1.00  0.00    -0.413 C  
HETATM   16  C   UNL     1     -10.666   9.326  71.316  1.00  0.00    -0.352 C  
HETATM   17  O   UNL     1     -11.745   9.837  71.584  1.00  0.00    -0.385 OA 
HETATM   18  O   UNL     1      -9.846   9.881  70.393  1.00  0.00    -0.246 OA 
ENDBRANCH  12  13
ENDBRANCH  11  12
ENDBRANCH  10  11
ENDBRANCH   9  10
ENDBRANCH   4   9
TORSDOF 5
ENDMDL
MODEL      170
REMARK 921   NORMALIZED FREE ENERGY PREDICTED BY IDOCK:   -3.64 KCAL/MOL
REMARK 922        TOTAL FREE ENERGY PREDICTED BY IDOCK:   -5.19 KCAL/MOL
REMARK 923 INTER-LIGAND FREE ENERGY PREDICTED BY IDOCK:   -4.64 KCAL/MOL
REMARK 924 INTRA-LIGAND FREE ENERGY PREDICTED BY IDOCK:   -0.55 KCAL/MOL
REMARK 927      BINDING AFFINITY PREDICTED BY RF-SCORE:    0.00 PKD
ROOT
HETATM    1  C   UNL     1     -11.931  13.626  68.194  1.00  0.00    -0.390 C  
HETATM    2  C   UNL     1     -11.541  12.850  66.970  1.00  0.00    -0.419 A  
HETATM    3  C   UNL     1     -10.696  11.734  67.065  1.00  0.00    -0.286 A  
HETATM    4  C   UNL     1     -10.295  11.032  65.922  1.00  0.00    -0.257 A  
HETATM    5  C   UNL     1     -11.980  13.265  65.711  1.00  0.00    -0.463 A  
HETATM    6  C   UNL     1     -10.709  11.476  64.656  1.00  0.00    -0.379 A  
HETATM    7  C   UNL     1     -11.566  12.585  64.565  1.00  0.00    -0.406 A  
HETATM    8  C   UNL     1     -10.269  10.815  63.379  1.00  0.00    -0.287 C  
ENDROOT
BRANCH   4   9
HETATM    9  O   UNL     1      -9.434   9.968  65.955  1.00  0.00    -0.176 OA 
BRANCH   9  10
HETATM   10  C   UNL     1      -8.825   9.637  67.205  1.00  0.00    -0.132 C  
BRANCH  10  11
HETATM   11  C   UNL     1      -7.906   8.421  67.070  1.00  0.00    -0.096 C  
BRANCH  11  12
HETATM   12  C   UNL     1      -8.470   7.378  66.089  1.00  0.00    -0.147 C  
BRANCH  12  13
HETATM   13  C   UNL     1      -8.842   6.010  66.716  1.00  0.00    -0.120 C  
HETATM   14  C   UNL     1      -8.695   6.017  68.246  1.00  0.00    -0.113 C  
HETATM   15  C   UNL     1      -7.943   4.893  66.147  1.00  0.00    -0.107 C  
HETATM   16  C   UNL     1     -10.299   5.675  66.355  1.00  0.00    -0.187 C  
HETATM   17  O   UNL     1     -10.642   4.710  65.686  1.00  0.00    -0.287 OA 
HETATM   18  O   UNL     1     -11.214   6.546  66.838  1.00  0.00    -0.387 OA 
ENDBRANCH  12  13
ENDBRANCH  11  12
ENDBRANCH  10  11
ENDBRANCH   9  10
ENDBRANCH   4   9
TORSDOF 5
ENDMDL
MODEL      171
REMARK 921   NORMALIZED FREE ENERGY PREDICTED BY IDOCK:   -3.64 KCAL/MOL
REMARK 922        TOTAL FREE ENERGY PREDICTED BY IDOCK:   -5.19 KCAL/MOL
REMARK 923 INTER-LIGAND FREE ENERGY PREDICTED BY IDOCK:   -4.63 KCAL/MOL
REMARK 924 INTRA-LIGAND FREE ENERGY PREDICTED BY IDOCK:   -0.56 KCAL/MOL
REMARK 927      BINDING AFFINITY PREDICTED BY RF-SCORE:    0.00 PKD
ROOT
HETATM    1  C   UNL     1      -6.963   7.302  65.367  1.00  0.00    -0.060 C  
HETATM    2  C   UNL     1      -7.931   8.395  65.019  1.00  0.00    -0.139 A  
HETATM    3  C   UNL     1      -8.755   8.964  66.001  1.00  0.00    -0.185 A  
HETATM    4  C   UNL     1      -9.689   9.956  65.675  1.00  0.00    -0.279 A  
HETATM    5  C   UNL     1      -8.053   8.824  63.696  1.00  0.00    -0.169 A  
HETATM    6  C   UNL     1      -9.834  10.357  64.337  1.00  0.00    -0.395 A  
HETATM    7  C   UNL     1      -8.998   9.794  63.359  1.00  0.00    -0.271 A  
HETATM    8  C   UNL     1     -10.857  11.367  63.898  1.00  0.00    -0.463 C  
ENDROOT
BRANCH   4   9
HETATM    9  O   UNL     1     -10.549  10.509  66.585  1.00  0.00    -0.241 OA 
BRANCH   9  10
HETATM   10  C   UNL     1     -10.007  11.392  67.570  1.00  0.00    -0.182 C  
BRANCH  10  11
HETATM   11  C   UNL     1      -9.909  10.707  68.935  1.00  0.00    -0.210 C  
BRANCH  11  12
HETATM   12  C   UNL     1     -10.963   9.599  69.101  1.00  0.00    -0.177 C  
BRANCH  12  13
HETATM   13  C   UNL     1     -10.776   8.684  70.339  1.00  0.00    -0.248 C  
HETATM   14  C   UNL     1      -9.510   9.041  71.134  1.00  0.00    -0.348 C  
HETATM   15  C   UNL     1     -10.680   7.206  69.909  1.00  0.00    -0.258 C  
HETATM   16  C   UNL     1     -12.001   8.832  71.257  1.00  0.00    -0.301 C  
HETATM   17  O   UNL     1     -12.772   7.925  71.535  1.00  0.00    -0.317 OA 
HETATM   18  O   UNL     1     -12.183  10.076  71.759  1.00  0.00    -0.384 OA 
ENDBRANCH  12  13
ENDBRANCH  11  12
ENDBRANCH  10  11
ENDBRANCH   9  10
ENDBRANCH   4   9
TORSDOF 5
ENDMDL
MODEL      172
REMARK 921   NORMALIZED FREE ENERGY PREDICTED BY IDOCK:   -3.64 KCAL/MOL
REMARK 922        TOTAL FREE ENERGY PREDICTED BY IDOCK:   -5.19 KCAL/MOL
REMARK 923 INTER-LIGAND FREE ENERGY PREDICTED BY IDOCK:   -4.83 KCAL/MOL
REMARK 924 INTRA-LIGAND FREE ENERGY PREDICTED BY IDOCK:   -0.35 KCAL/MOL
REMARK 927      BINDING AFFINITY PREDICTED BY RF-SCORE:    0.00 PKD
ROOT
HETATM    1  C   UNL     1     -10.116  19.609  68.694  1.00  0.00    -0.547 C  
HETATM    2  C   UNL     1     -10.297  18.345  67.906  1.00  0.00    -0.425 A  
HETATM    3  C   UNL     1     -10.123  17.091  68.510  1.00  0.00    -0.303 A  
HETATM    4  C   UNL     1     -10.250  15.909  67.770  1.00  0.00    -0.260 A  
HETATM    5  C   UNL     1     -10.595  18.408  66.544  1.00  0.00    -0.344 A  
HETATM    6  C   UNL     1     -10.513  15.979  66.393  1.00  0.00    -0.313 A  
HETATM    7  C   UNL     1     -10.699  17.236  65.794  1.00  0.00    -0.132 A  
HETATM    8  C   UNL     1     -10.598  14.759  65.519  1.00  0.00    -0.374 C  
ENDROOT
BRANCH   4   9
HETATM    9  O   UNL     1     -10.043  14.663  68.299  1.00  0.00    -0.218 OA 
BRANCH   9  10
HETATM   10  C   UNL     1     -11.140  14.021  68.952  1.00  0.00    -0.268 C  
BRANCH  10  11
HETATM   11  C   UNL     1     -11.046  12.499  68.829  1.00  0.00    -0.314 C  
BRANCH  11  12
HETATM   12  C   UNL     1     -11.174  11.801  70.194  1.00  0.00     0.126 C  
BRANCH  12  13
HETATM   13  C   UNL     1     -11.368  10.263  70.138  1.00  0.00    -0.388 C  
HETATM   14  C   UNL     1     -11.411   9.739  68.694  1.00  0.00     0.134 C  
HETATM   15  C   UNL     1     -12.680   9.860  70.841  1.00  0.00    -0.376 C  
HETATM   16  C   UNL     1     -10.205   9.586  70.881  1.00  0.00    -0.286 C  
HETATM   17  O   UNL     1     -10.331   8.896  71.884  1.00  0.00    -0.322 OA 
HETATM   18  O   UNL     1      -8.984   9.809  70.341  1.00  0.00    -0.223 OA 
ENDBRANCH  12  13
ENDBRANCH  11  12
ENDBRANCH  10  11
ENDBRANCH   9  10
ENDBRANCH   4   9
TORSDOF 5
ENDMDL
MODEL      173
REMARK 921   NORMALIZED FREE ENERGY PREDICTED BY IDOCK:   -3.64 KCAL/MOL
REMARK 922        TOTAL FREE ENERGY PREDICTED BY IDOCK:   -5.19 KCAL/MOL
REMARK 923 INTER-LIGAND FREE ENERGY PREDICTED BY IDOCK:   -4.49 KCAL/MOL
REMARK 924 INTRA-LIGAND FREE ENERGY PREDICTED BY IDOCK:   -0.70 KCAL/MOL
REMARK 927      BINDING AFFINITY PREDICTED BY RF-SCORE:    0.00 PKD
ROOT
HETATM    1  C   UNL     1     -13.137   9.285  71.849  1.00  0.00    -0.490 C  
HETATM    2  C   UNL     1     -11.717   9.350  71.370  1.00  0.00    -0.448 A  
HETATM    3  C   UNL     1     -10.670   8.841  72.153  1.00  0.00    -0.383 A  
HETATM    4  C   UNL     1      -9.339   8.936  71.730  1.00  0.00    -0.234 A  
HETATM    5  C   UNL     1     -11.418   9.965  70.153  1.00  0.00    -0.309 A  
HETATM    6  C   UNL     1      -9.041   9.589  70.523  1.00  0.00    -0.276 A  
HETATM    7  C   UNL     1     -10.092  10.085  69.735  1.00  0.00    -0.284 A  
HETATM    8  C   UNL     1      -7.634   9.788  70.033  1.00  0.00    -0.169 C  
ENDROOT
BRANCH   4   9
HETATM    9  O   UNL     1      -8.278   8.500  72.477  1.00  0.00    -0.293 OA 
BRANCH   9  10
HETATM   10  C   UNL     1      -7.955   7.107  72.436  1.00  0.00    -0.096 C  
BRANCH  10  11
HETATM   11  C   UNL     1      -8.992   6.322  71.628  1.00  0.00    -0.144 C  
BRANCH  11  12
HETATM   12  C   UNL     1      -8.522   6.061  70.187  1.00  0.00    -0.127 C  
BRANCH  12  13
HETATM   13  C   UNL     1      -9.598   5.482  69.232  1.00  0.00    -0.184 C  
HETATM   14  C   UNL     1     -11.020   5.885  69.653  1.00  0.00    -0.447 C  
HETATM   15  C   UNL     1      -9.519   3.942  69.200  1.00  0.00    -0.246 C  
HETATM   16  C   UNL     1      -9.332   6.000  67.809  1.00  0.00    -0.106 C  
HETATM   17  O   UNL     1      -9.057   5.288  66.853  1.00  0.00    -0.113 OA 
HETATM   18  O   UNL     1      -9.421   7.343  67.671  1.00  0.00    -0.134 OA 
ENDBRANCH  12  13
ENDBRANCH  11  12
ENDBRANCH  10  11
ENDBRANCH   9  10
ENDBRANCH   4   9
TORSDOF 5
ENDMDL
MODEL      174
REMARK 921   NORMALIZED FREE ENERGY PREDICTED BY IDOCK:   -3.64 KCAL/MOL
REMARK 922        TOTAL FREE ENERGY PREDICTED BY IDOCK:   -5.19 KCAL/MOL
REMARK 923 INTER-LIGAND FREE ENERGY PREDICTED BY IDOCK:   -4.52 KCAL/MOL
REMARK 924 INTRA-LIGAND FREE ENERGY PREDICTED BY IDOCK:   -0.67 KCAL/MOL
REMARK 927      BINDING AFFINITY PREDICTED BY RF-SCORE:    0.00 PKD
ROOT
HETATM    1  C   UNL     1     -13.558   9.590  71.461  1.00  0.00    -0.397 C  
HETATM    2  C   UNL     1     -12.180   9.057  71.722  1.00  0.00    -0.434 A  
HETATM    3  C   UNL     1     -11.964   8.064  72.690  1.00  0.00    -0.334 A  
HETATM    4  C   UNL     1     -10.675   7.593  72.966  1.00  0.00    -0.391 A  
HETATM    5  C   UNL     1     -11.086   9.582  71.031  1.00  0.00    -0.433 A  
HETATM    6  C   UNL     1      -9.575   8.151  72.295  1.00  0.00    -0.319 A  
HETATM    7  C   UNL     1      -9.796   9.134  71.317  1.00  0.00    -0.363 A  
HETATM    8  C   UNL     1      -8.157   7.744  72.582  1.00  0.00    -0.158 C  
ENDROOT
BRANCH   4   9
HETATM    9  O   UNL     1     -10.405   6.662  73.933  1.00  0.00    -0.311 OA 
BRANCH   9  10
HETATM   10  C   UNL     1     -10.819   5.314  73.701  1.00  0.00    -0.294 C  
BRANCH  10  11
HETATM   11  C   UNL     1     -10.644   4.925  72.231  1.00  0.00    -0.251 C  
BRANCH  11  12
HETATM   12  C   UNL     1     -10.001   3.536  72.075  1.00  0.00    -0.227 C  
BRANCH  12  13
HETATM   13  C   UNL     1      -8.669   3.505  71.282  1.00  0.00    -0.121 C  
HETATM   14  C   UNL     1      -8.261   2.075  70.895  1.00  0.00    -0.064 C  
HETATM   15  C   UNL     1      -7.531   4.127  72.116  1.00  0.00    -0.070 C  
HETATM   16  C   UNL     1      -8.831   4.343  70.003  1.00  0.00    -0.080 C  
HETATM   17  O   UNL     1      -8.187   5.351  69.748  1.00  0.00    -0.096 OA 
HETATM   18  O   UNL     1      -9.767   3.882  69.141  1.00  0.00    -0.176 OA 
ENDBRANCH  12  13
ENDBRANCH  11  12
ENDBRANCH  10  11
ENDBRANCH   9  10
ENDBRANCH   4   9
TORSDOF 5
ENDMDL
MODEL      175
REMARK 921   NORMALIZED FREE ENERGY PREDICTED BY IDOCK:   -3.64 KCAL/MOL
REMARK 922        TOTAL FREE ENERGY PREDICTED BY IDOCK:   -5.18 KCAL/MOL
REMARK 923 INTER-LIGAND FREE ENERGY PREDICTED BY IDOCK:   -4.46 KCAL/MOL
REMARK 924 INTRA-LIGAND FREE ENERGY PREDICTED BY IDOCK:   -0.72 KCAL/MOL
REMARK 927      BINDING AFFINITY PREDICTED BY RF-SCORE:    0.00 PKD
ROOT
HETATM    1  C   UNL     1     -14.401   7.131  71.730  1.00  0.00    -0.515 C  
HETATM    2  C   UNL     1     -12.994   7.601  71.500  1.00  0.00    -0.378 A  
HETATM    3  C   UNL     1     -12.057   6.777  70.859  1.00  0.00    -0.421 A  
HETATM    4  C   UNL     1     -10.732   7.194  70.679  1.00  0.00    -0.235 A  
HETATM    5  C   UNL     1     -12.591   8.854  71.967  1.00  0.00    -0.460 A  
HETATM    6  C   UNL     1     -10.323   8.439  71.184  1.00  0.00    -0.264 A  
HETATM    7  C   UNL     1     -11.268   9.267  71.813  1.00  0.00    -0.413 A  
HETATM    8  C   UNL     1      -8.905   8.929  71.088  1.00  0.00    -0.297 C  
ENDROOT
BRANCH   4   9
HETATM    9  O   UNL     1      -9.767   6.411  70.105  1.00  0.00    -0.165 OA 
BRANCH   9  10
HETATM   10  C   UNL     1      -9.895   6.099  68.716  1.00  0.00    -0.136 C  
BRANCH  10  11
HETATM   11  C   UNL     1      -8.774   6.745  67.898  1.00  0.00    -0.120 C  
BRANCH  11  12
HETATM   12  C   UNL     1      -9.086   8.210  67.548  1.00  0.00    -0.147 C  
BRANCH  12  13
HETATM   13  C   UNL     1      -8.160   8.851  66.483  1.00  0.00    -0.107 C  
HETATM   14  C   UNL     1      -7.774   7.854  65.379  1.00  0.00    -0.097 C  
HETATM   15  C   UNL     1      -6.866   9.376  67.138  1.00  0.00    -0.084 C  
HETATM   16  C   UNL     1      -8.886  10.047  65.844  1.00  0.00    -0.144 C  
HETATM   17  O   UNL     1      -8.502  11.206  65.909  1.00  0.00    -0.165 OA 
HETATM   18  O   UNL     1     -10.022   9.728  65.182  1.00  0.00    -0.309 OA 
ENDBRANCH  12  13
ENDBRANCH  11  12
ENDBRANCH  10  11
ENDBRANCH   9  10
ENDBRANCH   4   9
TORSDOF 5
ENDMDL
MODEL      176
REMARK 921   NORMALIZED FREE ENERGY PREDICTED BY IDOCK:   -3.63 KCAL/MOL
REMARK 922        TOTAL FREE ENERGY PREDICTED BY IDOCK:   -5.17 KCAL/MOL
REMARK 923 INTER-LIGAND FREE ENERGY PREDICTED BY IDOCK:   -4.62 KCAL/MOL
REMARK 924 INTRA-LIGAND FREE ENERGY PREDICTED BY IDOCK:   -0.55 KCAL/MOL
REMARK 927      BINDING AFFINITY PREDICTED BY RF-SCORE:    0.00 PKD
ROOT
HETATM    1  C   UNL     1     -11.249   6.213  72.233  1.00  0.00    -0.334 C  
HETATM    2  C   UNL     1     -11.579   7.595  71.750  1.00  0.00    -0.307 A  
HETATM    3  C   UNL     1     -10.886   8.164  70.672  1.00  0.00    -0.246 A  
HETATM    4  C   UNL     1     -11.161   9.469  70.244  1.00  0.00    -0.261 A  
HETATM    5  C   UNL     1     -12.553   8.350  72.407  1.00  0.00    -0.372 A  
HETATM    6  C   UNL     1     -12.115  10.236  70.932  1.00  0.00    -0.468 A  
HETATM    7  C   UNL     1     -12.816   9.658  72.002  1.00  0.00    -0.497 A  
HETATM    8  C   UNL     1     -12.419  11.664  70.574  1.00  0.00    -0.344 C  
ENDROOT
BRANCH   4   9
HETATM    9  O   UNL     1     -10.481  10.088  69.230  1.00  0.00    -0.198 OA 
BRANCH   9  10
HETATM   10  C   UNL     1     -10.575   9.526  67.919  1.00  0.00    -0.244 C  
BRANCH  10  11
HETATM   11  C   UNL     1      -9.362   8.649  67.603  1.00  0.00    -0.157 C  
BRANCH  11  12
HETATM   12  C   UNL     1      -9.717   7.495  66.649  1.00  0.00    -0.273 C  
BRANCH  12  13
HETATM   13  C   UNL     1      -8.979   6.159  66.919  1.00  0.00    -0.118 C  
HETATM   14  C   UNL     1      -9.330   5.573  68.296  1.00  0.00    -0.127 C  
HETATM   15  C   UNL     1      -7.451   6.363  66.853  1.00  0.00    -0.084 C  
HETATM   16  C   UNL     1      -9.369   5.145  65.830  1.00  0.00    -0.159 C  
HETATM   17  O   UNL     1      -8.585   4.647  65.034  1.00  0.00    -0.126 OA 
HETATM   18  O   UNL     1     -10.683   4.825  65.803  1.00  0.00    -0.305 OA 
ENDBRANCH  12  13
ENDBRANCH  11  12
ENDBRANCH  10  11
ENDBRANCH   9  10
ENDBRANCH   4   9
TORSDOF 5
ENDMDL
MODEL      177
REMARK 921   NORMALIZED FREE ENERGY PREDICTED BY IDOCK:   -3.62 KCAL/MOL
REMARK 922        TOTAL FREE ENERGY PREDICTED BY IDOCK:   -5.16 KCAL/MOL
REMARK 923 INTER-LIGAND FREE ENERGY PREDICTED BY IDOCK:   -4.82 KCAL/MOL
REMARK 924 INTRA-LIGAND FREE ENERGY PREDICTED BY IDOCK:   -0.35 KCAL/MOL
REMARK 927      BINDING AFFINITY PREDICTED BY RF-SCORE:    0.00 PKD
ROOT
HETATM    1  C   UNL     1      -9.405   4.134  64.773  1.00  0.00    -0.164 C  
HETATM    2  C   UNL     1      -9.478   4.782  66.125  1.00  0.00    -0.164 A  
HETATM    3  C   UNL     1      -9.430   6.178  66.256  1.00  0.00    -0.144 A  
HETATM    4  C   UNL     1      -9.457   6.786  67.517  1.00  0.00    -0.127 A  
HETATM    5  C   UNL     1      -9.548   3.993  67.275  1.00  0.00    -0.229 A  
HETATM    6  C   UNL     1      -9.489   5.987  68.671  1.00  0.00    -0.134 A  
HETATM    7  C   UNL     1      -9.550   4.590  68.535  1.00  0.00    -0.212 A  
HETATM    8  C   UNL     1      -9.454   6.562  70.059  1.00  0.00    -0.163 C  
ENDROOT
BRANCH   4   9
HETATM    9  O   UNL     1      -9.363   8.140  67.703  1.00  0.00    -0.138 OA 
BRANCH   9  10
HETATM   10  C   UNL     1      -9.359   8.976  66.543  1.00  0.00    -0.191 C  
BRANCH  10  11
HETATM   11  C   UNL     1     -10.369  10.118  66.680  1.00  0.00    -0.274 C  
BRANCH  11  12
HETATM   12  C   UNL     1     -10.460  10.964  65.398  1.00  0.00    -0.291 C  
BRANCH  12  13
HETATM   13  C   UNL     1     -10.985  12.409  65.592  1.00  0.00    -0.321 C  
HETATM   14  C   UNL     1      -9.862  13.452  65.481  1.00  0.00    -0.157 C  
HETATM   15  C   UNL     1     -11.654  12.560  66.974  1.00  0.00    -0.437 C  
HETATM   16  C   UNL     1     -12.047  12.702  64.519  1.00  0.00    -0.417 C  
HETATM   17  O   UNL     1     -13.220  12.956  64.755  1.00  0.00    -0.764 OA 
HETATM   18  O   UNL     1     -11.589  12.659  63.246  1.00  0.00    -0.489 OA 
ENDBRANCH  12  13
ENDBRANCH  11  12
ENDBRANCH  10  11
ENDBRANCH   9  10
ENDBRANCH   4   9
TORSDOF 5
ENDMDL
MODEL      178
REMARK 921   NORMALIZED FREE ENERGY PREDICTED BY IDOCK:   -3.62 KCAL/MOL
REMARK 922        TOTAL FREE ENERGY PREDICTED BY IDOCK:   -5.16 KCAL/MOL
REMARK 923 INTER-LIGAND FREE ENERGY PREDICTED BY IDOCK:   -4.57 KCAL/MOL
REMARK 924 INTRA-LIGAND FREE ENERGY PREDICTED BY IDOCK:   -0.59 KCAL/MOL
REMARK 927      BINDING AFFINITY PREDICTED BY RF-SCORE:    0.00 PKD
ROOT
HETATM    1  C   UNL     1     -11.517  11.977  63.339  1.00  0.00    -0.489 C  
HETATM    2  C   UNL     1     -11.151  11.803  64.783  1.00  0.00    -0.356 A  
HETATM    3  C   UNL     1     -10.312  10.756  65.192  1.00  0.00    -0.341 A  
HETATM    4  C   UNL     1     -10.001  10.564  66.543  1.00  0.00    -0.214 A  
HETATM    5  C   UNL     1     -11.686  12.661  65.747  1.00  0.00    -0.466 A  
HETATM    6  C   UNL     1     -10.572  11.406  67.511  1.00  0.00    -0.252 A  
HETATM    7  C   UNL     1     -11.400  12.462  67.098  1.00  0.00    -0.390 A  
HETATM    8  C   UNL     1     -10.339  11.225  68.985  1.00  0.00    -0.189 C  
ENDROOT
BRANCH   4   9
HETATM    9  O   UNL     1      -9.228   9.530  66.999  1.00  0.00    -0.135 OA 
BRANCH   9  10
HETATM   10  C   UNL     1      -8.798   8.547  66.054  1.00  0.00    -0.173 C  
BRANCH  10  11
HETATM   11  C   UNL     1      -9.422   7.182  66.351  1.00  0.00    -0.177 C  
BRANCH  11  12
HETATM   12  C   UNL     1     -10.348   7.227  67.579  1.00  0.00    -0.310 C  
BRANCH  12  13
HETATM   13  C   UNL     1      -9.910   6.341  68.774  1.00  0.00    -0.156 C  
HETATM   14  C   UNL     1     -11.089   5.987  69.694  1.00  0.00    -0.474 C  
HETATM   15  C   UNL     1      -8.836   7.061  69.614  1.00  0.00    -0.141 C  
HETATM   16  C   UNL     1      -9.292   5.041  68.230  1.00  0.00    -0.126 C  
HETATM   17  O   UNL     1      -8.133   4.696  68.411  1.00  0.00    -0.083 OA 
HETATM   18  O   UNL     1     -10.141   4.271  67.511  1.00  0.00    -0.097 OA 
ENDBRANCH  12  13
ENDBRANCH  11  12
ENDBRANCH  10  11
ENDBRANCH   9  10
ENDBRANCH   4   9
TORSDOF 5
ENDMDL
MODEL      179
REMARK 921   NORMALIZED FREE ENERGY PREDICTED BY IDOCK:   -3.60 KCAL/MOL
REMARK 922        TOTAL FREE ENERGY PREDICTED BY IDOCK:   -5.14 KCAL/MOL
REMARK 923 INTER-LIGAND FREE ENERGY PREDICTED BY IDOCK:   -4.45 KCAL/MOL
REMARK 924 INTRA-LIGAND FREE ENERGY PREDICTED BY IDOCK:   -0.69 KCAL/MOL
REMARK 927      BINDING AFFINITY PREDICTED BY RF-SCORE:    0.00 PKD
ROOT
HETATM    1  C   UNL     1     -11.044   6.184  67.816  1.00  0.00    -0.306 C  
HETATM    2  C   UNL     1     -10.678   6.775  69.146  1.00  0.00    -0.287 A  
HETATM    3  C   UNL     1      -9.993   7.996  69.226  1.00  0.00    -0.191 A  
HETATM    4  C   UNL     1      -9.612   8.531  70.463  1.00  0.00    -0.170 A  
HETATM    5  C   UNL     1     -10.978   6.085  70.322  1.00  0.00    -0.412 A  
HETATM    6  C   UNL     1      -9.883   7.815  71.640  1.00  0.00    -0.201 A  
HETATM    7  C   UNL     1     -10.582   6.600  71.557  1.00  0.00    -0.251 A  
HETATM    8  C   UNL     1      -9.450   8.291  72.999  1.00  0.00    -0.298 C  
ENDROOT
BRANCH   4   9
HETATM    9  O   UNL     1      -8.900   9.693  70.594  1.00  0.00    -0.200 OA 
BRANCH   9  10
HETATM   10  C   UNL     1      -7.943  10.011  69.580  1.00  0.00    -0.158 C  
BRANCH  10  11
HETATM   11  C   UNL     1      -8.417  11.185  68.720  1.00  0.00    -0.134 C  
BRANCH  11  12
HETATM   12  C   UNL     1      -8.424  10.835  67.222  1.00  0.00    -0.124 C  
BRANCH  12  13
HETATM   13  C   UNL     1      -9.799  10.964  66.516  1.00  0.00    -0.245 C  
HETATM   14  C   UNL     1     -10.969  10.818  67.501  1.00  0.00    -0.372 C  
HETATM   15  C   UNL     1      -9.947   9.887  65.422  1.00  0.00    -0.349 C  
HETATM   16  C   UNL     1      -9.885  12.342  65.839  1.00  0.00    -0.251 C  
HETATM   17  O   UNL     1      -9.998  12.516  64.633  1.00  0.00    -0.238 OA 
HETATM   18  O   UNL     1      -9.822  13.393  66.688  1.00  0.00    -0.262 OA 
ENDBRANCH  12  13
ENDBRANCH  11  12
ENDBRANCH  10  11
ENDBRANCH   9  10
ENDBRANCH   4   9
TORSDOF 5
ENDMDL
MODEL      180
REMARK 921   NORMALIZED FREE ENERGY PREDICTED BY IDOCK:   -3.59 KCAL/MOL
REMARK 922        TOTAL FREE ENERGY PREDICTED BY IDOCK:   -5.12 KCAL/MOL
REMARK 923 INTER-LIGAND FREE ENERGY PREDICTED BY IDOCK:   -5.01 KCAL/MOL
REMARK 924 INTRA-LIGAND FREE ENERGY PREDICTED BY IDOCK:   -0.11 KCAL/MOL
REMARK 927      BINDING AFFINITY PREDICTED BY RF-SCORE:    0.00 PKD
ROOT
HETATM    1  C   UNL     1     -12.124  14.637  71.258  1.00  0.00    -0.410 C  
HETATM    2  C   UNL     1     -11.443  14.595  69.922  1.00  0.00    -0.320 A  
HETATM    3  C   UNL     1     -10.341  15.419  69.650  1.00  0.00    -0.283 A  
HETATM    4  C   UNL     1      -9.727  15.413  68.391  1.00  0.00    -0.211 A  
HETATM    5  C   UNL     1     -11.933  13.762  68.914  1.00  0.00    -0.394 A  
HETATM    6  C   UNL     1     -10.248  14.601  67.371  1.00  0.00    -0.240 A  
HETATM    7  C   UNL     1     -11.343  13.767  67.651  1.00  0.00    -0.331 A  
HETATM    8  C   UNL     1      -9.686  14.588  65.976  1.00  0.00    -0.331 C  
ENDROOT
BRANCH   4   9
HETATM    9  O   UNL     1      -8.681  16.232  68.059  1.00  0.00    -0.174 OA 
BRANCH   9  10
HETATM   10  C   UNL     1      -7.395  15.933  68.607  1.00  0.00    -0.141 C  
BRANCH  10  11
HETATM   11  C   UNL     1      -6.641  17.211  68.981  1.00  0.00    -0.218 C  
BRANCH  11  12
HETATM   12  C   UNL     1      -6.781  18.299  67.903  1.00  0.00    -0.208 C  
BRANCH  12  13
HETATM   13  C   UNL     1      -7.267  19.680  68.413  1.00  0.00    -0.355 C  
HETATM   14  C   UNL     1      -8.581  19.574  69.204  1.00  0.00    -0.113 C  
HETATM   15  C   UNL     1      -7.489  20.645  67.230  1.00  0.00    -0.395 C  
HETATM   16  C   UNL     1      -6.185  20.287  69.321  1.00  0.00    -0.321 C  
HETATM   17  O   UNL     1      -5.588  21.329  69.087  1.00  0.00    -0.308 OA 
HETATM   18  O   UNL     1      -5.919  19.570  70.438  1.00  0.00    -0.255 OA 
ENDBRANCH  12  13
ENDBRANCH  11  12
ENDBRANCH  10  11
ENDBRANCH   9  10
ENDBRANCH   4   9
TORSDOF 5
ENDMDL
MODEL      181
REMARK 921   NORMALIZED FREE ENERGY PREDICTED BY IDOCK:   -3.59 KCAL/MOL
REMARK 922        TOTAL FREE ENERGY PREDICTED BY IDOCK:   -5.12 KCAL/MOL
REMARK 923 INTER-LIGAND FREE ENERGY PREDICTED BY IDOCK:   -4.68 KCAL/MOL
REMARK 924 INTRA-LIGAND FREE ENERGY PREDICTED BY IDOCK:   -0.43 KCAL/MOL
REMARK 927      BINDING AFFINITY PREDICTED BY RF-SCORE:    0.00 PKD
ROOT
HETATM    1  C   UNL     1     -13.027  12.092  71.528  1.00  0.00    -0.407 C  
HETATM    2  C   UNL     1     -12.352  11.256  70.480  1.00  0.00    -0.446 A  
HETATM    3  C   UNL     1     -11.741  10.038  70.815  1.00  0.00    -0.437 A  
HETATM    4  C   UNL     1     -11.075   9.275  69.849  1.00  0.00    -0.181 A  
HETATM    5  C   UNL     1     -12.285  11.710  69.161  1.00  0.00    -0.201 A  
HETATM    6  C   UNL     1     -10.978   9.755  68.532  1.00  0.00    -0.195 A  
HETATM    7  C   UNL     1     -11.603  10.967  68.198  1.00  0.00    -0.345 A  
HETATM    8  C   UNL     1     -10.224   9.026  67.455  1.00  0.00    -0.302 C  
ENDROOT
BRANCH   4   9
HETATM    9  O   UNL     1     -10.421   8.106  70.132  1.00  0.00    -0.215 OA 
BRANCH   9  10
HETATM   10  C   UNL     1     -11.099   6.876  69.864  1.00  0.00    -0.288 C  
BRANCH  10  11
HETATM   11  C   UNL     1     -10.355   5.687  70.475  1.00  0.00    -0.327 C  
BRANCH  11  12
HETATM   12  C   UNL     1      -9.136   6.133  71.301  1.00  0.00    -0.147 C  
BRANCH  12  13
HETATM   13  C   UNL     1      -9.107   5.629  72.767  1.00  0.00    -0.130 C  
HETATM   14  C   UNL     1      -8.107   6.416  73.628  1.00  0.00    -0.108 C  
HETATM   15  C   UNL     1      -8.722   4.136  72.817  1.00  0.00    -0.108 C  
HETATM   16  C   UNL     1     -10.513   5.776  73.373  1.00  0.00    -0.244 C  
HETATM   17  O   UNL     1     -11.198   4.843  73.768  1.00  0.00    -0.296 OA 
HETATM   18  O   UNL     1     -10.966   7.049  73.445  1.00  0.00    -0.304 OA 
ENDBRANCH  12  13
ENDBRANCH  11  12
ENDBRANCH  10  11
ENDBRANCH   9  10
ENDBRANCH   4   9
TORSDOF 5
ENDMDL
MODEL      182
REMARK 921   NORMALIZED FREE ENERGY PREDICTED BY IDOCK:   -3.53 KCAL/MOL
REMARK 922        TOTAL FREE ENERGY PREDICTED BY IDOCK:   -5.05 KCAL/MOL
REMARK 923 INTER-LIGAND FREE ENERGY PREDICTED BY IDOCK:   -4.56 KCAL/MOL
REMARK 924 INTRA-LIGAND FREE ENERGY PREDICTED BY IDOCK:   -0.49 KCAL/MOL
REMARK 927      BINDING AFFINITY PREDICTED BY RF-SCORE:    0.00 PKD
ROOT
HETATM    1  C   UNL     1      -9.687   2.958  64.330  1.00  0.00    -0.149 C  
HETATM    2  C   UNL     1      -9.450   4.246  65.062  1.00  0.00    -0.171 A  
HETATM    3  C   UNL     1     -10.281   4.634  66.124  1.00  0.00    -0.308 A  
HETATM    4  C   UNL     1     -10.089   5.854  66.783  1.00  0.00    -0.192 A  
HETATM    5  C   UNL     1      -8.421   5.099  64.658  1.00  0.00    -0.146 A  
HETATM    6  C   UNL     1      -9.076   6.724  66.349  1.00  0.00    -0.175 A  
HETATM    7  C   UNL     1      -8.238   6.327  65.295  1.00  0.00    -0.138 A  
HETATM    8  C   UNL     1      -8.850   8.078  66.962  1.00  0.00    -0.143 C  
ENDROOT
BRANCH   4   9
HETATM    9  O   UNL     1     -10.900   6.301  67.791  1.00  0.00    -0.278 OA 
BRANCH   9  10
HETATM   10  C   UNL     1     -10.758   5.702  69.082  1.00  0.00    -0.255 C  
BRANCH  10  11
HETATM   11  C   UNL     1     -10.242   6.713  70.108  1.00  0.00    -0.215 C  
BRANCH  11  12
HETATM   12  C   UNL     1     -11.261   7.834  70.376  1.00  0.00    -0.246 C  
BRANCH  12  13
HETATM   13  C   UNL     1     -11.939   7.798  71.769  1.00  0.00    -0.332 C  
HETATM   14  C   UNL     1     -10.921   7.940  72.911  1.00  0.00    -0.452 C  
HETATM   15  C   UNL     1     -12.704   6.472  71.963  1.00  0.00    -0.154 C  
HETATM   16  C   UNL     1     -12.956   8.948  71.860  1.00  0.00    -0.382 C  
HETATM   17  O   UNL     1     -14.161   8.798  72.008  1.00  0.00    -0.423 OA 
HETATM   18  O   UNL     1     -12.418  10.185  71.760  1.00  0.00    -0.394 OA 
ENDBRANCH  12  13
ENDBRANCH  11  12
ENDBRANCH  10  11
ENDBRANCH   9  10
ENDBRANCH   4   9
TORSDOF 5
ENDMDL
MODEL      183
REMARK 921   NORMALIZED FREE ENERGY PREDICTED BY IDOCK:   -3.53 KCAL/MOL
REMARK 922        TOTAL FREE ENERGY PREDICTED BY IDOCK:   -5.04 KCAL/MOL
REMARK 923 INTER-LIGAND FREE ENERGY PREDICTED BY IDOCK:   -4.43 KCAL/MOL
REMARK 924 INTRA-LIGAND FREE ENERGY PREDICTED BY IDOCK:   -0.62 KCAL/MOL
REMARK 927      BINDING AFFINITY PREDICTED BY RF-SCORE:    0.00 PKD
ROOT
HETATM    1  C   UNL     1     -12.028  14.268  67.161  1.00  0.00    -0.449 C  
HETATM    2  C   UNL     1     -11.456  13.148  66.342  1.00  0.00    -0.374 A  
HETATM    3  C   UNL     1     -10.795  12.073  66.956  1.00  0.00    -0.297 A  
HETATM    4  C   UNL     1     -10.224  11.047  66.194  1.00  0.00    -0.247 A  
HETATM    5  C   UNL     1     -11.535  13.191  64.949  1.00  0.00    -0.337 A  
HETATM    6  C   UNL     1     -10.274  11.114  64.793  1.00  0.00    -0.365 A  
HETATM    7  C   UNL     1     -10.948  12.184  64.182  1.00  0.00    -0.416 A  
HETATM    8  C   UNL     1      -9.628  10.086  63.906  1.00  0.00    -0.217 C  
ENDROOT
BRANCH   4   9
HETATM    9  O   UNL     1      -9.527  10.002  66.740  1.00  0.00    -0.159 OA 
BRANCH   9  10
HETATM   10  C   UNL     1     -10.193   9.183  67.704  1.00  0.00    -0.236 C  
BRANCH  10  11
HETATM   11  C   UNL     1     -10.605   7.839  67.099  1.00  0.00    -0.401 C  
BRANCH  11  12
HETATM   12  C   UNL     1     -10.252   6.659  68.021  1.00  0.00    -0.193 C  
BRANCH  12  13
HETATM   13  C   UNL     1      -9.158   5.700  67.485  1.00  0.00    -0.106 C  
HETATM   14  C   UNL     1      -8.813   5.982  66.014  1.00  0.00    -0.159 C  
HETATM   15  C   UNL     1      -9.620   4.234  67.604  1.00  0.00    -0.215 C  
HETATM   16  C   UNL     1      -7.888   5.867  68.337  1.00  0.00    -0.105 C  
HETATM   17  O   UNL     1      -7.389   4.982  69.018  1.00  0.00    -0.056 OA 
HETATM   18  O   UNL     1      -7.334   7.101  68.287  1.00  0.00    -0.094 OA 
ENDBRANCH  12  13
ENDBRANCH  11  12
ENDBRANCH  10  11
ENDBRANCH   9  10
ENDBRANCH   4   9
TORSDOF 5
ENDMDL
MODEL      184
REMARK 921   NORMALIZED FREE ENERGY PREDICTED BY IDOCK:   -3.52 KCAL/MOL
REMARK 922        TOTAL FREE ENERGY PREDICTED BY IDOCK:   -5.03 KCAL/MOL
REMARK 923 INTER-LIGAND FREE ENERGY PREDICTED BY IDOCK:   -4.40 KCAL/MOL
REMARK 924 INTRA-LIGAND FREE ENERGY PREDICTED BY IDOCK:   -0.63 KCAL/MOL
REMARK 927      BINDING AFFINITY PREDICTED BY RF-SCORE:    0.00 PKD
ROOT
HETATM    1  C   UNL     1     -10.144  15.041  68.528  1.00  0.00    -0.225 C  
HETATM    2  C   UNL     1      -9.181  13.910  68.316  1.00  0.00    -0.207 A  
HETATM    3  C   UNL     1      -9.628  12.581  68.281  1.00  0.00    -0.209 A  
HETATM    4  C   UNL     1      -8.728  11.520  68.124  1.00  0.00    -0.157 A  
HETATM    5  C   UNL     1      -7.814  14.171  68.197  1.00  0.00    -0.142 A  
HETATM    6  C   UNL     1      -7.352  11.785  68.043  1.00  0.00    -0.091 A  
HETATM    7  C   UNL     1      -6.909  13.118  68.064  1.00  0.00    -0.118 A  
HETATM    8  C   UNL     1      -6.320  10.698  67.939  1.00  0.00    -0.058 C  
ENDROOT
BRANCH   4   9
HETATM    9  O   UNL     1      -9.107  10.204  68.133  1.00  0.00    -0.127 OA 
BRANCH   9  10
HETATM   10  C   UNL     1     -10.222   9.822  67.324  1.00  0.00    -0.232 C  
BRANCH  10  11
HETATM   11  C   UNL     1     -10.131  10.440  65.927  1.00  0.00    -0.326 C  
BRANCH  11  12
HETATM   12  C   UNL     1     -11.377  11.275  65.584  1.00  0.00     0.022 C  
BRANCH  12  13
HETATM   13  C   UNL     1     -11.230  12.217  64.362  1.00  0.00    -0.389 C  
HETATM   14  C   UNL     1     -12.363  12.022  63.342  1.00  0.00    -0.635 C  
HETATM   15  C   UNL     1      -9.885  11.969  63.648  1.00  0.00    -0.308 C  
HETATM   16  C   UNL     1     -11.244  13.675  64.851  1.00  0.00    -0.342 C  
HETATM   17  O   UNL     1     -10.312  14.458  64.725  1.00  0.00    -0.431 OA 
HETATM   18  O   UNL     1     -12.393  14.056  65.456  1.00  0.00    -0.430 OA 
ENDBRANCH  12  13
ENDBRANCH  11  12
ENDBRANCH  10  11
ENDBRANCH   9  10
ENDBRANCH   4   9
TORSDOF 5
ENDMDL
MODEL      185
REMARK 921   NORMALIZED FREE ENERGY PREDICTED BY IDOCK:   -3.51 KCAL/MOL
REMARK 922        TOTAL FREE ENERGY PREDICTED BY IDOCK:   -5.01 KCAL/MOL
REMARK 923 INTER-LIGAND FREE ENERGY PREDICTED BY IDOCK:   -4.57 KCAL/MOL
REMARK 924 INTRA-LIGAND FREE ENERGY PREDICTED BY IDOCK:   -0.45 KCAL/MOL
REMARK 927      BINDING AFFINITY PREDICTED BY RF-SCORE:    0.00 PKD
ROOT
HETATM    1  C   UNL     1     -11.633   6.363  71.803  1.00  0.00    -0.367 C  
HETATM    2  C   UNL     1     -10.745   6.155  70.611  1.00  0.00    -0.336 A  
HETATM    3  C   UNL     1     -10.554   7.178  69.670  1.00  0.00    -0.249 A  
HETATM    4  C   UNL     1      -9.759   6.977  68.536  1.00  0.00    -0.141 A  
HETATM    5  C   UNL     1     -10.135   4.917  70.403  1.00  0.00    -0.316 A  
HETATM    6  C   UNL     1      -9.178   5.718  68.312  1.00  0.00    -0.119 A  
HETATM    7  C   UNL     1      -9.361   4.701  69.262  1.00  0.00    -0.207 A  
HETATM    8  C   UNL     1      -8.367   5.404  67.086  1.00  0.00    -0.107 C  
ENDROOT
BRANCH   4   9
HETATM    9  O   UNL     1      -9.579   7.924  67.564  1.00  0.00    -0.144 OA 
BRANCH   9  10
HETATM   10  C   UNL     1     -10.657   8.825  67.298  1.00  0.00    -0.233 C  
BRANCH  10  11
HETATM   11  C   UNL     1     -10.145  10.153  66.737  1.00  0.00    -0.277 C  
BRANCH  11  12
HETATM   12  C   UNL     1     -11.196  11.270  66.849  1.00  0.00    -0.300 C  
BRANCH  12  13
HETATM   13  C   UNL     1     -10.859  12.401  67.855  1.00  0.00    -0.253 C  
HETATM   14  C   UNL     1      -9.362  12.435  68.204  1.00  0.00    -0.209 C  
HETATM   15  C   UNL     1     -11.659  12.218  69.161  1.00  0.00    -0.373 C  
HETATM   16  C   UNL     1     -11.259  13.752  67.239  1.00  0.00    -0.311 C  
HETATM   17  O   UNL     1     -12.107  14.502  67.705  1.00  0.00    -0.343 OA 
HETATM   18  O   UNL     1     -10.594  14.075  66.106  1.00  0.00    -0.283 OA 
ENDBRANCH  12  13
ENDBRANCH  11  12
ENDBRANCH  10  11
ENDBRANCH   9  10
ENDBRANCH   4   9
TORSDOF 5
ENDMDL
MODEL      186
REMARK 921   NORMALIZED FREE ENERGY PREDICTED BY IDOCK:   -3.50 KCAL/MOL
REMARK 922        TOTAL FREE ENERGY PREDICTED BY IDOCK:   -5.01 KCAL/MOL
REMARK 923 INTER-LIGAND FREE ENERGY PREDICTED BY IDOCK:   -4.60 KCAL/MOL
REMARK 924 INTRA-LIGAND FREE ENERGY PREDICTED BY IDOCK:   -0.41 KCAL/MOL
REMARK 927      BINDING AFFINITY PREDICTED BY RF-SCORE:    0.00 PKD
ROOT
HETATM    1  C   UNL     1     -11.146  16.953  68.132  1.00  0.00    -0.205 C  
HETATM    2  C   UNL     1     -11.328  15.471  68.283  1.00  0.00    -0.360 A  
HETATM    3  C   UNL     1     -11.260  14.621  67.169  1.00  0.00    -0.349 A  
HETATM    4  C   UNL     1     -11.469  13.242  67.297  1.00  0.00    -0.338 A  
HETATM    5  C   UNL     1     -11.614  14.926  69.536  1.00  0.00    -0.333 A  
HETATM    6  C   UNL     1     -11.794  12.706  68.554  1.00  0.00    -0.342 A  
HETATM    7  C   UNL     1     -11.847  13.557  69.669  1.00  0.00    -0.398 A  
HETATM    8  C   UNL     1     -12.097  11.248  68.761  1.00  0.00    -0.258 C  
ENDROOT
BRANCH   4   9
HETATM    9  O   UNL     1     -11.463  12.377  66.236  1.00  0.00    -0.330 OA 
BRANCH   9  10
HETATM   10  C   UNL     1     -10.210  12.095  65.609  1.00  0.00    -0.256 C  
BRANCH  10  11
HETATM   11  C   UNL     1     -10.350  10.985  64.565  1.00  0.00    -0.420 C  
BRANCH  11  12
HETATM   12  C   UNL     1      -9.018  10.692  63.853  1.00  0.00    -0.205 C  
BRANCH  12  13
HETATM   13  C   UNL     1      -8.146   9.587  64.503  1.00  0.00    -0.142 C  
HETATM   14  C   UNL     1      -8.958   8.699  65.459  1.00  0.00    -0.209 C  
HETATM   15  C   UNL     1      -6.981  10.215  65.294  1.00  0.00    -0.137 C  
HETATM   16  C   UNL     1      -7.546   8.708  63.393  1.00  0.00    -0.117 C  
HETATM   17  O   UNL     1      -6.348   8.592  63.172  1.00  0.00    -0.085 OA 
HETATM   18  O   UNL     1      -8.457   8.046  62.643  1.00  0.00    -0.119 OA 
ENDBRANCH  12  13
ENDBRANCH  11  12
ENDBRANCH  10  11
ENDBRANCH   9  10
ENDBRANCH   4   9
TORSDOF 5
ENDMDL
MODEL      187
REMARK 921   NORMALIZED FREE ENERGY PREDICTED BY IDOCK:   -3.49 KCAL/MOL
REMARK 922        TOTAL FREE ENERGY PREDICTED BY IDOCK:   -4.99 KCAL/MOL
REMARK 923 INTER-LIGAND FREE ENERGY PREDICTED BY IDOCK:   -4.47 KCAL/MOL
REMARK 924 INTRA-LIGAND FREE ENERGY PREDICTED BY IDOCK:   -0.53 KCAL/MOL
REMARK 927      BINDING AFFINITY PREDICTED BY RF-SCORE:    0.00 PKD
ROOT
HETATM    1  C   UNL     1      -8.941   8.759  65.187  1.00  0.00    -0.152 C  
HETATM    2  C   UNL     1      -9.572   8.896  66.542  1.00  0.00    -0.297 A  
HETATM    3  C   UNL     1      -9.908  10.159  67.054  1.00  0.00    -0.238 A  
HETATM    4  C   UNL     1     -10.459  10.296  68.334  1.00  0.00    -0.200 A  
HETATM    5  C   UNL     1      -9.788   7.764  67.329  1.00  0.00    -0.249 A  
HETATM    6  C   UNL     1     -10.639   9.157  69.136  1.00  0.00    -0.224 A  
HETATM    7  C   UNL     1     -10.315   7.894  68.615  1.00  0.00    -0.224 A  
HETATM    8  C   UNL     1     -11.164   9.229  70.543  1.00  0.00    -0.315 C  
ENDROOT
BRANCH   4   9
HETATM    9  O   UNL     1     -10.759  11.506  68.899  1.00  0.00    -0.199 OA 
BRANCH   9  10
HETATM   10  C   UNL     1     -11.886  12.223  68.390  1.00  0.00    -0.304 C  
BRANCH  10  11
HETATM   11  C   UNL     1     -11.627  13.731  68.383  1.00  0.00    -0.369 C  
BRANCH  11  12
HETATM   12  C   UNL     1     -10.324  14.089  67.647  1.00  0.00    -0.242 C  
BRANCH  12  13
HETATM   13  C   UNL     1      -9.973  15.599  67.614  1.00  0.00    -0.237 C  
HETATM   14  C   UNL     1     -10.871  16.421  68.553  1.00  0.00    -0.339 C  
HETATM   15  C   UNL     1     -10.125  16.157  66.184  1.00  0.00    -0.356 C  
HETATM   16  C   UNL     1      -8.507  15.779  68.040  1.00  0.00    -0.161 C  
HETATM   17  O   UNL     1      -7.629  16.241  67.324  1.00  0.00    -0.140 OA 
HETATM   18  O   UNL     1      -8.233  15.379  69.303  1.00  0.00    -0.221 OA 
ENDBRANCH  12  13
ENDBRANCH  11  12
ENDBRANCH  10  11
ENDBRANCH   9  10
ENDBRANCH   4   9
TORSDOF 5
ENDMDL
MODEL      188
REMARK 921   NORMALIZED FREE ENERGY PREDICTED BY IDOCK:   -3.49 KCAL/MOL
REMARK 922        TOTAL FREE ENERGY PREDICTED BY IDOCK:   -4.99 KCAL/MOL
REMARK 923 INTER-LIGAND FREE ENERGY PREDICTED BY IDOCK:   -4.59 KCAL/MOL
REMARK 924 INTRA-LIGAND FREE ENERGY PREDICTED BY IDOCK:   -0.40 KCAL/MOL
REMARK 927      BINDING AFFINITY PREDICTED BY RF-SCORE:    0.00 PKD
ROOT
HETATM    1  C   UNL     1     -13.869   7.214  71.241  1.00  0.00    -0.292 C  
HETATM    2  C   UNL     1     -12.403   7.529  71.315  1.00  0.00    -0.356 A  
HETATM    3  C   UNL     1     -11.556   7.268  70.228  1.00  0.00    -0.208 A  
HETATM    4  C   UNL     1     -10.181   7.522  70.306  1.00  0.00    -0.204 A  
HETATM    5  C   UNL     1     -11.859   8.045  72.493  1.00  0.00    -0.419 A  
HETATM    6  C   UNL     1      -9.633   8.005  71.505  1.00  0.00    -0.209 A  
HETATM    7  C   UNL     1     -10.487   8.278  72.587  1.00  0.00    -0.373 A  
HETATM    8  C   UNL     1      -8.160   8.240  71.689  1.00  0.00    -0.167 C  
ENDROOT
BRANCH   4   9
HETATM    9  O   UNL     1      -9.304   7.239  69.293  1.00  0.00    -0.154 OA 
BRANCH   9  10
HETATM   10  C   UNL     1      -8.791   8.332  68.527  1.00  0.00    -0.137 C  
BRANCH  10  11
HETATM   11  C   UNL     1      -9.916   9.089  67.818  1.00  0.00    -0.235 C  
BRANCH  11  12
HETATM   12  C   UNL     1     -10.098  10.509  68.380  1.00  0.00    -0.181 C  
BRANCH  12  13
HETATM   13  C   UNL     1      -9.606  11.656  67.460  1.00  0.00    -0.176 C  
HETATM   14  C   UNL     1      -9.049  11.129  66.128  1.00  0.00    -0.214 C  
HETATM   15  C   UNL     1      -8.500  12.472  68.160  1.00  0.00    -0.180 C  
HETATM   16  C   UNL     1     -10.782  12.603  67.170  1.00  0.00    -0.241 C  
HETATM   17  O   UNL     1     -10.821  13.781  67.498  1.00  0.00    -0.261 OA 
HETATM   18  O   UNL     1     -11.814  12.033  66.505  1.00  0.00    -0.585 OA 
ENDBRANCH  12  13
ENDBRANCH  11  12
ENDBRANCH  10  11
ENDBRANCH   9  10
ENDBRANCH   4   9
TORSDOF 5
ENDMDL
MODEL      189
REMARK 921   NORMALIZED FREE ENERGY PREDICTED BY IDOCK:   -3.48 KCAL/MOL
REMARK 922        TOTAL FREE ENERGY PREDICTED BY IDOCK:   -4.98 KCAL/MOL
REMARK 923 INTER-LIGAND FREE ENERGY PREDICTED BY IDOCK:   -4.44 KCAL/MOL
REMARK 924 INTRA-LIGAND FREE ENERGY PREDICTED BY IDOCK:   -0.55 KCAL/MOL
REMARK 927      BINDING AFFINITY PREDICTED BY RF-SCORE:    0.00 PKD
ROOT
HETATM    1  C   UNL     1     -10.885   6.367  66.744  1.00  0.00    -0.361 C  
HETATM    2  C   UNL     1      -9.919   7.489  66.988  1.00  0.00    -0.304 A  
HETATM    3  C   UNL     1      -9.184   7.560  68.181  1.00  0.00    -0.137 A  
HETATM    4  C   UNL     1      -8.313   8.626  68.431  1.00  0.00    -0.127 A  
HETATM    5  C   UNL     1      -9.778   8.507  66.042  1.00  0.00    -0.195 A  
HETATM    6  C   UNL     1      -8.204   9.666  67.493  1.00  0.00    -0.114 A  
HETATM    7  C   UNL     1      -8.930   9.585  66.294  1.00  0.00    -0.188 A  
HETATM    8  C   UNL     1      -7.340  10.876  67.718  1.00  0.00    -0.093 C  
ENDROOT
BRANCH   4   9
HETATM    9  O   UNL     1      -7.611   8.768  69.598  1.00  0.00    -0.072 OA 
BRANCH   9  10
HETATM   10  C   UNL     1      -8.217   9.511  70.659  1.00  0.00    -0.112 C  
BRANCH  10  11
HETATM   11  C   UNL     1      -9.081   8.609  71.543  1.00  0.00    -0.308 C  
BRANCH  11  12
HETATM   12  C   UNL     1     -10.578   8.745  71.215  1.00  0.00    -0.332 C  
BRANCH  12  13
HETATM   13  C   UNL     1     -11.484   7.612  71.764  1.00  0.00    -0.302 C  
HETATM   14  C   UNL     1     -11.042   7.145  73.160  1.00  0.00    -0.302 C  
HETATM   15  C   UNL     1     -11.462   6.396  70.815  1.00  0.00    -0.415 C  
HETATM   16  C   UNL     1     -12.931   8.125  71.843  1.00  0.00    -0.333 C  
HETATM   17  O   UNL     1     -13.868   7.658  71.210  1.00  0.00    -0.326 OA 
HETATM   18  O   UNL     1     -13.115   9.166  72.688  1.00  0.00    -0.415 OA 
ENDBRANCH  12  13
ENDBRANCH  11  12
ENDBRANCH  10  11
ENDBRANCH   9  10
ENDBRANCH   4   9
TORSDOF 5
ENDMDL
MODEL      190
REMARK 921   NORMALIZED FREE ENERGY PREDICTED BY IDOCK:   -3.48 KCAL/MOL
REMARK 922        TOTAL FREE ENERGY PREDICTED BY IDOCK:   -4.98 KCAL/MOL
REMARK 923 INTER-LIGAND FREE ENERGY PREDICTED BY IDOCK:   -4.31 KCAL/MOL
REMARK 924 INTRA-LIGAND FREE ENERGY PREDICTED BY IDOCK:   -0.67 KCAL/MOL
REMARK 927      BINDING AFFINITY PREDICTED BY RF-SCORE:    0.00 PKD
ROOT
HETATM    1  C   UNL     1     -12.871  11.953  71.406  1.00  0.00    -0.411 C  
HETATM    2  C   UNL     1     -12.158  11.024  70.467  1.00  0.00    -0.470 A  
HETATM    3  C   UNL     1     -11.794   9.732  70.872  1.00  0.00    -0.420 A  
HETATM    4  C   UNL     1     -11.093   8.876  70.014  1.00  0.00    -0.170 A  
HETATM    5  C   UNL     1     -11.808  11.459  69.187  1.00  0.00    -0.413 A  
HETATM    6  C   UNL     1     -10.710   9.332  68.743  1.00  0.00    -0.184 A  
HETATM    7  C   UNL     1     -11.088  10.621  68.335  1.00  0.00    -0.328 A  
HETATM    8  C   UNL     1      -9.900   8.497  67.790  1.00  0.00    -0.218 C  
ENDROOT
BRANCH   4   9
HETATM    9  O   UNL     1     -10.671   7.625  70.378  1.00  0.00    -0.227 OA 
BRANCH   9  10
HETATM   10  C   UNL     1     -11.286   7.014  71.514  1.00  0.00    -0.258 C  
BRANCH  10  11
HETATM   11  C   UNL     1     -10.703   5.624  71.780  1.00  0.00    -0.305 C  
BRANCH  11  12
HETATM   12  C   UNL     1     -10.278   4.919  70.481  1.00  0.00    -0.288 C  
BRANCH  12  13
HETATM   13  C   UNL     1      -8.898   4.213  70.529  1.00  0.00    -0.133 C  
HETATM   14  C   UNL     1      -8.518   3.595  69.174  1.00  0.00    -0.098 C  
HETATM   15  C   UNL     1      -8.902   3.093  71.590  1.00  0.00    -0.126 C  
HETATM   16  C   UNL     1      -7.826   5.240  70.929  1.00  0.00    -0.098 C  
HETATM   17  O   UNL     1      -7.149   5.175  71.945  1.00  0.00    -0.069 OA 
HETATM   18  O   UNL     1      -7.671   6.262  70.055  1.00  0.00    -0.096 OA 
ENDBRANCH  12  13
ENDBRANCH  11  12
ENDBRANCH  10  11
ENDBRANCH   9  10
ENDBRANCH   4   9
TORSDOF 5
ENDMDL
MODEL      191
REMARK 921   NORMALIZED FREE ENERGY PREDICTED BY IDOCK:   -3.48 KCAL/MOL
REMARK 922        TOTAL FREE ENERGY PREDICTED BY IDOCK:   -4.97 KCAL/MOL
REMARK 923 INTER-LIGAND FREE ENERGY PREDICTED BY IDOCK:   -4.39 KCAL/MOL
REMARK 924 INTRA-LIGAND FREE ENERGY PREDICTED BY IDOCK:   -0.59 KCAL/MOL
REMARK 927      BINDING AFFINITY PREDICTED BY RF-SCORE:    0.00 PKD
ROOT
HETATM    1  C   UNL     1      -7.216  14.783  69.023  1.00  0.00    -0.135 C  
HETATM    2  C   UNL     1      -8.266  15.009  67.976  1.00  0.00    -0.138 A  
HETATM    3  C   UNL     1      -9.018  13.938  67.468  1.00  0.00    -0.197 A  
HETATM    4  C   UNL     1      -9.970  14.137  66.461  1.00  0.00    -0.283 A  
HETATM    5  C   UNL     1      -8.474  16.290  67.460  1.00  0.00    -0.183 A  
HETATM    6  C   UNL     1     -10.147  15.421  65.920  1.00  0.00    -0.370 A  
HETATM    7  C   UNL     1      -9.404  16.492  66.440  1.00  0.00    -0.316 A  
HETATM    8  C   UNL     1     -11.102  15.702  64.793  1.00  0.00    -0.426 C  
ENDROOT
BRANCH   4   9
HETATM    9  O   UNL     1     -10.694  13.121  65.897  1.00  0.00    -0.270 OA 
BRANCH   9  10
HETATM   10  C   UNL     1     -10.050  12.303  64.918  1.00  0.00    -0.250 C  
BRANCH  10  11
HETATM   11  C   UNL     1     -10.524  10.851  65.009  1.00  0.00    -0.331 C  
BRANCH  11  12
HETATM   12  C   UNL     1     -10.530  10.337  66.459  1.00  0.00    -0.241 C  
BRANCH  12  13
HETATM   13  C   UNL     1      -9.629   9.105  66.731  1.00  0.00    -0.253 C  
HETATM   14  C   UNL     1      -8.676   8.816  65.561  1.00  0.00    -0.217 C  
HETATM   15  C   UNL     1     -10.491   7.849  66.977  1.00  0.00    -0.419 C  
HETATM   16  C   UNL     1      -8.799   9.365  67.999  1.00  0.00    -0.124 C  
HETATM   17  O   UNL     1      -8.873   8.701  69.025  1.00  0.00    -0.136 OA 
HETATM   18  O   UNL     1      -7.948  10.414  67.911  1.00  0.00    -0.101 OA 
ENDBRANCH  12  13
ENDBRANCH  11  12
ENDBRANCH  10  11
ENDBRANCH   9  10
ENDBRANCH   4   9
TORSDOF 5
ENDMDL
MODEL      192
REMARK 921   NORMALIZED FREE ENERGY PREDICTED BY IDOCK:   -3.47 KCAL/MOL
REMARK 922        TOTAL FREE ENERGY PREDICTED BY IDOCK:   -4.96 KCAL/MOL
REMARK 923 INTER-LIGAND FREE ENERGY PREDICTED BY IDOCK:   -4.56 KCAL/MOL
REMARK 924 INTRA-LIGAND FREE ENERGY PREDICTED BY IDOCK:   -0.40 KCAL/MOL
REMARK 927      BINDING AFFINITY PREDICTED BY RF-SCORE:    0.00 PKD
ROOT
HETATM    1  C   UNL     1      -7.958   7.028  66.134  1.00  0.00    -0.110 C  
HETATM    2  C   UNL     1      -8.876   7.498  67.223  1.00  0.00    -0.124 A  
HETATM    3  C   UNL     1      -9.773   8.554  67.002  1.00  0.00    -0.266 A  
HETATM    4  C   UNL     1     -10.603   9.023  68.027  1.00  0.00    -0.186 A  
HETATM    5  C   UNL     1      -8.812   6.914  68.490  1.00  0.00    -0.124 A  
HETATM    6  C   UNL     1     -10.508   8.458  69.309  1.00  0.00    -0.223 A  
HETATM    7  C   UNL     1      -9.619   7.392  69.523  1.00  0.00    -0.155 A  
HETATM    8  C   UNL     1     -11.317   8.950  70.476  1.00  0.00    -0.268 C  
ENDROOT
BRANCH   4   9
HETATM    9  O   UNL     1     -11.460  10.081  67.878  1.00  0.00    -0.210 OA 
BRANCH   9  10
HETATM   10  C   UNL     1     -10.900  11.396  67.834  1.00  0.00    -0.225 C  
BRANCH  10  11
HETATM   11  C   UNL     1     -10.951  11.973  66.418  1.00  0.00    -0.337 C  
BRANCH  11  12
HETATM   12  C   UNL     1     -10.304  13.367  66.340  1.00  0.00    -0.288 C  
BRANCH  12  13
HETATM   13  C   UNL     1     -11.284  14.541  66.087  1.00  0.00    -0.339 C  
HETATM   14  C   UNL     1     -12.628  14.059  65.518  1.00  0.00    -0.543 C  
HETATM   15  C   UNL     1     -10.671  15.552  65.097  1.00  0.00    -0.460 C  
HETATM   16  C   UNL     1     -11.538  15.273  67.416  1.00  0.00    -0.188 C  
HETATM   17  O   UNL     1     -11.244  16.441  67.630  1.00  0.00    -0.218 OA 
HETATM   18  O   UNL     1     -12.127  14.519  68.372  1.00  0.00    -0.302 OA 
ENDBRANCH  12  13
ENDBRANCH  11  12
ENDBRANCH  10  11
ENDBRANCH   9  10
ENDBRANCH   4   9
TORSDOF 5
ENDMDL
MODEL      193
REMARK 921   NORMALIZED FREE ENERGY PREDICTED BY IDOCK:   -3.43 KCAL/MOL
REMARK 922        TOTAL FREE ENERGY PREDICTED BY IDOCK:   -4.91 KCAL/MOL
REMARK 923 INTER-LIGAND FREE ENERGY PREDICTED BY IDOCK:   -4.18 KCAL/MOL
REMARK 924 INTRA-LIGAND FREE ENERGY PREDICTED BY IDOCK:   -0.73 KCAL/MOL
REMARK 927      BINDING AFFINITY PREDICTED BY RF-SCORE:    0.00 PKD
ROOT
HETATM    1  C   UNL     1     -12.223   6.884  71.996  1.00  0.00    -0.318 C  
HETATM    2  C   UNL     1     -11.781   8.033  71.139  1.00  0.00    -0.307 A  
HETATM    3  C   UNL     1     -11.021   7.815  69.980  1.00  0.00    -0.218 A  
HETATM    4  C   UNL     1     -10.571   8.886  69.199  1.00  0.00    -0.195 A  
HETATM    5  C   UNL     1     -12.085   9.343  71.516  1.00  0.00    -0.456 A  
HETATM    6  C   UNL     1     -10.847  10.203  69.603  1.00  0.00    -0.299 A  
HETATM    7  C   UNL     1     -11.620  10.417  70.756  1.00  0.00    -0.450 A  
HETATM    8  C   UNL     1     -10.344  11.405  68.855  1.00  0.00    -0.203 C  
ENDROOT
BRANCH   4   9
HETATM    9  O   UNL     1      -9.786   8.731  68.088  1.00  0.00    -0.158 OA 
BRANCH   9  10
HETATM   10  C   UNL     1     -10.368   8.114  66.937  1.00  0.00    -0.331 C  
BRANCH  10  11
HETATM   11  C   UNL     1      -9.559   6.894  66.493  1.00  0.00    -0.197 C  
BRANCH  11  12
HETATM   12  C   UNL     1     -10.021   5.608  67.199  1.00  0.00    -0.188 C  
BRANCH  12  13
HETATM   13  C   UNL     1      -8.885   4.700  67.737  1.00  0.00    -0.115 C  
HETATM   14  C   UNL     1      -7.773   5.511  68.420  1.00  0.00    -0.085 C  
HETATM   15  C   UNL     1      -8.257   3.884  66.589  1.00  0.00    -0.100 C  
HETATM   16  C   UNL     1      -9.478   3.710  68.753  1.00  0.00    -0.144 C  
HETATM   17  O   UNL     1      -9.478   2.494  68.617  1.00  0.00    -0.189 OA 
HETATM   18  O   UNL     1     -10.022   4.286  69.850  1.00  0.00    -0.221 OA 
ENDBRANCH  12  13
ENDBRANCH  11  12
ENDBRANCH  10  11
ENDBRANCH   9  10
ENDBRANCH   4   9
TORSDOF 5
ENDMDL
MODEL      194
REMARK 921   NORMALIZED FREE ENERGY PREDICTED BY IDOCK:   -3.42 KCAL/MOL
REMARK 922        TOTAL FREE ENERGY PREDICTED BY IDOCK:   -4.91 KCAL/MOL
REMARK 923 INTER-LIGAND FREE ENERGY PREDICTED BY IDOCK:   -4.78 KCAL/MOL
REMARK 924 INTRA-LIGAND FREE ENERGY PREDICTED BY IDOCK:   -0.13 KCAL/MOL
REMARK 927      BINDING AFFINITY PREDICTED BY RF-SCORE:    0.00 PKD
ROOT
HETATM    1  C   UNL     1     -11.509   6.224  69.810  1.00  0.00    -0.449 C  
HETATM    2  C   UNL     1     -10.634   6.188  68.592  1.00  0.00    -0.324 A  
HETATM    3  C   UNL     1     -10.246   7.373  67.949  1.00  0.00    -0.242 A  
HETATM    4  C   UNL     1      -9.464   7.343  66.789  1.00  0.00    -0.176 A  
HETATM    5  C   UNL     1     -10.234   4.962  68.056  1.00  0.00    -0.105 A  
HETATM    6  C   UNL     1      -9.096   6.107  66.233  1.00  0.00    -0.165 A  
HETATM    7  C   UNL     1      -9.475   4.923  66.886  1.00  0.00    -0.156 A  
HETATM    8  C   UNL     1      -8.314   5.991  64.955  1.00  0.00    -0.104 C  
ENDROOT
BRANCH   4   9
HETATM    9  O   UNL     1      -9.099   8.466  66.096  1.00  0.00    -0.168 OA 
BRANCH   9  10
HETATM   10  C   UNL     1     -10.091   9.474  65.885  1.00  0.00    -0.214 C  
BRANCH  10  11
HETATM   11  C   UNL     1      -9.700  10.788  66.566  1.00  0.00    -0.236 C  
BRANCH  11  12
HETATM   12  C   UNL     1     -10.853  11.807  66.556  1.00  0.00    -0.323 C  
BRANCH  12  13
HETATM   13  C   UNL     1     -11.011  12.618  65.244  1.00  0.00    -0.320 C  
HETATM   14  C   UNL     1     -12.384  12.397  64.590  1.00  0.00    -0.518 C  
HETATM   15  C   UNL     1      -9.919  12.222  64.229  1.00  0.00    -0.244 C  
HETATM   16  C   UNL     1     -10.843  14.114  65.560  1.00  0.00    -0.310 C  
HETATM   17  O   UNL     1      -9.955  14.823  65.106  1.00  0.00    -0.355 OA 
HETATM   18  O   UNL     1     -11.772  14.620  66.404  1.00  0.00    -0.369 OA 
ENDBRANCH  12  13
ENDBRANCH  11  12
ENDBRANCH  10  11
ENDBRANCH   9  10
ENDBRANCH   4   9
TORSDOF 5
ENDMDL
MODEL      195
REMARK 921   NORMALIZED FREE ENERGY PREDICTED BY IDOCK:   -3.41 KCAL/MOL
REMARK 922        TOTAL FREE ENERGY PREDICTED BY IDOCK:   -4.89 KCAL/MOL
REMARK 923 INTER-LIGAND FREE ENERGY PREDICTED BY IDOCK:   -4.35 KCAL/MOL
REMARK 924 INTRA-LIGAND FREE ENERGY PREDICTED BY IDOCK:   -0.55 KCAL/MOL
REMARK 927      BINDING AFFINITY PREDICTED BY RF-SCORE:    0.00 PKD
ROOT
HETATM    1  C   UNL     1      -5.881  11.905  67.235  1.00  0.00    -0.130 C  
HETATM    2  C   UNL     1      -7.311  12.113  67.642  1.00  0.00    -0.122 A  
HETATM    3  C   UNL     1      -8.184  11.024  67.779  1.00  0.00    -0.117 A  
HETATM    4  C   UNL     1      -9.529  11.215  68.119  1.00  0.00    -0.180 A  
HETATM    5  C   UNL     1      -7.798  13.405  67.843  1.00  0.00    -0.152 A  
HETATM    6  C   UNL     1     -10.023  12.519  68.283  1.00  0.00    -0.229 A  
HETATM    7  C   UNL     1      -9.143  13.606  68.158  1.00  0.00    -0.195 A  
HETATM    8  C   UNL     1     -11.467  12.809  68.583  1.00  0.00    -0.341 C  
ENDROOT
BRANCH   4   9
HETATM    9  O   UNL     1     -10.434  10.192  68.218  1.00  0.00    -0.188 OA 
BRANCH   9  10
HETATM   10  C   UNL     1      -9.942   8.852  68.140  1.00  0.00    -0.176 C  
BRANCH  10  11
HETATM   11  C   UNL     1      -9.786   8.237  69.532  1.00  0.00    -0.181 C  
BRANCH  11  12
HETATM   12  C   UNL     1     -11.117   7.682  70.069  1.00  0.00    -0.201 C  
BRANCH  12  13
HETATM   13  C   UNL     1     -11.331   7.833  71.597  1.00  0.00    -0.291 C  
HETATM   14  C   UNL     1     -10.017   8.123  72.339  1.00  0.00    -0.345 C  
HETATM   15  C   UNL     1     -11.948   6.547  72.185  1.00  0.00    -0.334 C  
HETATM   16  C   UNL     1     -12.314   8.988  71.851  1.00  0.00    -0.384 C  
HETATM   17  O   UNL     1     -13.408   8.863  72.383  1.00  0.00    -0.416 OA 
HETATM   18  O   UNL     1     -11.881  10.200  71.432  1.00  0.00    -0.368 OA 
ENDBRANCH  12  13
ENDBRANCH  11  12
ENDBRANCH  10  11
ENDBRANCH   9  10
ENDBRANCH   4   9
TORSDOF 5
ENDMDL
MODEL      196
REMARK 921   NORMALIZED FREE ENERGY PREDICTED BY IDOCK:   -3.41 KCAL/MOL
REMARK 922        TOTAL FREE ENERGY PREDICTED BY IDOCK:   -4.89 KCAL/MOL
REMARK 923 INTER-LIGAND FREE ENERGY PREDICTED BY IDOCK:   -4.21 KCAL/MOL
REMARK 924 INTRA-LIGAND FREE ENERGY PREDICTED BY IDOCK:   -0.68 KCAL/MOL
REMARK 927      BINDING AFFINITY PREDICTED BY RF-SCORE:    0.00 PKD
ROOT
HETATM    1  C   UNL     1     -10.786  18.769  67.448  1.00  0.00    -0.487 C  
HETATM    2  C   UNL     1      -9.321  18.819  67.768  1.00  0.00    -0.323 A  
HETATM    3  C   UNL     1      -8.607  17.645  68.056  1.00  0.00    -0.248 A  
HETATM    4  C   UNL     1      -7.250  17.690  68.395  1.00  0.00    -0.236 A  
HETATM    5  C   UNL     1      -8.660  20.047  67.829  1.00  0.00    -0.347 A  
HETATM    6  C   UNL     1      -6.600  18.931  68.492  1.00  0.00    -0.268 A  
HETATM    7  C   UNL     1      -7.314  20.103  68.190  1.00  0.00    -0.279 A  
HETATM    8  C   UNL     1      -5.164  19.066  68.914  1.00  0.00    -0.194 C  
ENDROOT
BRANCH   4   9
HETATM    9  O   UNL     1      -6.521  16.581  68.732  1.00  0.00    -0.139 OA 
BRANCH   9  10
HETATM   10  C   UNL     1      -6.044  15.746  67.674  1.00  0.00    -0.154 C  
BRANCH  10  11
HETATM   11  C   UNL     1      -6.592  14.322  67.802  1.00  0.00    -0.189 C  
BRANCH  11  12
HETATM   12  C   UNL     1      -7.757  14.241  68.803  1.00  0.00    -0.134 C  
BRANCH  12  13
HETATM   13  C   UNL     1      -9.136  13.887  68.190  1.00  0.00    -0.193 C  
HETATM   14  C   UNL     1      -9.247  14.331  66.723  1.00  0.00    -0.282 C  
HETATM   15  C   UNL     1     -10.270  14.561  68.989  1.00  0.00    -0.210 C  
HETATM   16  C   UNL     1      -9.342  12.365  68.269  1.00  0.00    -0.199 C  
HETATM   17  O   UNL     1     -10.231  11.818  68.906  1.00  0.00    -0.188 OA 
HETATM   18  O   UNL     1      -8.444  11.638  67.564  1.00  0.00    -0.140 OA 
ENDBRANCH  12  13
ENDBRANCH  11  12
ENDBRANCH  10  11
ENDBRANCH   9  10
ENDBRANCH   4   9
TORSDOF 5
ENDMDL
MODEL      197
REMARK 921   NORMALIZED FREE ENERGY PREDICTED BY IDOCK:   -3.41 KCAL/MOL
REMARK 922        TOTAL FREE ENERGY PREDICTED BY IDOCK:   -4.89 KCAL/MOL
REMARK 923 INTER-LIGAND FREE ENERGY PREDICTED BY IDOCK:   -4.30 KCAL/MOL
REMARK 924 INTRA-LIGAND FREE ENERGY PREDICTED BY IDOCK:   -0.59 KCAL/MOL
REMARK 927      BINDING AFFINITY PREDICTED BY RF-SCORE:    0.00 PKD
ROOT
HETATM    1  C   UNL     1      -9.963  16.829  67.625  1.00  0.00    -0.262 C  
HETATM    2  C   UNL     1     -10.313  15.370  67.620  1.00  0.00    -0.262 A  
HETATM    3  C   UNL     1      -9.309  14.390  67.611  1.00  0.00    -0.200 A  
HETATM    4  C   UNL     1      -9.629  13.028  67.564  1.00  0.00    -0.204 A  
HETATM    5  C   UNL     1     -11.651  14.973  67.576  1.00  0.00    -0.315 A  
HETATM    6  C   UNL     1     -10.975  12.635  67.482  1.00  0.00    -0.280 A  
HETATM    7  C   UNL     1     -11.978  13.618  67.506  1.00  0.00    -0.393 A  
HETATM    8  C   UNL     1     -11.396  11.197  67.364  1.00  0.00    -0.329 C  
ENDROOT
BRANCH   4   9
HETATM    9  O   UNL     1      -8.689  12.035  67.504  1.00  0.00    -0.153 OA 
BRANCH   9  10
HETATM   10  C   UNL     1      -7.980  11.709  68.702  1.00  0.00    -0.127 C  
BRANCH  10  11
HETATM   11  C   UNL     1      -8.102  10.220  69.031  1.00  0.00    -0.132 C  
BRANCH  11  12
HETATM   12  C   UNL     1      -9.349   9.917  69.879  1.00  0.00    -0.250 C  
BRANCH  12  13
HETATM   13  C   UNL     1      -9.433   8.476  70.446  1.00  0.00    -0.181 C  
HETATM   14  C   UNL     1      -8.440   8.250  71.598  1.00  0.00    -0.193 C  
HETATM   15  C   UNL     1      -9.139   7.443  69.340  1.00  0.00    -0.139 C  
HETATM   16  C   UNL     1     -10.860   8.225  70.961  1.00  0.00    -0.233 C  
HETATM   17  O   UNL     1     -11.620   7.378  70.512  1.00  0.00    -0.283 OA 
HETATM   18  O   UNL     1     -11.242   9.030  71.979  1.00  0.00    -0.361 OA 
ENDBRANCH  12  13
ENDBRANCH  11  12
ENDBRANCH  10  11
ENDBRANCH   9  10
ENDBRANCH   4   9
TORSDOF 5
ENDMDL
MODEL      198
REMARK 921   NORMALIZED FREE ENERGY PREDICTED BY IDOCK:   -3.40 KCAL/MOL
REMARK 922        TOTAL FREE ENERGY PREDICTED BY IDOCK:   -4.88 KCAL/MOL
REMARK 923 INTER-LIGAND FREE ENERGY PREDICTED BY IDOCK:   -4.50 KCAL/MOL
REMARK 924 INTRA-LIGAND FREE ENERGY PREDICTED BY IDOCK:   -0.38 KCAL/MOL
REMARK 927      BINDING AFFINITY PREDICTED BY RF-SCORE:    0.00 PKD
ROOT
HETATM    1  C   UNL     1     -14.364   7.305  71.859  1.00  0.00    -0.507 C  
HETATM    2  C   UNL     1     -12.992   7.812  71.524  1.00  0.00    -0.357 A  
HETATM    3  C   UNL     1     -11.994   6.937  71.068  1.00  0.00    -0.422 A  
HETATM    4  C   UNL     1     -10.701   7.398  70.794  1.00  0.00    -0.232 A  
HETATM    5  C   UNL     1     -12.681   9.160  71.710  1.00  0.00    -0.446 A  
HETATM    6  C   UNL     1     -10.383   8.747  71.019  1.00  0.00    -0.297 A  
HETATM    7  C   UNL     1     -11.388   9.622  71.462  1.00  0.00    -0.420 A  
HETATM    8  C   UNL     1      -9.002   9.303  70.811  1.00  0.00    -0.292 C  
ENDROOT
BRANCH   4   9
HETATM    9  O   UNL     1      -9.679   6.579  70.395  1.00  0.00    -0.171 OA 
BRANCH   9  10
HETATM   10  C   UNL     1     -10.018   5.342  69.762  1.00  0.00    -0.224 C  
BRANCH  10  11
HETATM   11  C   UNL     1      -8.820   4.754  69.015  1.00  0.00    -0.121 C  
BRANCH  11  12
HETATM   12  C   UNL     1      -9.246   3.690  67.989  1.00  0.00    -0.220 C  
BRANCH  12  13
HETATM   13  C   UNL     1      -8.878   4.003  66.515  1.00  0.00    -0.122 C  
HETATM   14  C   UNL     1      -7.567   4.797  66.404  1.00  0.00    -0.087 C  
HETATM   15  C   UNL     1     -10.000   4.819  65.841  1.00  0.00    -0.245 C  
HETATM   16  C   UNL     1      -8.728   2.679  65.747  1.00  0.00    -0.127 C  
HETATM   17  O   UNL     1      -9.429   2.343  64.802  1.00  0.00    -0.140 OA 
HETATM   18  O   UNL     1      -7.737   1.876  66.197  1.00  0.00    -0.068 OA 
ENDBRANCH  12  13
ENDBRANCH  11  12
ENDBRANCH  10  11
ENDBRANCH   9  10
ENDBRANCH   4   9
TORSDOF 5
ENDMDL
MODEL      199
REMARK 921   NORMALIZED FREE ENERGY PREDICTED BY IDOCK:   -3.40 KCAL/MOL
REMARK 922        TOTAL FREE ENERGY PREDICTED BY IDOCK:   -4.87 KCAL/MOL
REMARK 923 INTER-LIGAND FREE ENERGY PREDICTED BY IDOCK:   -4.31 KCAL/MOL
REMARK 924 INTRA-LIGAND FREE ENERGY PREDICTED BY IDOCK:   -0.56 KCAL/MOL
REMARK 927      BINDING AFFINITY PREDICTED BY RF-SCORE:    0.00 PKD
ROOT
HETATM    1  C   UNL     1     -12.171  13.801  66.905  1.00  0.00    -0.408 C  
HETATM    2  C   UNL     1     -11.558  12.976  65.812  1.00  0.00    -0.396 A  
HETATM    3  C   UNL     1     -10.712  11.899  66.113  1.00  0.00    -0.318 A  
HETATM    4  C   UNL     1     -10.104  11.151  65.097  1.00  0.00    -0.281 A  
HETATM    5  C   UNL     1     -11.789  13.306  64.475  1.00  0.00    -0.433 A  
HETATM    6  C   UNL     1     -10.310  11.511  63.755  1.00  0.00    -0.450 A  
HETATM    7  C   UNL     1     -11.169  12.581  63.457  1.00  0.00    -0.525 A  
HETATM    8  C   UNL     1      -9.642  10.799  62.612  1.00  0.00    -0.296 C  
ENDROOT
BRANCH   4   9
HETATM    9  O   UNL     1      -9.233  10.123  65.337  1.00  0.00    -0.173 OA 
BRANCH   9  10
HETATM   10  C   UNL     1      -9.776   8.863  65.738  1.00  0.00    -0.123 C  
BRANCH  10  11
HETATM   11  C   UNL     1      -9.085   8.336  66.997  1.00  0.00    -0.172 C  
BRANCH  11  12
HETATM   12  C   UNL     1      -9.017   9.401  68.106  1.00  0.00    -0.128 C  
BRANCH  12  13
HETATM   13  C   UNL     1      -7.855   9.233  69.118  1.00  0.00    -0.086 C  
HETATM   14  C   UNL     1      -7.182   7.856  69.001  1.00  0.00    -0.075 C  
HETATM   15  C   UNL     1      -8.368   9.401  70.563  1.00  0.00    -0.233 C  
HETATM   16  C   UNL     1      -6.805  10.326  68.858  1.00  0.00    -0.059 C  
HETATM   17  O   UNL     1      -6.494  11.194  69.662  1.00  0.00    -0.099 OA 
HETATM   18  O   UNL     1      -6.223  10.270  67.637  1.00  0.00    -0.056 OA 
ENDBRANCH  12  13
ENDBRANCH  11  12
ENDBRANCH  10  11
ENDBRANCH   9  10
ENDBRANCH   4   9
TORSDOF 5
ENDMDL
MODEL      200
REMARK 921   NORMALIZED FREE ENERGY PREDICTED BY IDOCK:   -3.40 KCAL/MOL
REMARK 922        TOTAL FREE ENERGY PREDICTED BY IDOCK:   -4.87 KCAL/MOL
REMARK 923 INTER-LIGAND FREE ENERGY PREDICTED BY IDOCK:   -4.37 KCAL/MOL
REMARK 924 INTRA-LIGAND FREE ENERGY PREDICTED BY IDOCK:   -0.51 KCAL/MOL
REMARK 927      BINDING AFFINITY PREDICTED BY RF-SCORE:    0.00 PKD
ROOT
HETATM    1  C   UNL     1      -8.798  14.745  67.110  1.00  0.00    -0.234 C  
HETATM    2  C   UNL     1      -9.766  14.033  66.211  1.00  0.00    -0.311 A  
HETATM    3  C   UNL     1      -9.807  12.631  66.166  1.00  0.00    -0.265 A  
HETATM    4  C   UNL     1     -10.679  11.962  65.299  1.00  0.00    -0.283 A  
HETATM    5  C   UNL     1     -10.607  14.765  65.371  1.00  0.00    -0.395 A  
HETATM    6  C   UNL     1     -11.495  12.703  64.429  1.00  0.00    -0.402 A  
HETATM    7  C   UNL     1     -11.461  14.106  64.487  1.00  0.00    -0.380 A  
HETATM    8  C   UNL     1     -12.409  12.058  63.425  1.00  0.00    -0.635 C  
ENDROOT
BRANCH   4   9
HETATM    9  O   UNL     1     -10.725  10.599  65.181  1.00  0.00    -0.186 OA 
BRANCH   9  10
HETATM   10  C   UNL     1      -9.485   9.890  65.117  1.00  0.00    -0.275 C  
BRANCH  10  11
HETATM   11  C   UNL     1      -9.524   8.627  65.981  1.00  0.00    -0.278 C  
BRANCH  11  12
HETATM   12  C   UNL     1      -8.694   8.782  67.267  1.00  0.00    -0.133 C  
BRANCH  12  13
HETATM   13  C   UNL     1      -7.644   7.669  67.518  1.00  0.00    -0.109 C  
HETATM   14  C   UNL     1      -6.504   8.146  68.432  1.00  0.00    -0.058 C  
HETATM   15  C   UNL     1      -7.031   7.194  66.184  1.00  0.00    -0.065 C  
HETATM   16  C   UNL     1      -8.340   6.465  68.174  1.00  0.00    -0.116 C  
HETATM   17  O   UNL     1      -8.420   5.352  67.673  1.00  0.00    -0.107 OA 
HETATM   18  O   UNL     1      -8.884   6.720  69.387  1.00  0.00    -0.135 OA 
ENDBRANCH  12  13
ENDBRANCH  11  12
ENDBRANCH  10  11
ENDBRANCH   9  10
ENDBRANCH   4   9
TORSDOF 5
ENDMDL
MODEL      201
REMARK 921   NORMALIZED FREE ENERGY PREDICTED BY IDOCK:   -3.39 KCAL/MOL
REMARK 922        TOTAL FREE ENERGY PREDICTED BY IDOCK:   -4.86 KCAL/MOL
REMARK 923 INTER-LIGAND FREE ENERGY PREDICTED BY IDOCK:   -4.51 KCAL/MOL
REMARK 924 INTRA-LIGAND FREE ENERGY PREDICTED BY IDOCK:   -0.35 KCAL/MOL
REMARK 927      BINDING AFFINITY PREDICTED BY RF-SCORE:    0.00 PKD
ROOT
HETATM    1  C   UNL     1      -5.569  14.224  71.264  1.00  0.00    -0.205 C  
HETATM    2  C   UNL     1      -6.272  14.885  70.115  1.00  0.00    -0.165 A  
HETATM    3  C   UNL     1      -7.044  14.135  69.216  1.00  0.00    -0.079 A  
HETATM    4  C   UNL     1      -7.668  14.740  68.119  1.00  0.00    -0.122 A  
HETATM    5  C   UNL     1      -6.124  16.257  69.903  1.00  0.00    -0.180 A  
HETATM    6  C   UNL     1      -7.485  16.114  67.889  1.00  0.00    -0.140 A  
HETATM    7  C   UNL     1      -6.723  16.864  68.799  1.00  0.00    -0.190 A  
HETATM    8  C   UNL     1      -8.068  16.823  66.699  1.00  0.00    -0.300 C  
ENDROOT
BRANCH   4   9
HETATM    9  O   UNL     1      -8.391  14.047  67.185  1.00  0.00    -0.193 OA 
BRANCH   9  10
HETATM   10  C   UNL     1      -8.038  12.682  66.943  1.00  0.00    -0.008 C  
BRANCH  10  11
HETATM   11  C   UNL     1      -9.282  11.796  66.853  1.00  0.00    -0.189 C  
BRANCH  11  12
HETATM   12  C   UNL     1      -9.901  11.813  65.444  1.00  0.00    -0.261 C  
BRANCH  12  13
HETATM   13  C   UNL     1     -11.145  12.722  65.276  1.00  0.00    -0.320 C  
HETATM   14  C   UNL     1     -12.176  12.118  64.309  1.00  0.00    -0.469 C  
HETATM   15  C   UNL     1     -10.733  14.109  64.742  1.00  0.00    -0.436 C  
HETATM   16  C   UNL     1     -11.806  12.922  66.651  1.00  0.00    -0.395 C  
HETATM   17  O   UNL     1     -11.921  14.001  67.214  1.00  0.00    -0.390 OA 
HETATM   18  O   UNL     1     -12.271  11.787  67.223  1.00  0.00    -0.471 OA 
ENDBRANCH  12  13
ENDBRANCH  11  12
ENDBRANCH  10  11
ENDBRANCH   9  10
ENDBRANCH   4   9
TORSDOF 5
ENDMDL
MODEL      202
REMARK 921   NORMALIZED FREE ENERGY PREDICTED BY IDOCK:   -3.39 KCAL/MOL
REMARK 922        TOTAL FREE ENERGY PREDICTED BY IDOCK:   -4.86 KCAL/MOL
REMARK 923 INTER-LIGAND FREE ENERGY PREDICTED BY IDOCK:   -4.40 KCAL/MOL
REMARK 924 INTRA-LIGAND FREE ENERGY PREDICTED BY IDOCK:   -0.46 KCAL/MOL
REMARK 927      BINDING AFFINITY PREDICTED BY RF-SCORE:    0.00 PKD
ROOT
HETATM    1  C   UNL     1      -7.221  11.178  69.002  1.00  0.00    -0.118 C  
HETATM    2  C   UNL     1      -7.829  11.037  67.637  1.00  0.00    -0.114 A  
HETATM    3  C   UNL     1      -9.215  11.148  67.451  1.00  0.00    -0.157 A  
HETATM    4  C   UNL     1      -9.790  10.977  66.187  1.00  0.00    -0.225 A  
HETATM    5  C   UNL     1      -7.017  10.745  66.538  1.00  0.00    -0.130 A  
HETATM    6  C   UNL     1      -8.974  10.646  65.093  1.00  0.00    -0.217 A  
HETATM    7  C   UNL     1      -7.586  10.549  65.280  1.00  0.00    -0.074 A  
HETATM    8  C   UNL     1      -9.524  10.383  63.719  1.00  0.00    -0.353 C  
ENDROOT
BRANCH   4   9
HETATM    9  O   UNL     1     -11.140  11.026  65.961  1.00  0.00    -0.136 OA 
BRANCH   9  10
HETATM   10  C   UNL     1     -11.733  12.305  65.720  1.00  0.00    -0.385 C  
BRANCH  10  11
HETATM   11  C   UNL     1     -10.913  13.426  66.362  1.00  0.00    -0.297 C  
BRANCH  11  12
HETATM   12  C   UNL     1     -11.772  14.317  67.276  1.00  0.00    -0.422 C  
BRANCH  12  13
HETATM   13  C   UNL     1     -11.265  14.454  68.735  1.00  0.00    -0.282 C  
HETATM   14  C   UNL     1      -9.731  14.418  68.820  1.00  0.00    -0.190 C  
HETATM   15  C   UNL     1     -11.828  13.316  69.611  1.00  0.00    -0.391 C  
HETATM   16  C   UNL     1     -11.766  15.788  69.314  1.00  0.00    -0.374 C  
HETATM   17  O   UNL     1     -12.521  15.888  70.271  1.00  0.00    -0.339 OA 
HETATM   18  O   UNL     1     -11.307  16.888  68.674  1.00  0.00    -0.193 OA 
ENDBRANCH  12  13
ENDBRANCH  11  12
ENDBRANCH  10  11
ENDBRANCH   9  10
ENDBRANCH   4   9
TORSDOF 5
ENDMDL
MODEL      203
REMARK 921   NORMALIZED FREE ENERGY PREDICTED BY IDOCK:   -3.38 KCAL/MOL
REMARK 922        TOTAL FREE ENERGY PREDICTED BY IDOCK:   -4.85 KCAL/MOL
REMARK 923 INTER-LIGAND FREE ENERGY PREDICTED BY IDOCK:   -4.24 KCAL/MOL
REMARK 924 INTRA-LIGAND FREE ENERGY PREDICTED BY IDOCK:   -0.61 KCAL/MOL
REMARK 927      BINDING AFFINITY PREDICTED BY RF-SCORE:    0.00 PKD
ROOT
HETATM    1  C   UNL     1     -13.015  12.096  71.548  1.00  0.00    -0.398 C  
HETATM    2  C   UNL     1     -12.249  11.228  70.593  1.00  0.00    -0.489 A  
HETATM    3  C   UNL     1     -11.669  10.025  71.021  1.00  0.00    -0.479 A  
HETATM    4  C   UNL     1     -10.918   9.232  70.145  1.00  0.00    -0.246 A  
HETATM    5  C   UNL     1     -12.066  11.638  69.270  1.00  0.00    -0.323 A  
HETATM    6  C   UNL     1     -10.706   9.668  68.827  1.00  0.00    -0.234 A  
HETATM    7  C   UNL     1     -11.300  10.866  68.397  1.00  0.00    -0.370 A  
HETATM    8  C   UNL     1      -9.859   8.906  67.846  1.00  0.00    -0.205 C  
ENDROOT
BRANCH   4   9
HETATM    9  O   UNL     1     -10.291   8.076  70.524  1.00  0.00    -0.198 OA 
BRANCH   9  10
HETATM   10  C   UNL     1     -10.806   7.375  71.659  1.00  0.00    -0.220 C  
BRANCH  10  11
HETATM   11  C   UNL     1      -9.830   6.298  72.136  1.00  0.00    -0.171 C  
BRANCH  11  12
HETATM   12  C   UNL     1      -8.504   6.337  71.357  1.00  0.00    -0.127 C  
BRANCH  12  13
HETATM   13  C   UNL     1      -7.228   6.487  72.225  1.00  0.00    -0.086 C  
HETATM   14  C   UNL     1      -6.006   6.899  71.388  1.00  0.00    -0.037 C  
HETATM   15  C   UNL     1      -6.902   5.161  72.941  1.00  0.00    -0.077 C  
HETATM   16  C   UNL     1      -7.480   7.557  73.301  1.00  0.00    -0.096 C  
HETATM   17  O   UNL     1      -7.467   7.345  74.505  1.00  0.00    -0.117 OA 
HETATM   18  O   UNL     1      -7.728   8.796  72.817  1.00  0.00    -0.369 OA 
ENDBRANCH  12  13
ENDBRANCH  11  12
ENDBRANCH  10  11
ENDBRANCH   9  10
ENDBRANCH   4   9
TORSDOF 5
ENDMDL
MODEL      204
REMARK 921   NORMALIZED FREE ENERGY PREDICTED BY IDOCK:   -3.38 KCAL/MOL
REMARK 922        TOTAL FREE ENERGY PREDICTED BY IDOCK:   -4.84 KCAL/MOL
REMARK 923 INTER-LIGAND FREE ENERGY PREDICTED BY IDOCK:   -4.29 KCAL/MOL
REMARK 924 INTRA-LIGAND FREE ENERGY PREDICTED BY IDOCK:   -0.56 KCAL/MOL
REMARK 927      BINDING AFFINITY PREDICTED BY RF-SCORE:    0.00 PKD
ROOT
HETATM    1  C   UNL     1      -9.869  16.067  66.699  1.00  0.00    -0.273 C  
HETATM    2  C   UNL     1     -10.641  14.973  66.021  1.00  0.00    -0.329 A  
HETATM    3  C   UNL     1     -10.527  13.641  66.448  1.00  0.00    -0.288 A  
HETATM    4  C   UNL     1     -11.214  12.612  65.794  1.00  0.00    -0.312 A  
HETATM    5  C   UNL     1     -11.449  15.267  64.922  1.00  0.00    -0.343 A  
HETATM    6  C   UNL     1     -11.995  12.908  64.665  1.00  0.00    -0.445 A  
HETATM    7  C   UNL     1     -12.118  14.244  64.249  1.00  0.00    -0.467 A  
HETATM    8  C   UNL     1     -12.709  11.851  63.871  1.00  0.00    -0.413 C  
ENDROOT
BRANCH   4   9
HETATM    9  O   UNL     1     -11.099  11.292  66.139  1.00  0.00    -0.248 OA 
BRANCH   9  10
HETATM   10  C   UNL     1      -9.789  10.720  66.179  1.00  0.00    -0.221 C  
BRANCH  10  11
HETATM   11  C   UNL     1      -9.597   9.696  65.058  1.00  0.00    -0.284 C  
BRANCH  11  12
HETATM   12  C   UNL     1      -8.115   9.340  64.850  1.00  0.00    -0.130 C  
BRANCH  12  13
HETATM   13  C   UNL     1      -7.742   8.851  63.427  1.00  0.00    -0.124 C  
HETATM   14  C   UNL     1      -8.882   9.079  62.421  1.00  0.00    -0.177 C  
HETATM   15  C   UNL     1      -7.402   7.347  63.445  1.00  0.00    -0.087 C  
HETATM   16  C   UNL     1      -6.494   9.614  62.949  1.00  0.00    -0.105 C  
HETATM   17  O   UNL     1      -5.421   9.090  62.687  1.00  0.00    -0.077 OA 
HETATM   18  O   UNL     1      -6.661  10.951  62.833  1.00  0.00     0.033 OA 
ENDBRANCH  12  13
ENDBRANCH  11  12
ENDBRANCH  10  11
ENDBRANCH   9  10
ENDBRANCH   4   9
TORSDOF 5
ENDMDL
MODEL      205
REMARK 921   NORMALIZED FREE ENERGY PREDICTED BY IDOCK:   -3.36 KCAL/MOL
REMARK 922        TOTAL FREE ENERGY PREDICTED BY IDOCK:   -4.82 KCAL/MOL
REMARK 923 INTER-LIGAND FREE ENERGY PREDICTED BY IDOCK:   -4.29 KCAL/MOL
REMARK 924 INTRA-LIGAND FREE ENERGY PREDICTED BY IDOCK:   -0.54 KCAL/MOL
REMARK 927      BINDING AFFINITY PREDICTED BY RF-SCORE:    0.00 PKD
ROOT
HETATM    1  C   UNL     1      -9.383   3.249  63.438  1.00  0.00    -0.096 C  
HETATM    2  C   UNL     1      -9.326   3.315  64.937  1.00  0.00    -0.149 A  
HETATM    3  C   UNL     1      -9.540   4.526  65.612  1.00  0.00    -0.191 A  
HETATM    4  C   UNL     1      -9.448   4.602  67.007  1.00  0.00    -0.160 A  
HETATM    5  C   UNL     1      -9.011   2.172  65.674  1.00  0.00    -0.116 A  
HETATM    6  C   UNL     1      -9.094   3.458  67.740  1.00  0.00    -0.204 A  
HETATM    7  C   UNL     1      -8.894   2.244  67.062  1.00  0.00    -0.150 A  
HETATM    8  C   UNL     1      -8.911   3.474  69.232  1.00  0.00    -0.179 C  
ENDROOT
BRANCH   4   9
HETATM    9  O   UNL     1      -9.599   5.767  67.710  1.00  0.00    -0.111 OA 
BRANCH   9  10
HETATM   10  C   UNL     1     -10.909   6.332  67.797  1.00  0.00    -0.338 C  
BRANCH  10  11
HETATM   11  C   UNL     1     -11.360   6.464  69.253  1.00  0.00    -0.405 C  
BRANCH  11  12
HETATM   12  C   UNL     1     -10.607   7.585  69.990  1.00  0.00    -0.242 C  
BRANCH  12  13
HETATM   13  C   UNL     1     -11.011   7.793  71.473  1.00  0.00    -0.267 C  
HETATM   14  C   UNL     1      -9.880   8.429  72.296  1.00  0.00    -0.383 C  
HETATM   15  C   UNL     1     -11.389   6.447  72.123  1.00  0.00    -0.332 C  
HETATM   16  C   UNL     1     -12.246   8.709  71.529  1.00  0.00    -0.318 C  
HETATM   17  O   UNL     1     -13.336   8.376  71.973  1.00  0.00    -0.335 OA 
HETATM   18  O   UNL     1     -12.047   9.954  71.038  1.00  0.00    -0.308 OA 
ENDBRANCH  12  13
ENDBRANCH  11  12
ENDBRANCH  10  11
ENDBRANCH   9  10
ENDBRANCH   4   9
TORSDOF 5
ENDMDL
MODEL      206
REMARK 921   NORMALIZED FREE ENERGY PREDICTED BY IDOCK:   -3.33 KCAL/MOL
REMARK 922        TOTAL FREE ENERGY PREDICTED BY IDOCK:   -4.78 KCAL/MOL
REMARK 923 INTER-LIGAND FREE ENERGY PREDICTED BY IDOCK:   -4.15 KCAL/MOL
REMARK 924 INTRA-LIGAND FREE ENERGY PREDICTED BY IDOCK:   -0.64 KCAL/MOL
REMARK 927      BINDING AFFINITY PREDICTED BY RF-SCORE:    0.00 PKD
ROOT
HETATM    1  C   UNL     1      -7.984   4.160  65.016  1.00  0.00    -0.093 C  
HETATM    2  C   UNL     1      -8.479   3.926  66.413  1.00  0.00    -0.109 A  
HETATM    3  C   UNL     1      -8.399   4.938  67.382  1.00  0.00    -0.105 A  
HETATM    4  C   UNL     1      -8.820   4.712  68.698  1.00  0.00    -0.101 A  
HETATM    5  C   UNL     1      -8.983   2.676  66.776  1.00  0.00    -0.160 A  
HETATM    6  C   UNL     1      -9.291   3.442  69.066  1.00  0.00    -0.239 A  
HETATM    7  C   UNL     1      -9.383   2.436  68.091  1.00  0.00    -0.263 A  
HETATM    8  C   UNL     1      -9.700   3.103  70.473  1.00  0.00    -0.118 C  
ENDROOT
BRANCH   4   9
HETATM    9  O   UNL     1      -8.719   5.648  69.692  1.00  0.00    -0.108 OA 
BRANCH   9  10
HETATM   10  C   UNL     1      -9.050   7.002  69.375  1.00  0.00    -0.145 C  
BRANCH  10  11
HETATM   11  C   UNL     1     -10.550   7.159  69.113  1.00  0.00    -0.227 C  
BRANCH  11  12
HETATM   12  C   UNL     1     -11.399   6.432  70.169  1.00  0.00    -0.485 C  
BRANCH  12  13
HETATM   13  C   UNL     1     -11.938   7.323  71.317  1.00  0.00    -0.359 C  
HETATM   14  C   UNL     1     -13.450   7.145  71.526  1.00  0.00    -0.411 C  
HETATM   15  C   UNL     1     -11.660   8.811  71.021  1.00  0.00    -0.337 C  
HETATM   16  C   UNL     1     -11.207   6.956  72.620  1.00  0.00    -0.260 C  
HETATM   17  O   UNL     1     -10.496   7.722  73.255  1.00  0.00    -0.349 OA 
HETATM   18  O   UNL     1     -11.403   5.684  73.037  1.00  0.00    -0.280 OA 
ENDBRANCH  12  13
ENDBRANCH  11  12
ENDBRANCH  10  11
ENDBRANCH   9  10
ENDBRANCH   4   9
TORSDOF 5
ENDMDL
MODEL      207
REMARK 921   NORMALIZED FREE ENERGY PREDICTED BY IDOCK:   -3.33 KCAL/MOL
REMARK 922        TOTAL FREE ENERGY PREDICTED BY IDOCK:   -4.78 KCAL/MOL
REMARK 923 INTER-LIGAND FREE ENERGY PREDICTED BY IDOCK:   -4.49 KCAL/MOL
REMARK 924 INTRA-LIGAND FREE ENERGY PREDICTED BY IDOCK:   -0.29 KCAL/MOL
REMARK 927      BINDING AFFINITY PREDICTED BY RF-SCORE:    0.00 PKD
ROOT
HETATM    1  C   UNL     1      -6.307  12.272  69.200  1.00  0.00    -0.095 C  
HETATM    2  C   UNL     1      -7.252  11.799  68.135  1.00  0.00    -0.086 A  
HETATM    3  C   UNL     1      -8.637  11.972  68.274  1.00  0.00    -0.174 A  
HETATM    4  C   UNL     1      -9.525  11.496  67.303  1.00  0.00    -0.169 A  
HETATM    5  C   UNL     1      -6.759  11.134  67.010  1.00  0.00    -0.115 A  
HETATM    6  C   UNL     1      -9.027  10.795  66.192  1.00  0.00    -0.192 A  
HETATM    7  C   UNL     1      -7.639  10.635  66.050  1.00  0.00    -0.142 A  
HETATM    8  C   UNL     1      -9.921  10.196  65.142  1.00  0.00    -0.379 C  
ENDROOT
BRANCH   4   9
HETATM    9  O   UNL     1     -10.887  11.596  67.413  1.00  0.00    -0.224 OA 
BRANCH   9  10
HETATM   10  C   UNL     1     -11.429  11.997  68.674  1.00  0.00    -0.297 C  
BRANCH  10  11
HETATM   11  C   UNL     1     -12.034  10.807  69.421  1.00  0.00    -0.353 C  
BRANCH  11  12
HETATM   12  C   UNL     1     -10.962   9.977  70.148  1.00  0.00    -0.368 C  
BRANCH  12  13
HETATM   13  C   UNL     1     -11.503   8.863  71.080  1.00  0.00    -0.364 C  
HETATM   14  C   UNL     1     -10.604   8.651  72.309  1.00  0.00    -0.375 C  
HETATM   15  C   UNL     1     -11.610   7.526  70.319  1.00  0.00    -0.114 C  
HETATM   16  C   UNL     1     -12.914   9.251  71.554  1.00  0.00    -0.359 C  
HETATM   17  O   UNL     1     -13.928   8.613  71.307  1.00  0.00    -0.302 OA 
HETATM   18  O   UNL     1     -12.969  10.387  72.288  1.00  0.00    -0.382 OA 
ENDBRANCH  12  13
ENDBRANCH  11  12
ENDBRANCH  10  11
ENDBRANCH   9  10
ENDBRANCH   4   9
TORSDOF 5
ENDMDL
MODEL      208
REMARK 921   NORMALIZED FREE ENERGY PREDICTED BY IDOCK:   -3.32 KCAL/MOL
REMARK 922        TOTAL FREE ENERGY PREDICTED BY IDOCK:   -4.77 KCAL/MOL
REMARK 923 INTER-LIGAND FREE ENERGY PREDICTED BY IDOCK:   -4.15 KCAL/MOL
REMARK 924 INTRA-LIGAND FREE ENERGY PREDICTED BY IDOCK:   -0.62 KCAL/MOL
REMARK 927      BINDING AFFINITY PREDICTED BY RF-SCORE:    0.00 PKD
ROOT
HETATM    1  C   UNL     1      -7.067   8.382  63.984  1.00  0.00    -0.087 C  
HETATM    2  C   UNL     1      -8.070   9.010  64.907  1.00  0.00    -0.137 A  
HETATM    3  C   UNL     1      -8.990   8.222  65.614  1.00  0.00    -0.157 A  
HETATM    4  C   UNL     1      -9.954   8.806  66.444  1.00  0.00    -0.275 A  
HETATM    5  C   UNL     1      -8.127  10.400  65.033  1.00  0.00    -0.136 A  
HETATM    6  C   UNL     1     -10.031  10.205  66.538  1.00  0.00    -0.283 A  
HETATM    7  C   UNL     1      -9.100  10.990  65.840  1.00  0.00    -0.214 A  
HETATM    8  C   UNL     1     -11.078  10.908  67.356  1.00  0.00    -0.373 C  
ENDROOT
BRANCH   4   9
HETATM    9  O   UNL     1     -10.904   8.086  67.117  1.00  0.00    -0.278 OA 
BRANCH   9  10
HETATM   10  C   UNL     1     -10.545   6.790  67.602  1.00  0.00    -0.259 C  
BRANCH  10  11
HETATM   11  C   UNL     1     -10.365   6.797  69.121  1.00  0.00    -0.213 C  
BRANCH  11  12
HETATM   12  C   UNL     1     -11.115   7.964  69.785  1.00  0.00    -0.079 C  
BRANCH  12  13
HETATM   13  C   UNL     1     -10.703   8.272  71.248  1.00  0.00    -0.276 C  
HETATM   14  C   UNL     1     -11.781   9.073  71.995  1.00  0.00    -0.417 C  
HETATM   15  C   UNL     1      -9.389   9.077  71.281  1.00  0.00    -0.324 C  
HETATM   16  C   UNL     1     -10.464   6.945  71.989  1.00  0.00    -0.205 C  
HETATM   17  O   UNL     1      -9.391   6.600  72.463  1.00  0.00    -0.139 OA 
HETATM   18  O   UNL     1     -11.554   6.150  72.087  1.00  0.00    -0.299 OA 
ENDBRANCH  12  13
ENDBRANCH  11  12
ENDBRANCH  10  11
ENDBRANCH   9  10
ENDBRANCH   4   9
TORSDOF 5
ENDMDL
MODEL      209
REMARK 921   NORMALIZED FREE ENERGY PREDICTED BY IDOCK:   -3.30 KCAL/MOL
REMARK 922        TOTAL FREE ENERGY PREDICTED BY IDOCK:   -4.74 KCAL/MOL
REMARK 923 INTER-LIGAND FREE ENERGY PREDICTED BY IDOCK:   -4.37 KCAL/MOL
REMARK 924 INTRA-LIGAND FREE ENERGY PREDICTED BY IDOCK:   -0.38 KCAL/MOL
REMARK 927      BINDING AFFINITY PREDICTED BY RF-SCORE:    0.00 PKD
ROOT
HETATM    1  C   UNL     1     -12.419  15.934  71.642  1.00  0.00    -0.502 C  
HETATM    2  C   UNL     1     -12.587  14.446  71.553  1.00  0.00    -0.424 A  
HETATM    3  C   UNL     1     -12.001  13.718  70.506  1.00  0.00    -0.367 A  
HETATM    4  C   UNL     1     -12.188  12.335  70.395  1.00  0.00    -0.288 A  
HETATM    5  C   UNL     1     -13.374  13.774  72.490  1.00  0.00    -0.656 A  
HETATM    6  C   UNL     1     -13.011  11.671  71.319  1.00  0.00    -0.368 A  
HETATM    7  C   UNL     1     -13.585  12.401  72.372  1.00  0.00    -0.262 A  
HETATM    8  C   UNL     1     -13.314  10.201  71.228  1.00  0.00    -0.394 C  
ENDROOT
BRANCH   4   9
HETATM    9  O   UNL     1     -11.680  11.586  69.367  1.00  0.00    -0.286 OA 
BRANCH   9  10
HETATM   10  C   UNL     1     -10.322  11.812  68.982  1.00  0.00    -0.059 C  
BRANCH  10  11
HETATM   11  C   UNL     1      -9.836  10.738  68.006  1.00  0.00    -0.180 C  
BRANCH  11  12
HETATM   12  C   UNL     1      -9.449  11.331  66.641  1.00  0.00    -0.204 C  
BRANCH  12  13
HETATM   13  C   UNL     1      -8.492  10.461  65.786  1.00  0.00    -0.170 C  
HETATM   14  C   UNL     1      -8.546  10.836  64.296  1.00  0.00    -0.034 C  
HETATM   15  C   UNL     1      -8.850   8.968  65.925  1.00  0.00    -0.210 C  
HETATM   16  C   UNL     1      -7.054  10.653  66.297  1.00  0.00    -0.137 C  
HETATM   17  O   UNL     1      -6.363   9.763  66.773  1.00  0.00    -0.064 OA 
HETATM   18  O   UNL     1      -6.580  11.916  66.187  1.00  0.00     0.240 OA 
ENDBRANCH  12  13
ENDBRANCH  11  12
ENDBRANCH  10  11
ENDBRANCH   9  10
ENDBRANCH   4   9
TORSDOF 5
ENDMDL
MODEL      210
REMARK 921   NORMALIZED FREE ENERGY PREDICTED BY IDOCK:   -3.30 KCAL/MOL
REMARK 922        TOTAL FREE ENERGY PREDICTED BY IDOCK:   -4.74 KCAL/MOL
REMARK 923 INTER-LIGAND FREE ENERGY PREDICTED BY IDOCK:   -4.20 KCAL/MOL
REMARK 924 INTRA-LIGAND FREE ENERGY PREDICTED BY IDOCK:   -0.54 KCAL/MOL
REMARK 927      BINDING AFFINITY PREDICTED BY RF-SCORE:    0.00 PKD
ROOT
HETATM    1  C   UNL     1      -6.631  14.501  69.327  1.00  0.00    -0.125 C  
HETATM    2  C   UNL     1      -7.661  14.571  68.238  1.00  0.00    -0.126 A  
HETATM    3  C   UNL     1      -8.556  13.512  68.025  1.00  0.00    -0.177 A  
HETATM    4  C   UNL     1      -9.492  13.554  66.985  1.00  0.00    -0.251 A  
HETATM    5  C   UNL     1      -7.707  15.680  67.391  1.00  0.00    -0.215 A  
HETATM    6  C   UNL     1      -9.508  14.655  66.113  1.00  0.00    -0.308 A  
HETATM    7  C   UNL     1      -8.621  15.720  66.337  1.00  0.00    -0.346 A  
HETATM    8  C   UNL     1     -10.438  14.744  64.935  1.00  0.00    -0.398 C  
ENDROOT
BRANCH   4   9
HETATM    9  O   UNL     1     -10.353  12.528  66.704  1.00  0.00    -0.225 OA 
BRANCH   9  10
HETATM   10  C   UNL     1      -9.814  11.206  66.614  1.00  0.00    -0.199 C  
BRANCH  10  11
HETATM   11  C   UNL     1     -10.710  10.193  67.330  1.00  0.00    -0.316 C  
BRANCH  11  12
HETATM   12  C   UNL     1     -10.743  10.424  68.850  1.00  0.00    -0.255 C  
BRANCH  12  13
HETATM   13  C   UNL     1      -9.820   9.497  69.683  1.00  0.00    -0.220 C  
HETATM   14  C   UNL     1     -10.349   9.288  71.111  1.00  0.00    -0.392 C  
HETATM   15  C   UNL     1      -8.399  10.089  69.773  1.00  0.00    -0.187 C  
HETATM   16  C   UNL     1      -9.721   8.132  68.982  1.00  0.00    -0.163 C  
HETATM   17  O   UNL     1      -8.686   7.654  68.540  1.00  0.00    -0.128 OA 
HETATM   18  O   UNL     1     -10.894   7.465  68.878  1.00  0.00    -0.166 OA 
ENDBRANCH  12  13
ENDBRANCH  11  12
ENDBRANCH  10  11
ENDBRANCH   9  10
ENDBRANCH   4   9
TORSDOF 5
ENDMDL
MODEL      211
REMARK 921   NORMALIZED FREE ENERGY PREDICTED BY IDOCK:   -3.27 KCAL/MOL
REMARK 922        TOTAL FREE ENERGY PREDICTED BY IDOCK:   -4.71 KCAL/MOL
REMARK 923 INTER-LIGAND FREE ENERGY PREDICTED BY IDOCK:   -4.15 KCAL/MOL
REMARK 924 INTRA-LIGAND FREE ENERGY PREDICTED BY IDOCK:   -0.56 KCAL/MOL
REMARK 927      BINDING AFFINITY PREDICTED BY RF-SCORE:    0.00 PKD
ROOT
HETATM    1  C   UNL     1     -12.817  10.959  71.522  1.00  0.00    -0.560 C  
HETATM    2  C   UNL     1     -12.014  10.650  70.293  1.00  0.00    -0.425 A  
HETATM    3  C   UNL     1     -10.975   9.709  70.330  1.00  0.00    -0.337 A  
HETATM    4  C   UNL     1     -10.196   9.447  69.196  1.00  0.00    -0.202 A  
HETATM    5  C   UNL     1     -12.266  11.338  69.104  1.00  0.00    -0.251 A  
HETATM    6  C   UNL     1     -10.429  10.169  68.014  1.00  0.00    -0.249 A  
HETATM    7  C   UNL     1     -11.479  11.101  67.977  1.00  0.00    -0.366 A  
HETATM    8  C   UNL     1      -9.594   9.992  66.776  1.00  0.00    -0.228 C  
ENDROOT
BRANCH   4   9
HETATM    9  O   UNL     1      -9.140   8.575  69.192  1.00  0.00    -0.145 OA 
BRANCH   9  10
HETATM   10  C   UNL     1      -9.424   7.180  69.063  1.00  0.00    -0.143 C  
BRANCH  10  11
HETATM   11  C   UNL     1      -8.575   6.541  67.962  1.00  0.00    -0.118 C  
BRANCH  11  12
HETATM   12  C   UNL     1      -9.436   6.026  66.796  1.00  0.00    -0.158 C  
BRANCH  12  13
HETATM   13  C   UNL     1      -9.099   4.595  66.303  1.00  0.00    -0.122 C  
HETATM   14  C   UNL     1      -9.481   3.523  67.336  1.00  0.00    -0.234 C  
HETATM   15  C   UNL     1      -7.591   4.468  66.006  1.00  0.00    -0.086 C  
HETATM   16  C   UNL     1      -9.863   4.325  64.996  1.00  0.00    -0.190 C  
HETATM   17  O   UNL     1      -9.333   4.103  63.916  1.00  0.00    -0.147 OA 
HETATM   18  O   UNL     1     -11.211   4.351  65.116  1.00  0.00    -0.192 OA 
ENDBRANCH  12  13
ENDBRANCH  11  12
ENDBRANCH  10  11
ENDBRANCH   9  10
ENDBRANCH   4   9
TORSDOF 5
ENDMDL
MODEL      212
REMARK 921   NORMALIZED FREE ENERGY PREDICTED BY IDOCK:   -3.24 KCAL/MOL
REMARK 922        TOTAL FREE ENERGY PREDICTED BY IDOCK:   -4.67 KCAL/MOL
REMARK 923 INTER-LIGAND FREE ENERGY PREDICTED BY IDOCK:   -4.08 KCAL/MOL
REMARK 924 INTRA-LIGAND FREE ENERGY PREDICTED BY IDOCK:   -0.59 KCAL/MOL
REMARK 927      BINDING AFFINITY PREDICTED BY RF-SCORE:    0.00 PKD
ROOT
HETATM    1  C   UNL     1      -8.830   9.052  65.083  1.00  0.00    -0.224 C  
HETATM    2  C   UNL     1      -9.622  10.321  64.964  1.00  0.00    -0.346 A  
HETATM    3  C   UNL     1      -9.980  11.054  66.106  1.00  0.00    -0.277 A  
HETATM    4  C   UNL     1     -10.755  12.216  66.005  1.00  0.00    -0.273 A  
HETATM    5  C   UNL     1     -10.054  10.761  63.711  1.00  0.00    -0.391 A  
HETATM    6  C   UNL     1     -11.217  12.633  64.746  1.00  0.00    -0.337 A  
HETATM    7  C   UNL     1     -10.846  11.904  63.604  1.00  0.00    -0.510 A  
HETATM    8  C   UNL     1     -12.106  13.831  64.563  1.00  0.00    -0.463 C  
ENDROOT
BRANCH   4   9
HETATM    9  O   UNL     1     -11.172  12.940  67.089  1.00  0.00    -0.265 OA 
BRANCH   9  10
HETATM   10  C   UNL     1     -10.193  13.319  68.060  1.00  0.00    -0.240 C  
BRANCH  10  11
HETATM   11  C   UNL     1      -9.208  14.340  67.485  1.00  0.00    -0.197 C  
BRANCH  11  12
HETATM   12  C   UNL     1      -8.452  15.096  68.590  1.00  0.00    -0.170 C  
BRANCH  12  13
HETATM   13  C   UNL     1      -6.951  14.735  68.734  1.00  0.00    -0.103 C  
HETATM   14  C   UNL     1      -6.307  14.392  67.382  1.00  0.00     0.136 C  
HETATM   15  C   UNL     1      -6.774  13.527  69.677  1.00  0.00     0.039 C  
HETATM   16  C   UNL     1      -6.207  15.931  69.353  1.00  0.00    -0.153 C  
HETATM   17  O   UNL     1      -5.631  15.906  70.432  1.00  0.00    -0.160 OA 
HETATM   18  O   UNL     1      -6.231  17.058  68.605  1.00  0.00    -0.145 OA 
ENDBRANCH  12  13
ENDBRANCH  11  12
ENDBRANCH  10  11
ENDBRANCH   9  10
ENDBRANCH   4   9
TORSDOF 5
ENDMDL
MODEL      213
REMARK 921   NORMALIZED FREE ENERGY PREDICTED BY IDOCK:   -3.22 KCAL/MOL
REMARK 922        TOTAL FREE ENERGY PREDICTED BY IDOCK:   -4.65 KCAL/MOL
REMARK 923 INTER-LIGAND FREE ENERGY PREDICTED BY IDOCK:   -4.19 KCAL/MOL
REMARK 924 INTRA-LIGAND FREE ENERGY PREDICTED BY IDOCK:   -0.45 KCAL/MOL
REMARK 927      BINDING AFFINITY PREDICTED BY RF-SCORE:    0.00 PKD
ROOT
HETATM    1  C   UNL     1     -12.136  11.891  69.835  1.00  0.00    -0.344 C  
HETATM    2  C   UNL     1     -11.460  10.645  69.344  1.00  0.00    -0.356 A  
HETATM    3  C   UNL     1     -11.181   9.585  70.221  1.00  0.00    -0.307 A  
HETATM    4  C   UNL     1     -10.514   8.437  69.777  1.00  0.00    -0.220 A  
HETATM    5  C   UNL     1     -11.056  10.548  68.011  1.00  0.00    -0.361 A  
HETATM    6  C   UNL     1     -10.077   8.361  68.444  1.00  0.00    -0.224 A  
HETATM    7  C   UNL     1     -10.369   9.418  67.567  1.00  0.00    -0.314 A  
HETATM    8  C   UNL     1      -9.298   7.192  67.910  1.00  0.00    -0.128 C  
ENDROOT
BRANCH   4   9
HETATM    9  O   UNL     1     -10.175   7.397  70.600  1.00  0.00    -0.198 OA 
BRANCH   9  10
HETATM   10  C   UNL     1     -10.892   7.254  71.829  1.00  0.00    -0.224 C  
BRANCH  10  11
HETATM   11  C   UNL     1     -10.116   6.391  72.827  1.00  0.00    -0.195 C  
BRANCH  11  12
HETATM   12  C   UNL     1     -10.897   5.127  73.225  1.00  0.00    -0.352 C  
BRANCH  12  13
HETATM   13  C   UNL     1     -10.054   3.829  73.324  1.00  0.00    -0.207 C  
HETATM   14  C   UNL     1     -10.935   2.578  73.472  1.00  0.00    -0.303 C  
HETATM   15  C   UNL     1      -9.099   3.897  74.532  1.00  0.00    -0.108 C  
HETATM   16  C   UNL     1      -9.201   3.690  72.052  1.00  0.00    -0.114 C  
HETATM   17  O   UNL     1      -7.978   3.690  72.035  1.00  0.00    -0.065 OA 
HETATM   18  O   UNL     1      -9.911   3.566  70.907  1.00  0.00    -0.171 OA 
ENDBRANCH  12  13
ENDBRANCH  11  12
ENDBRANCH  10  11
ENDBRANCH   9  10
ENDBRANCH   4   9
TORSDOF 5
ENDMDL
MODEL      214
REMARK 921   NORMALIZED FREE ENERGY PREDICTED BY IDOCK:   -3.14 KCAL/MOL
REMARK 922        TOTAL FREE ENERGY PREDICTED BY IDOCK:   -4.54 KCAL/MOL
REMARK 923 INTER-LIGAND FREE ENERGY PREDICTED BY IDOCK:   -4.23 KCAL/MOL
REMARK 924 INTRA-LIGAND FREE ENERGY PREDICTED BY IDOCK:   -0.31 KCAL/MOL
REMARK 927      BINDING AFFINITY PREDICTED BY RF-SCORE:    0.00 PKD
ROOT
HETATM    1  C   UNL     1     -10.285   8.779  66.336  1.00  0.00    -0.256 C  
HETATM    2  C   UNL     1      -9.141   9.154  67.233  1.00  0.00    -0.143 A  
HETATM    3  C   UNL     1      -8.995  10.469  67.700  1.00  0.00    -0.138 A  
HETATM    4  C   UNL     1      -7.908  10.834  68.503  1.00  0.00    -0.122 A  
HETATM    5  C   UNL     1      -8.180   8.201  67.574  1.00  0.00    -0.123 A  
HETATM    6  C   UNL     1      -6.924   9.880  68.812  1.00  0.00    -0.062 A  
HETATM    7  C   UNL     1      -7.081   8.562  68.354  1.00  0.00    -0.084 A  
HETATM    8  C   UNL     1      -5.696  10.210  69.613  1.00  0.00    -0.038 C  
ENDROOT
BRANCH   4   9
HETATM    9  O   UNL     1      -7.692  12.112  68.944  1.00  0.00    -0.075 OA 
BRANCH   9  10
HETATM   10  C   UNL     1      -7.875  13.182  68.013  1.00  0.00    -0.147 C  
BRANCH  10  11
HETATM   11  C   UNL     1      -9.312  13.706  68.046  1.00  0.00    -0.208 C  
BRANCH  11  12
HETATM   12  C   UNL     1      -9.869  13.952  66.633  1.00  0.00    -0.288 C  
BRANCH  12  13
HETATM   13  C   UNL     1     -10.916  15.089  66.520  1.00  0.00    -0.327 C  
HETATM   14  C   UNL     1     -11.108  15.832  67.852  1.00  0.00    -0.326 C  
HETATM   15  C   UNL     1     -12.281  14.524  66.078  1.00  0.00    -0.266 C  
HETATM   16  C   UNL     1     -10.450  16.092  65.451  1.00  0.00    -0.392 C  
HETATM   17  O   UNL     1     -11.057  16.334  64.417  1.00  0.00    -0.735 OA 
HETATM   18  O   UNL     1      -9.281  16.712  65.732  1.00  0.00    -0.502 OA 
ENDBRANCH  12  13
ENDBRANCH  11  12
ENDBRANCH  10  11
ENDBRANCH   9  10
ENDBRANCH   4   9
TORSDOF 5
ENDMDL
MODEL      215
REMARK 921   NORMALIZED FREE ENERGY PREDICTED BY IDOCK:   -3.14 KCAL/MOL
REMARK 922        TOTAL FREE ENERGY PREDICTED BY IDOCK:   -4.54 KCAL/MOL
REMARK 923 INTER-LIGAND FREE ENERGY PREDICTED BY IDOCK:   -3.90 KCAL/MOL
REMARK 924 INTRA-LIGAND FREE ENERGY PREDICTED BY IDOCK:   -0.64 KCAL/MOL
REMARK 927      BINDING AFFINITY PREDICTED BY RF-SCORE:    0.00 PKD
ROOT
HETATM    1  C   UNL     1     -10.405   8.318  66.874  1.00  0.00    -0.391 C  
HETATM    2  C   UNL     1      -9.442   8.841  67.899  1.00  0.00    -0.160 A  
HETATM    3  C   UNL     1      -8.875  10.117  67.767  1.00  0.00    -0.125 A  
HETATM    4  C   UNL     1      -7.945  10.594  68.698  1.00  0.00    -0.128 A  
HETATM    5  C   UNL     1      -9.064   8.037  68.976  1.00  0.00    -0.144 A  
HETATM    6  C   UNL     1      -7.539   9.767  69.758  1.00  0.00    -0.137 A  
HETATM    7  C   UNL     1      -8.119   8.495  69.895  1.00  0.00    -0.118 A  
HETATM    8  C   UNL     1      -6.498  10.181  70.760  1.00  0.00    -0.029 C  
ENDROOT
BRANCH   4   9
HETATM    9  O   UNL     1      -7.326  11.810  68.590  1.00  0.00    -0.103 OA 
BRANCH   9  10
HETATM   10  C   UNL     1      -7.331  12.454  67.313  1.00  0.00    -0.127 C  
BRANCH  10  11
HETATM   11  C   UNL     1      -8.083  13.785  67.366  1.00  0.00    -0.188 C  
BRANCH  11  12
HETATM   12  C   UNL     1      -9.560  13.599  67.752  1.00  0.00    -0.224 C  
BRANCH  12  13
HETATM   13  C   UNL     1     -10.588  14.089  66.700  1.00  0.00    -0.274 C  
HETATM   14  C   UNL     1      -9.918  14.864  65.555  1.00  0.00    -0.392 C  
HETATM   15  C   UNL     1     -11.639  15.006  67.358  1.00  0.00    -0.304 C  
HETATM   16  C   UNL     1     -11.323  12.870  66.115  1.00  0.00    -0.317 C  
HETATM   17  O   UNL     1     -12.525  12.670  66.219  1.00  0.00    -0.483 OA 
HETATM   18  O   UNL     1     -10.528  11.996  65.455  1.00  0.00    -0.255 OA 
ENDBRANCH  12  13
ENDBRANCH  11  12
ENDBRANCH  10  11
ENDBRANCH   9  10
ENDBRANCH   4   9
TORSDOF 5
ENDMDL
MODEL      216
REMARK 921   NORMALIZED FREE ENERGY PREDICTED BY IDOCK:   -3.14 KCAL/MOL
REMARK 922        TOTAL FREE ENERGY PREDICTED BY IDOCK:   -4.54 KCAL/MOL
REMARK 923 INTER-LIGAND FREE ENERGY PREDICTED BY IDOCK:   -3.70 KCAL/MOL
REMARK 924 INTRA-LIGAND FREE ENERGY PREDICTED BY IDOCK:   -0.84 KCAL/MOL
REMARK 927      BINDING AFFINITY PREDICTED BY RF-SCORE:    0.00 PKD
ROOT
HETATM    1  C   UNL     1     -12.025  11.636  69.685  1.00  0.00    -0.390 C  
HETATM    2  C   UNL     1     -11.510  12.890  69.041  1.00  0.00    -0.358 A  
HETATM    3  C   UNL     1     -10.364  12.865  68.233  1.00  0.00    -0.248 A  
HETATM    4  C   UNL     1      -9.856  14.038  67.663  1.00  0.00    -0.233 A  
HETATM    5  C   UNL     1     -12.146  14.110  69.281  1.00  0.00    -0.364 A  
HETATM    6  C   UNL     1     -10.477  15.267  67.938  1.00  0.00    -0.253 A  
HETATM    7  C   UNL     1     -11.633  15.287  68.737  1.00  0.00    -0.379 A  
HETATM    8  C   UNL     1      -9.954  16.577  67.417  1.00  0.00    -0.267 C  
ENDROOT
BRANCH   4   9
HETATM    9  O   UNL     1      -8.715  14.076  66.907  1.00  0.00    -0.220 OA 
BRANCH   9  10
HETATM   10  C   UNL     1      -7.465  13.871  67.571  1.00  0.00    -0.169 C  
BRANCH  10  11
HETATM   11  C   UNL     1      -6.820  12.552  67.142  1.00  0.00    -0.058 C  
BRANCH  11  12
HETATM   12  C   UNL     1      -7.080  11.426  68.158  1.00  0.00    -0.075 C  
BRANCH  12  13
HETATM   13  C   UNL     1      -7.581  10.089  67.554  1.00  0.00    -0.091 C  
HETATM   14  C   UNL     1      -6.475   9.023  67.516  1.00  0.00    -0.064 C  
HETATM   15  C   UNL     1      -8.097  10.306  66.118  1.00  0.00    -0.133 C  
HETATM   16  C   UNL     1      -8.751   9.565  68.404  1.00  0.00    -0.124 C  
HETATM   17  O   UNL     1      -9.891   9.410  67.992  1.00  0.00    -0.154 OA 
HETATM   18  O   UNL     1      -8.431   9.278  69.687  1.00  0.00    -0.120 OA 
ENDBRANCH  12  13
ENDBRANCH  11  12
ENDBRANCH  10  11
ENDBRANCH   9  10
ENDBRANCH   4   9
TORSDOF 5
ENDMDL
MODEL      217
REMARK 921   NORMALIZED FREE ENERGY PREDICTED BY IDOCK:   -3.12 KCAL/MOL
REMARK 922        TOTAL FREE ENERGY PREDICTED BY IDOCK:   -4.51 KCAL/MOL
REMARK 923 INTER-LIGAND FREE ENERGY PREDICTED BY IDOCK:   -4.25 KCAL/MOL
REMARK 924 INTRA-LIGAND FREE ENERGY PREDICTED BY IDOCK:   -0.27 KCAL/MOL
REMARK 927      BINDING AFFINITY PREDICTED BY RF-SCORE:    0.00 PKD
ROOT
HETATM    1  C   UNL     1      -8.085   7.647  66.036  1.00  0.00    -0.118 C  
HETATM    2  C   UNL     1      -8.942   8.812  66.435  1.00  0.00    -0.194 A  
HETATM    3  C   UNL     1      -9.207   9.081  67.786  1.00  0.00    -0.152 A  
HETATM    4  C   UNL     1     -10.039  10.142  68.162  1.00  0.00    -0.152 A  
HETATM    5  C   UNL     1      -9.526   9.617  65.455  1.00  0.00    -0.343 A  
HETATM    6  C   UNL     1     -10.654  10.925  67.171  1.00  0.00    -0.302 A  
HETATM    7  C   UNL     1     -10.376  10.661  65.820  1.00  0.00    -0.287 A  
HETATM    8  C   UNL     1     -11.611  12.039  67.493  1.00  0.00    -0.401 C  
ENDROOT
BRANCH   4   9
HETATM    9  O   UNL     1     -10.369  10.417  69.462  1.00  0.00    -0.222 OA 
BRANCH   9  10
HETATM   10  C   UNL     1     -11.406   9.643  70.069  1.00  0.00    -0.195 C  
BRANCH  10  11
HETATM   11  C   UNL     1     -10.942   8.211  70.342  1.00  0.00    -0.248 C  
BRANCH  11  12
HETATM   12  C   UNL     1     -11.176   7.798  71.805  1.00  0.00    -0.298 C  
BRANCH  12  13
HETATM   13  C   UNL     1      -9.953   7.169  72.522  1.00  0.00    -0.196 C  
HETATM   14  C   UNL     1     -10.299   6.691  73.941  1.00  0.00    -0.385 C  
HETATM   15  C   UNL     1      -8.801   8.190  72.620  1.00  0.00    -0.285 C  
HETATM   16  C   UNL     1      -9.454   5.970  71.698  1.00  0.00    -0.148 C  
HETATM   17  O   UNL     1      -8.348   5.897  71.182  1.00  0.00    -0.120 OA 
HETATM   18  O   UNL     1     -10.348   4.962  71.571  1.00  0.00    -0.200 OA 
ENDBRANCH  12  13
ENDBRANCH  11  12
ENDBRANCH  10  11
ENDBRANCH   9  10
ENDBRANCH   4   9
TORSDOF 5
ENDMDL
MODEL      218
REMARK 921   NORMALIZED FREE ENERGY PREDICTED BY IDOCK:   -3.11 KCAL/MOL
REMARK 922        TOTAL FREE ENERGY PREDICTED BY IDOCK:   -4.50 KCAL/MOL
REMARK 923 INTER-LIGAND FREE ENERGY PREDICTED BY IDOCK:   -4.13 KCAL/MOL
REMARK 924 INTRA-LIGAND FREE ENERGY PREDICTED BY IDOCK:   -0.37 KCAL/MOL
REMARK 927      BINDING AFFINITY PREDICTED BY RF-SCORE:    0.00 PKD
ROOT
HETATM    1  C   UNL     1     -12.838   7.146  71.112  1.00  0.00    -0.340 C  
HETATM    2  C   UNL     1     -11.462   7.510  71.588  1.00  0.00    -0.292 A  
HETATM    3  C   UNL     1     -10.482   7.948  70.685  1.00  0.00    -0.216 A  
HETATM    4  C   UNL     1      -9.185   8.249  71.116  1.00  0.00    -0.162 A  
HETATM    5  C   UNL     1     -11.129   7.369  72.936  1.00  0.00    -0.397 A  
HETATM    6  C   UNL     1      -8.845   8.070  72.467  1.00  0.00    -0.237 A  
HETATM    7  C   UNL     1      -9.832   7.644  73.371  1.00  0.00    -0.362 A  
HETATM    8  C   UNL     1      -7.458   8.309  72.995  1.00  0.00    -0.158 C  
ENDROOT
BRANCH   4   9
HETATM    9  O   UNL     1      -8.179   8.633  70.270  1.00  0.00    -0.105 OA 
BRANCH   9  10
HETATM   10  C   UNL     1      -8.112  10.009  69.890  1.00  0.00    -0.166 C  
BRANCH  10  11
HETATM   11  C   UNL     1      -8.235  10.172  68.373  1.00  0.00    -0.112 C  
BRANCH  11  12
HETATM   12  C   UNL     1      -8.642   8.859  67.683  1.00  0.00    -0.124 C  
BRANCH  12  13
HETATM   13  C   UNL     1      -9.817   8.973  66.678  1.00  0.00    -0.316 C  
HETATM   14  C   UNL     1     -10.750   7.754  66.740  1.00  0.00    -0.115 C  
HETATM   15  C   UNL     1      -9.283   9.103  65.237  1.00  0.00    -0.243 C  
HETATM   16  C   UNL     1     -10.627  10.240  66.999  1.00  0.00    -0.239 C  
HETATM   17  O   UNL     1     -10.759  11.189  66.238  1.00  0.00    -0.266 OA 
HETATM   18  O   UNL     1     -11.205  10.245  68.222  1.00  0.00    -0.276 OA 
ENDBRANCH  12  13
ENDBRANCH  11  12
ENDBRANCH  10  11
ENDBRANCH   9  10
ENDBRANCH   4   9
TORSDOF 5
ENDMDL
MODEL      219
REMARK 921   NORMALIZED FREE ENERGY PREDICTED BY IDOCK:   -3.10 KCAL/MOL
REMARK 922        TOTAL FREE ENERGY PREDICTED BY IDOCK:   -4.49 KCAL/MOL
REMARK 923 INTER-LIGAND FREE ENERGY PREDICTED BY IDOCK:   -3.59 KCAL/MOL
REMARK 924 INTRA-LIGAND FREE ENERGY PREDICTED BY IDOCK:   -0.91 KCAL/MOL
REMARK 927      BINDING AFFINITY PREDICTED BY RF-SCORE:    0.00 PKD
ROOT
HETATM    1  C   UNL     1      -5.829   6.458  73.248  1.00  0.00    -0.053 C  
HETATM    2  C   UNL     1      -7.070   5.615  73.273  1.00  0.00    -0.086 A  
HETATM    3  C   UNL     1      -8.130   5.871  72.390  1.00  0.00    -0.110 A  
HETATM    4  C   UNL     1      -9.307   5.114  72.436  1.00  0.00    -0.137 A  
HETATM    5  C   UNL     1      -7.201   4.592  74.213  1.00  0.00    -0.073 A  
HETATM    6  C   UNL     1      -9.448   4.111  73.408  1.00  0.00    -0.127 A  
HETATM    7  C   UNL     1      -8.379   3.849  74.281  1.00  0.00    -0.090 A  
HETATM    8  C   UNL     1     -10.704   3.300  73.563  1.00  0.00    -0.306 C  
ENDROOT
BRANCH   4   9
HETATM    9  O   UNL     1     -10.389   5.354  71.631  1.00  0.00    -0.205 OA 
BRANCH   9  10
HETATM   10  C   UNL     1     -10.276   5.031  70.243  1.00  0.00    -0.258 C  
BRANCH  10  11
HETATM   11  C   UNL     1     -10.679   6.216  69.363  1.00  0.00    -0.385 C  
BRANCH  11  12
HETATM   12  C   UNL     1     -11.275   7.370  70.188  1.00  0.00    -0.239 C  
BRANCH  12  13
HETATM   13  C   UNL     1     -10.332   8.580  70.417  1.00  0.00    -0.222 C  
HETATM   14  C   UNL     1      -8.949   8.361  69.784  1.00  0.00    -0.146 C  
HETATM   15  C   UNL     1     -10.142   8.838  71.925  1.00  0.00    -0.409 C  
HETATM   16  C   UNL     1     -10.972   9.834  69.799  1.00  0.00    -0.256 C  
HETATM   17  O   UNL     1     -11.306  10.826  70.433  1.00  0.00    -0.301 OA 
HETATM   18  O   UNL     1     -11.152   9.773  68.459  1.00  0.00    -0.184 OA 
ENDBRANCH  12  13
ENDBRANCH  11  12
ENDBRANCH  10  11
ENDBRANCH   9  10
ENDBRANCH   4   9
TORSDOF 5
ENDMDL
MODEL      220
REMARK 921   NORMALIZED FREE ENERGY PREDICTED BY IDOCK:   -3.10 KCAL/MOL
REMARK 922        TOTAL FREE ENERGY PREDICTED BY IDOCK:   -4.49 KCAL/MOL
REMARK 923 INTER-LIGAND FREE ENERGY PREDICTED BY IDOCK:   -4.01 KCAL/MOL
REMARK 924 INTRA-LIGAND FREE ENERGY PREDICTED BY IDOCK:   -0.48 KCAL/MOL
REMARK 927      BINDING AFFINITY PREDICTED BY RF-SCORE:    0.00 PKD
ROOT
HETATM    1  C   UNL     1      -6.070   9.700  68.671  1.00  0.00    -0.043 C  
HETATM    2  C   UNL     1      -6.829  10.945  68.318  1.00  0.00    -0.067 A  
HETATM    3  C   UNL     1      -8.213  11.027  68.527  1.00  0.00    -0.146 A  
HETATM    4  C   UNL     1      -8.933  12.171  68.162  1.00  0.00    -0.195 A  
HETATM    5  C   UNL     1      -6.165  12.024  67.730  1.00  0.00    -0.081 A  
HETATM    6  C   UNL     1      -8.267  13.238  67.536  1.00  0.00    -0.184 A  
HETATM    7  C   UNL     1      -6.879  13.157  67.340  1.00  0.00    -0.113 A  
HETATM    8  C   UNL     1      -8.980  14.471  67.056  1.00  0.00    -0.258 C  
ENDROOT
BRANCH   4   9
HETATM    9  O   UNL     1     -10.291  12.283  68.299  1.00  0.00    -0.209 OA 
BRANCH   9  10
HETATM   10  C   UNL     1     -11.083  11.110  68.101  1.00  0.00    -0.264 C  
BRANCH  10  11
HETATM   11  C   UNL     1     -11.484  10.479  69.436  1.00  0.00    -0.329 C  
BRANCH  11  12
HETATM   12  C   UNL     1     -10.867   9.082  69.622  1.00  0.00    -0.196 C  
BRANCH  12  13
HETATM   13  C   UNL     1     -10.843   8.556  71.080  1.00  0.00    -0.298 C  
HETATM   14  C   UNL     1     -11.935   9.204  71.947  1.00  0.00    -0.443 C  
HETATM   15  C   UNL     1      -9.474   8.836  71.733  1.00  0.00    -0.363 C  
HETATM   16  C   UNL     1     -11.057   7.033  71.064  1.00  0.00    -0.264 C  
HETATM   17  O   UNL     1     -10.240   6.214  71.461  1.00  0.00    -0.196 OA 
HETATM   18  O   UNL     1     -12.250   6.636  70.563  1.00  0.00    -0.364 OA 
ENDBRANCH  12  13
ENDBRANCH  11  12
ENDBRANCH  10  11
ENDBRANCH   9  10
ENDBRANCH   4   9
TORSDOF 5
ENDMDL
MODEL      221
REMARK 921   NORMALIZED FREE ENERGY PREDICTED BY IDOCK:   -3.10 KCAL/MOL
REMARK 922        TOTAL FREE ENERGY PREDICTED BY IDOCK:   -4.48 KCAL/MOL
REMARK 923 INTER-LIGAND FREE ENERGY PREDICTED BY IDOCK:   -3.80 KCAL/MOL
REMARK 924 INTRA-LIGAND FREE ENERGY PREDICTED BY IDOCK:   -0.69 KCAL/MOL
REMARK 927      BINDING AFFINITY PREDICTED BY RF-SCORE:    0.00 PKD
ROOT
HETATM    1  C   UNL     1     -12.966   7.524  71.457  1.00  0.00    -0.400 C  
HETATM    2  C   UNL     1     -11.589   7.773  71.998  1.00  0.00    -0.347 A  
HETATM    3  C   UNL     1     -10.665   8.551  71.284  1.00  0.00    -0.302 A  
HETATM    4  C   UNL     1      -9.366   8.753  71.765  1.00  0.00    -0.280 A  
HETATM    5  C   UNL     1     -11.196   7.188  73.204  1.00  0.00    -0.228 A  
HETATM    6  C   UNL     1      -8.965   8.131  72.959  1.00  0.00    -0.335 A  
HETATM    7  C   UNL     1      -9.896   7.364  73.677  1.00  0.00    -0.365 A  
HETATM    8  C   UNL     1      -7.569   8.246  73.505  1.00  0.00    -0.181 C  
ENDROOT
BRANCH   4   9
HETATM    9  O   UNL     1      -8.412   9.462  71.085  1.00  0.00    -0.303 OA 
BRANCH   9  10
HETATM   10  C   UNL     1      -8.732   9.925  69.770  1.00  0.00    -0.212 C  
BRANCH  10  11
HETATM   11  C   UNL     1      -7.575   9.683  68.800  1.00  0.00    -0.076 C  
BRANCH  11  12
HETATM   12  C   UNL     1      -7.177   8.198  68.737  1.00  0.00    -0.083 C  
BRANCH  12  13
HETATM   13  C   UNL     1      -7.494   7.482  67.399  1.00  0.00    -0.104 C  
HETATM   14  C   UNL     1      -7.062   6.007  67.417  1.00  0.00    -0.074 C  
HETATM   15  C   UNL     1      -6.778   8.183  66.227  1.00  0.00    -0.054 C  
HETATM   16  C   UNL     1      -9.009   7.556  67.141  1.00  0.00    -0.126 C  
HETATM   17  O   UNL     1      -9.522   8.125  66.188  1.00  0.00    -0.201 OA 
HETATM   18  O   UNL     1      -9.770   6.930  68.068  1.00  0.00    -0.129 OA 
ENDBRANCH  12  13
ENDBRANCH  11  12
ENDBRANCH  10  11
ENDBRANCH   9  10
ENDBRANCH   4   9
TORSDOF 5
ENDMDL
MODEL      222
REMARK 921   NORMALIZED FREE ENERGY PREDICTED BY IDOCK:   -3.05 KCAL/MOL
REMARK 922        TOTAL FREE ENERGY PREDICTED BY IDOCK:   -4.42 KCAL/MOL
REMARK 923 INTER-LIGAND FREE ENERGY PREDICTED BY IDOCK:   -3.95 KCAL/MOL
REMARK 924 INTRA-LIGAND FREE ENERGY PREDICTED BY IDOCK:   -0.47 KCAL/MOL
REMARK 927      BINDING AFFINITY PREDICTED BY RF-SCORE:    0.00 PKD
ROOT
HETATM    1  C   UNL     1      -8.600   9.165  62.898  1.00  0.00    -0.203 C  
HETATM    2  C   UNL     1      -8.383   8.801  64.338  1.00  0.00    -0.165 A  
HETATM    3  C   UNL     1      -8.497   9.767  65.349  1.00  0.00    -0.154 A  
HETATM    4  C   UNL     1      -8.255   9.442  66.689  1.00  0.00    -0.112 A  
HETATM    5  C   UNL     1      -8.017   7.498  64.681  1.00  0.00    -0.133 A  
HETATM    6  C   UNL     1      -7.851   8.140  67.024  1.00  0.00    -0.104 A  
HETATM    7  C   UNL     1      -7.751   7.172  66.011  1.00  0.00    -0.099 A  
HETATM    8  C   UNL     1      -7.510   7.731  68.430  1.00  0.00    -0.104 C  
ENDROOT
BRANCH   4   9
HETATM    9  O   UNL     1      -8.305  10.357  67.707  1.00  0.00    -0.113 OA 
BRANCH   9  10
HETATM   10  C   UNL     1      -9.564  10.580  68.347  1.00  0.00    -0.160 C  
BRANCH  10  11
HETATM   11  C   UNL     1      -9.924  12.067  68.358  1.00  0.00    -0.209 C  
BRANCH  11  12
HETATM   12  C   UNL     1     -10.002  12.653  66.938  1.00  0.00    -0.232 C  
BRANCH  12  13
HETATM   13  C   UNL     1     -11.145  13.674  66.702  1.00  0.00    -0.312 C  
HETATM   14  C   UNL     1     -11.763  14.163  68.021  1.00  0.00    -0.394 C  
HETATM   15  C   UNL     1     -12.262  13.044  65.845  1.00  0.00    -0.493 C  
HETATM   16  C   UNL     1     -10.583  14.882  65.934  1.00  0.00    -0.325 C  
HETATM   17  O   UNL     1     -10.948  15.224  64.818  1.00  0.00    -0.410 OA 
HETATM   18  O   UNL     1      -9.622  15.571  66.592  1.00  0.00    -0.229 OA 
ENDBRANCH  12  13
ENDBRANCH  11  12
ENDBRANCH  10  11
ENDBRANCH   9  10
ENDBRANCH   4   9
TORSDOF 5
ENDMDL
MODEL      223
REMARK 921   NORMALIZED FREE ENERGY PREDICTED BY IDOCK:   -3.04 KCAL/MOL
REMARK 922        TOTAL FREE ENERGY PREDICTED BY IDOCK:   -4.40 KCAL/MOL
REMARK 923 INTER-LIGAND FREE ENERGY PREDICTED BY IDOCK:   -3.89 KCAL/MOL
REMARK 924 INTRA-LIGAND FREE ENERGY PREDICTED BY IDOCK:   -0.52 KCAL/MOL
REMARK 927      BINDING AFFINITY PREDICTED BY RF-SCORE:    0.00 PKD
ROOT
HETATM    1  C   UNL     1      -9.765   2.706  64.569  1.00  0.00    -0.082 C  
HETATM    2  C   UNL     1      -9.506   4.069  65.141  1.00  0.00    -0.172 A  
HETATM    3  C   UNL     1     -10.390   4.639  66.069  1.00  0.00    -0.318 A  
HETATM    4  C   UNL     1     -10.176   5.927  66.574  1.00  0.00    -0.162 A  
HETATM    5  C   UNL     1      -8.399   4.806  64.715  1.00  0.00    -0.132 A  
HETATM    6  C   UNL     1      -9.082   6.678  66.114  1.00  0.00    -0.143 A  
HETATM    7  C   UNL     1      -8.191   6.099  65.196  1.00  0.00    -0.141 A  
HETATM    8  C   UNL     1      -8.821   8.090  66.560  1.00  0.00    -0.175 C  
ENDROOT
BRANCH   4   9
HETATM    9  O   UNL     1     -11.033   6.548  67.443  1.00  0.00    -0.325 OA 
BRANCH   9  10
HETATM   10  C   UNL     1     -11.139   6.024  68.769  1.00  0.00    -0.254 C  
BRANCH  10  11
HETATM   11  C   UNL     1     -10.801   7.088  69.815  1.00  0.00    -0.276 C  
BRANCH  11  12
HETATM   12  C   UNL     1      -9.851   6.550  70.899  1.00  0.00    -0.201 C  
BRANCH  12  13
HETATM   13  C   UNL     1     -10.372   6.665  72.355  1.00  0.00    -0.217 C  
HETATM   14  C   UNL     1     -11.285   5.489  72.736  1.00  0.00    -0.358 C  
HETATM   15  C   UNL     1     -11.163   7.976  72.543  1.00  0.00    -0.452 C  
HETATM   16  C   UNL     1      -9.169   6.695  73.313  1.00  0.00    -0.129 C  
HETATM   17  O   UNL     1      -8.891   7.634  74.046  1.00  0.00    -0.231 OA 
HETATM   18  O   UNL     1      -8.407   5.578  73.296  1.00  0.00    -0.117 OA 
ENDBRANCH  12  13
ENDBRANCH  11  12
ENDBRANCH  10  11
ENDBRANCH   9  10
ENDBRANCH   4   9
TORSDOF 5
ENDMDL
MODEL      224
REMARK 921   NORMALIZED FREE ENERGY PREDICTED BY IDOCK:   -2.97 KCAL/MOL
REMARK 922        TOTAL FREE ENERGY PREDICTED BY IDOCK:   -4.33 KCAL/MOL
REMARK 923 INTER-LIGAND FREE ENERGY PREDICTED BY IDOCK:   -3.52 KCAL/MOL
REMARK 924 INTRA-LIGAND FREE ENERGY PREDICTED BY IDOCK:   -0.80 KCAL/MOL
REMARK 927      BINDING AFFINITY PREDICTED BY RF-SCORE:    0.00 PKD
ROOT
HETATM    1  C   UNL     1      -7.238   8.341  63.992  1.00  0.00    -0.090 C  
HETATM    2  C   UNL     1      -8.214   9.020  64.907  1.00  0.00    -0.154 A  
HETATM    3  C   UNL     1      -9.051   8.271  65.749  1.00  0.00    -0.169 A  
HETATM    4  C   UNL     1      -9.993   8.898  66.574  1.00  0.00    -0.288 A  
HETATM    5  C   UNL     1      -8.332  10.411  64.895  1.00  0.00    -0.165 A  
HETATM    6  C   UNL     1     -10.132  10.294  66.530  1.00  0.00    -0.290 A  
HETATM    7  C   UNL     1      -9.284  11.041  65.697  1.00  0.00    -0.231 A  
HETATM    8  C   UNL     1     -11.163  11.034  67.336  1.00  0.00    -0.355 C  
ENDROOT
BRANCH   4   9
HETATM    9  O   UNL     1     -10.865   8.213  67.377  1.00  0.00    -0.226 OA 
BRANCH   9  10
HETATM   10  C   UNL     1     -10.320   7.343  68.372  1.00  0.00    -0.194 C  
BRANCH  10  11
HETATM   11  C   UNL     1      -9.547   8.130  69.432  1.00  0.00    -0.167 C  
BRANCH  11  12
HETATM   12  C   UNL     1      -8.124   7.582  69.635  1.00  0.00    -0.127 C  
BRANCH  12  13
HETATM   13  C   UNL     1      -7.777   7.154  71.084  1.00  0.00    -0.090 C  
HETATM   14  C   UNL     1      -6.382   6.516  71.179  1.00  0.00    -0.048 C  
HETATM   15  C   UNL     1      -8.813   6.139  71.610  1.00  0.00    -0.138 C  
HETATM   16  C   UNL     1      -7.823   8.393  71.994  1.00  0.00    -0.127 C  
HETATM   17  O   UNL     1      -8.596   8.535  72.932  1.00  0.00    -0.345 OA 
HETATM   18  O   UNL     1      -6.924   9.355  71.684  1.00  0.00    -0.316 OA 
ENDBRANCH  12  13
ENDBRANCH  11  12
ENDBRANCH  10  11
ENDBRANCH   9  10
ENDBRANCH   4   9
TORSDOF 5
ENDMDL
MODEL      225
REMARK 921   NORMALIZED FREE ENERGY PREDICTED BY IDOCK:   -2.96 KCAL/MOL
REMARK 922        TOTAL FREE ENERGY PREDICTED BY IDOCK:   -4.31 KCAL/MOL
REMARK 923 INTER-LIGAND FREE ENERGY PREDICTED BY IDOCK:   -3.46 KCAL/MOL
REMARK 924 INTRA-LIGAND FREE ENERGY PREDICTED BY IDOCK:   -0.85 KCAL/MOL
REMARK 927      BINDING AFFINITY PREDICTED BY RF-SCORE:    0.00 PKD
ROOT
HETATM    1  C   UNL     1      -9.134   4.810  65.129  1.00  0.00    -0.155 C  
HETATM    2  C   UNL     1      -8.541   5.076  66.481  1.00  0.00    -0.110 A  
HETATM    3  C   UNL     1      -8.564   6.364  67.036  1.00  0.00    -0.112 A  
HETATM    4  C   UNL     1      -7.976   6.626  68.279  1.00  0.00    -0.111 A  
HETATM    5  C   UNL     1      -7.916   4.044  67.185  1.00  0.00    -0.095 A  
HETATM    6  C   UNL     1      -7.316   5.593  68.964  1.00  0.00    -0.082 A  
HETATM    7  C   UNL     1      -7.307   4.302  68.413  1.00  0.00    -0.060 A  
HETATM    8  C   UNL     1      -6.606   5.810  70.271  1.00  0.00    -0.047 C  
ENDROOT
BRANCH   4   9
HETATM    9  O   UNL     1      -7.927   7.873  68.842  1.00  0.00    -0.118 OA 
BRANCH   9  10
HETATM   10  C   UNL     1      -8.924   8.823  68.455  1.00  0.00    -0.138 C  
BRANCH  10  11
HETATM   11  C   UNL     1      -9.401   9.645  69.654  1.00  0.00    -0.226 C  
BRANCH  11  12
HETATM   12  C   UNL     1     -10.807   9.228  70.117  1.00  0.00    -0.275 C  
BRANCH  12  13
HETATM   13  C   UNL     1     -10.849   8.292  71.353  1.00  0.00    -0.293 C  
HETATM   14  C   UNL     1     -12.094   8.537  72.220  1.00  0.00    -0.455 C  
HETATM   15  C   UNL     1      -9.597   8.500  72.230  1.00  0.00    -0.377 C  
HETATM   16  C   UNL     1     -10.854   6.831  70.873  1.00  0.00    -0.249 C  
HETATM   17  O   UNL     1      -9.975   6.018  71.120  1.00  0.00    -0.179 OA 
HETATM   18  O   UNL     1     -11.931   6.486  70.130  1.00  0.00    -0.383 OA 
ENDBRANCH  12  13
ENDBRANCH  11  12
ENDBRANCH  10  11
ENDBRANCH   9  10
ENDBRANCH   4   9
TORSDOF 5
ENDMDL
MODEL      226
REMARK 921   NORMALIZED FREE ENERGY PREDICTED BY IDOCK:   -2.95 KCAL/MOL
REMARK 922        TOTAL FREE ENERGY PREDICTED BY IDOCK:   -4.29 KCAL/MOL
REMARK 923 INTER-LIGAND FREE ENERGY PREDICTED BY IDOCK:   -3.70 KCAL/MOL
REMARK 924 INTRA-LIGAND FREE ENERGY PREDICTED BY IDOCK:   -0.59 KCAL/MOL
REMARK 927      BINDING AFFINITY PREDICTED BY RF-SCORE:    0.00 PKD
ROOT
HETATM    1  C   UNL     1      -8.362   4.830  65.149  1.00  0.00    -0.129 C  
HETATM    2  C   UNL     1      -8.269   4.883  66.646  1.00  0.00    -0.107 A  
HETATM    3  C   UNL     1      -8.249   6.112  67.322  1.00  0.00    -0.106 A  
HETATM    4  C   UNL     1      -8.121   6.169  68.715  1.00  0.00    -0.105 A  
HETATM    5  C   UNL     1      -8.153   3.702  67.381  1.00  0.00    -0.090 A  
HETATM    6  C   UNL     1      -7.967   4.980  69.445  1.00  0.00    -0.075 A  
HETATM    7  C   UNL     1      -8.001   3.751  68.767  1.00  0.00    -0.065 A  
HETATM    8  C   UNL     1      -7.758   4.962  70.934  1.00  0.00    -0.078 C  
ENDROOT
BRANCH   4   9
HETATM    9  O   UNL     1      -8.047   7.342  69.417  1.00  0.00    -0.124 OA 
BRANCH   9  10
HETATM   10  C   UNL     1      -8.797   8.460  68.936  1.00  0.00    -0.143 C  
BRANCH  10  11
HETATM   11  C   UNL     1      -9.623   9.098  70.055  1.00  0.00    -0.218 C  
BRANCH  11  12
HETATM   12  C   UNL     1     -11.095   8.656  70.008  1.00  0.00    -0.161 C  
BRANCH  12  13
HETATM   13  C   UNL     1     -11.708   8.241  71.371  1.00  0.00    -0.327 C  
HETATM   14  C   UNL     1     -10.710   8.407  72.528  1.00  0.00    -0.372 C  
HETATM   15  C   UNL     1     -12.164   6.768  71.331  1.00  0.00    -0.413 C  
HETATM   16  C   UNL     1     -12.945   9.112  71.648  1.00  0.00    -0.365 C  
HETATM   17  O   UNL     1     -14.084   8.682  71.760  1.00  0.00    -0.407 OA 
HETATM   18  O   UNL     1     -12.687  10.435  71.763  1.00  0.00    -0.416 OA 
ENDBRANCH  12  13
ENDBRANCH  11  12
ENDBRANCH  10  11
ENDBRANCH   9  10
ENDBRANCH   4   9
TORSDOF 5
ENDMDL
MODEL      227
REMARK 921   NORMALIZED FREE ENERGY PREDICTED BY IDOCK:   -2.92 KCAL/MOL
REMARK 922        TOTAL FREE ENERGY PREDICTED BY IDOCK:   -4.25 KCAL/MOL
REMARK 923 INTER-LIGAND FREE ENERGY PREDICTED BY IDOCK:   -3.22 KCAL/MOL
REMARK 924 INTRA-LIGAND FREE ENERGY PREDICTED BY IDOCK:   -1.03 KCAL/MOL
REMARK 927      BINDING AFFINITY PREDICTED BY RF-SCORE:    0.00 PKD
ROOT
HETATM    1  C   UNL     1      -9.788   2.421  64.063  1.00  0.00    -0.129 C  
HETATM    2  C   UNL     1      -9.160   3.374  65.037  1.00  0.00    -0.142 A  
HETATM    3  C   UNL     1      -9.833   4.537  65.440  1.00  0.00    -0.204 A  
HETATM    4  C   UNL     1      -9.234   5.451  66.317  1.00  0.00    -0.152 A  
HETATM    5  C   UNL     1      -7.872   3.133  65.517  1.00  0.00    -0.085 A  
HETATM    6  C   UNL     1      -7.924   5.222  66.767  1.00  0.00    -0.104 A  
HETATM    7  C   UNL     1      -7.259   4.050  66.372  1.00  0.00    -0.068 A  
HETATM    8  C   UNL     1      -7.191   6.187  67.656  1.00  0.00    -0.079 C  
ENDROOT
BRANCH   4   9
HETATM    9  O   UNL     1      -9.827   6.623  66.702  1.00  0.00    -0.173 OA 
BRANCH   9  10
HETATM   10  C   UNL     1     -11.142   6.559  67.258  1.00  0.00    -0.350 C  
BRANCH  10  11
HETATM   11  C   UNL     1     -11.105   6.657  68.785  1.00  0.00    -0.297 C  
BRANCH  11  12
HETATM   12  C   UNL     1     -10.633   5.346  69.436  1.00  0.00    -0.295 C  
BRANCH  12  13
HETATM   13  C   UNL     1      -9.696   5.510  70.660  1.00  0.00    -0.233 C  
HETATM   14  C   UNL     1      -9.157   6.944  70.785  1.00  0.00    -0.154 C  
HETATM   15  C   UNL     1      -8.496   4.547  70.554  1.00  0.00    -0.099 C  
HETATM   16  C   UNL     1     -10.476   5.157  71.937  1.00  0.00    -0.207 C  
HETATM   17  O   UNL     1     -10.195   4.232  72.687  1.00  0.00    -0.161 OA 
HETATM   18  O   UNL     1     -11.536   5.959  72.191  1.00  0.00    -0.291 OA 
ENDBRANCH  12  13
ENDBRANCH  11  12
ENDBRANCH  10  11
ENDBRANCH   9  10
ENDBRANCH   4   9
TORSDOF 5
ENDMDL
MODEL      228
REMARK 921   NORMALIZED FREE ENERGY PREDICTED BY IDOCK:   -2.91 KCAL/MOL
REMARK 922        TOTAL FREE ENERGY PREDICTED BY IDOCK:   -4.24 KCAL/MOL
REMARK 923 INTER-LIGAND FREE ENERGY PREDICTED BY IDOCK:   -3.92 KCAL/MOL
REMARK 924 INTRA-LIGAND FREE ENERGY PREDICTED BY IDOCK:   -0.32 KCAL/MOL
REMARK 927      BINDING AFFINITY PREDICTED BY RF-SCORE:    0.00 PKD
ROOT
HETATM    1  C   UNL     1      -9.890   4.645  70.960  1.00  0.00    -0.268 C  
HETATM    2  C   UNL     1     -10.514   6.008  71.023  1.00  0.00    -0.285 A  
HETATM    3  C   UNL     1     -10.025   7.059  70.233  1.00  0.00    -0.186 A  
HETATM    4  C   UNL     1     -10.576   8.344  70.318  1.00  0.00    -0.227 A  
HETATM    5  C   UNL     1     -11.563   6.256  71.911  1.00  0.00    -0.369 A  
HETATM    6  C   UNL     1     -11.606   8.596  71.240  1.00  0.00    -0.340 A  
HETATM    7  C   UNL     1     -12.101   7.538  72.019  1.00  0.00    -0.326 A  
HETATM    8  C   UNL     1     -12.204   9.961  71.436  1.00  0.00    -0.499 C  
ENDROOT
BRANCH   4   9
HETATM    9  O   UNL     1     -10.105   9.414  69.606  1.00  0.00    -0.185 OA 
BRANCH   9  10
HETATM   10  C   UNL     1     -10.266   9.398  68.186  1.00  0.00    -0.200 C  
BRANCH  10  11
HETATM   11  C   UNL     1      -8.972   8.975  67.486  1.00  0.00    -0.131 C  
BRANCH  11  12
HETATM   12  C   UNL     1      -8.656   9.865  66.272  1.00  0.00    -0.137 C  
BRANCH  12  13
HETATM   13  C   UNL     1      -7.748   9.219  65.194  1.00  0.00    -0.108 C  
HETATM   14  C   UNL     1      -7.937   7.696  65.116  1.00  0.00    -0.130 C  
HETATM   15  C   UNL     1      -6.264   9.511  65.494  1.00  0.00    -0.066 C  
HETATM   16  C   UNL     1      -8.084   9.835  63.825  1.00  0.00    -0.149 C  
HETATM   17  O   UNL     1      -7.300  10.481  63.144  1.00  0.00    -0.106 OA 
HETATM   18  O   UNL     1      -9.350   9.612  63.402  1.00  0.00    -0.207 OA 
ENDBRANCH  12  13
ENDBRANCH  11  12
ENDBRANCH  10  11
ENDBRANCH   9  10
ENDBRANCH   4   9
TORSDOF 5
ENDMDL
MODEL      229
REMARK 921   NORMALIZED FREE ENERGY PREDICTED BY IDOCK:   -2.87 KCAL/MOL
REMARK 922        TOTAL FREE ENERGY PREDICTED BY IDOCK:   -4.19 KCAL/MOL
REMARK 923 INTER-LIGAND FREE ENERGY PREDICTED BY IDOCK:   -3.28 KCAL/MOL
REMARK 924 INTRA-LIGAND FREE ENERGY PREDICTED BY IDOCK:   -0.91 KCAL/MOL
REMARK 927      BINDING AFFINITY PREDICTED BY RF-SCORE:    0.00 PKD
ROOT
HETATM    1  C   UNL     1     -10.321  11.043  64.520  1.00  0.00    -0.420 C  
HETATM    2  C   UNL     1      -9.940  10.661  65.920  1.00  0.00    -0.312 A  
HETATM    3  C   UNL     1     -10.562   9.582  66.566  1.00  0.00    -0.133 A  
HETATM    4  C   UNL     1     -10.240   9.247  67.887  1.00  0.00    -0.214 A  
HETATM    5  C   UNL     1      -8.989  11.412  66.615  1.00  0.00    -0.183 A  
HETATM    6  C   UNL     1      -9.311  10.029  68.592  1.00  0.00    -0.156 A  
HETATM    7  C   UNL     1      -8.680  11.100  67.939  1.00  0.00    -0.136 A  
HETATM    8  C   UNL     1      -8.961   9.773  70.032  1.00  0.00    -0.255 C  
ENDROOT
BRANCH   4   9
HETATM    9  O   UNL     1     -10.852   8.236  68.578  1.00  0.00    -0.069 OA 
BRANCH   9  10
HETATM   10  C   UNL     1     -11.021   6.979  67.918  1.00  0.00    -0.130 C  
BRANCH  10  11
HETATM   11  C   UNL     1     -10.937   5.817  68.909  1.00  0.00    -0.250 C  
BRANCH  11  12
HETATM   12  C   UNL     1     -10.861   6.305  70.366  1.00  0.00    -0.360 C  
BRANCH  12  13
HETATM   13  C   UNL     1      -9.626   5.818  71.167  1.00  0.00    -0.201 C  
HETATM   14  C   UNL     1      -9.543   6.472  72.555  1.00  0.00    -0.156 C  
HETATM   15  C   UNL     1      -8.326   6.138  70.401  1.00  0.00    -0.125 C  
HETATM   16  C   UNL     1      -9.712   4.292  71.337  1.00  0.00    -0.181 C  
HETATM   17  O   UNL     1      -8.899   3.497  70.886  1.00  0.00    -0.075 OA 
HETATM   18  O   UNL     1     -10.784   3.864  72.043  1.00  0.00     0.071 OA 
ENDBRANCH  12  13
ENDBRANCH  11  12
ENDBRANCH  10  11
ENDBRANCH   9  10
ENDBRANCH   4   9
TORSDOF 5
ENDMDL
MODEL      230
REMARK 921   NORMALIZED FREE ENERGY PREDICTED BY IDOCK:   -2.85 KCAL/MOL
REMARK 922        TOTAL FREE ENERGY PREDICTED BY IDOCK:   -4.17 KCAL/MOL
REMARK 923 INTER-LIGAND FREE ENERGY PREDICTED BY IDOCK:   -3.56 KCAL/MOL
REMARK 924 INTRA-LIGAND FREE ENERGY PREDICTED BY IDOCK:   -0.61 KCAL/MOL
REMARK 927      BINDING AFFINITY PREDICTED BY RF-SCORE:    0.00 PKD
ROOT
HETATM    1  C   UNL     1      -5.445  11.022  67.679  1.00  0.00    -0.040 C  
HETATM    2  C   UNL     1      -6.591  11.983  67.800  1.00  0.00    -0.093 A  
HETATM    3  C   UNL     1      -7.888  11.525  68.078  1.00  0.00    -0.126 A  
HETATM    4  C   UNL     1      -8.968  12.413  68.151  1.00  0.00    -0.196 A  
HETATM    5  C   UNL     1      -6.383  13.347  67.589  1.00  0.00    -0.162 A  
HETATM    6  C   UNL     1      -8.759  13.779  67.901  1.00  0.00    -0.183 A  
HETATM    7  C   UNL     1      -7.458  14.236  67.637  1.00  0.00    -0.194 A  
HETATM    8  C   UNL     1      -9.877  14.784  67.896  1.00  0.00    -0.212 C  
ENDROOT
BRANCH   4   9
HETATM    9  O   UNL     1     -10.259  12.013  68.370  1.00  0.00    -0.201 OA 
BRANCH   9  10
HETATM   10  C   UNL     1     -10.920  11.285  67.332  1.00  0.00    -0.282 C  
BRANCH  10  11
HETATM   11  C   UNL     1     -10.875   9.778  67.596  1.00  0.00    -0.301 C  
BRANCH  11  12
HETATM   12  C   UNL     1      -9.988   9.041  66.577  1.00  0.00    -0.355 C  
BRANCH  12  13
HETATM   13  C   UNL     1      -9.683   7.559  66.913  1.00  0.00    -0.272 C  
HETATM   14  C   UNL     1      -8.816   6.890  65.834  1.00  0.00    -0.125 C  
HETATM   15  C   UNL     1     -10.992   6.756  67.052  1.00  0.00    -0.439 C  
HETATM   16  C   UNL     1      -8.943   7.495  68.259  1.00  0.00    -0.130 C  
HETATM   17  O   UNL     1      -9.372   6.938  69.260  1.00  0.00    -0.145 OA 
HETATM   18  O   UNL     1      -7.741   8.117  68.273  1.00  0.00    -0.109 OA 
ENDBRANCH  12  13
ENDBRANCH  11  12
ENDBRANCH  10  11
ENDBRANCH   9  10
ENDBRANCH   4   9
TORSDOF 5
ENDMDL
MODEL      231
REMARK 921   NORMALIZED FREE ENERGY PREDICTED BY IDOCK:   -2.82 KCAL/MOL
REMARK 922        TOTAL FREE ENERGY PREDICTED BY IDOCK:   -4.12 KCAL/MOL
REMARK 923 INTER-LIGAND FREE ENERGY PREDICTED BY IDOCK:   -3.29 KCAL/MOL
REMARK 924 INTRA-LIGAND FREE ENERGY PREDICTED BY IDOCK:   -0.83 KCAL/MOL
REMARK 927      BINDING AFFINITY PREDICTED BY RF-SCORE:    0.00 PKD
ROOT
HETATM    1  C   UNL     1      -6.728   8.330  64.184  1.00  0.00    -0.067 C  
HETATM    2  C   UNL     1      -7.845   7.798  65.033  1.00  0.00    -0.125 A  
HETATM    3  C   UNL     1      -8.789   8.664  65.604  1.00  0.00    -0.227 A  
HETATM    4  C   UNL     1      -9.809   8.178  66.431  1.00  0.00    -0.190 A  
HETATM    5  C   UNL     1      -7.927   6.430  65.302  1.00  0.00    -0.114 A  
HETATM    6  C   UNL     1      -9.864   6.807  66.729  1.00  0.00    -0.236 A  
HETATM    7  C   UNL     1      -8.926   5.941  66.144  1.00  0.00    -0.157 A  
HETATM    8  C   UNL     1     -10.888   6.218  67.659  1.00  0.00    -0.433 C  
ENDROOT
BRANCH   4   9
HETATM    9  O   UNL     1     -10.725   8.985  67.052  1.00  0.00    -0.242 OA 
BRANCH   9  10
HETATM   10  C   UNL     1     -10.267  10.229  67.587  1.00  0.00    -0.205 C  
BRANCH  10  11
HETATM   11  C   UNL     1      -9.057  10.028  68.502  1.00  0.00    -0.127 C  
BRANCH  11  12
HETATM   12  C   UNL     1      -9.474   9.732  69.952  1.00  0.00    -0.264 C  
BRANCH  12  13
HETATM   13  C   UNL     1      -8.671   8.608  70.658  1.00  0.00    -0.188 C  
HETATM   14  C   UNL     1      -7.547   9.170  71.542  1.00  0.00     0.054 C  
HETATM   15  C   UNL     1      -8.043   7.659  69.617  1.00  0.00    -0.126 C  
HETATM   16  C   UNL     1      -9.631   7.784  71.533  1.00  0.00    -0.155 C  
HETATM   17  O   UNL     1      -9.869   6.595  71.369  1.00  0.00    -0.179 OA 
HETATM   18  O   UNL     1     -10.221   8.479  72.532  1.00  0.00    -0.310 OA 
ENDBRANCH  12  13
ENDBRANCH  11  12
ENDBRANCH  10  11
ENDBRANCH   9  10
ENDBRANCH   4   9
TORSDOF 5
ENDMDL
MODEL      232
REMARK 921   NORMALIZED FREE ENERGY PREDICTED BY IDOCK:   -2.81 KCAL/MOL
REMARK 922        TOTAL FREE ENERGY PREDICTED BY IDOCK:   -4.12 KCAL/MOL
REMARK 923 INTER-LIGAND FREE ENERGY PREDICTED BY IDOCK:   -3.29 KCAL/MOL
REMARK 924 INTRA-LIGAND FREE ENERGY PREDICTED BY IDOCK:   -0.83 KCAL/MOL
REMARK 927      BINDING AFFINITY PREDICTED BY RF-SCORE:    0.00 PKD
ROOT
HETATM    1  C   UNL     1      -5.339   6.453  73.235  1.00  0.00    -0.037 C  
HETATM    2  C   UNL     1      -6.460   5.589  72.736  1.00  0.00    -0.065 A  
HETATM    3  C   UNL     1      -7.339   6.052  71.746  1.00  0.00    -0.093 A  
HETATM    4  C   UNL     1      -8.411   5.266  71.306  1.00  0.00    -0.123 A  
HETATM    5  C   UNL     1      -6.666   4.324  73.290  1.00  0.00    -0.053 A  
HETATM    6  C   UNL     1      -8.636   4.011  71.894  1.00  0.00    -0.118 A  
HETATM    7  C   UNL     1      -7.746   3.544  72.874  1.00  0.00    -0.061 A  
HETATM    8  C   UNL     1      -9.802   3.137  71.522  1.00  0.00    -0.200 C  
ENDROOT
BRANCH   4   9
HETATM    9  O   UNL     1      -9.326   5.690  70.380  1.00  0.00    -0.154 OA 
BRANCH   9  10
HETATM   10  C   UNL     1      -9.057   6.909  69.682  1.00  0.00    -0.143 C  
BRANCH  10  11
HETATM   11  C   UNL     1     -10.234   7.881  69.791  1.00  0.00    -0.212 C  
BRANCH  11  12
HETATM   12  C   UNL     1     -11.530   7.171  70.218  1.00  0.00    -0.287 C  
BRANCH  12  13
HETATM   13  C   UNL     1     -12.036   7.512  71.644  1.00  0.00    -0.333 C  
HETATM   14  C   UNL     1     -10.922   8.097  72.527  1.00  0.00    -0.439 C  
HETATM   15  C   UNL     1     -12.592   6.251  72.335  1.00  0.00     0.074 C  
HETATM   16  C   UNL     1     -13.178   8.536  71.536  1.00  0.00    -0.297 C  
HETATM   17  O   UNL     1     -14.328   8.332  71.900  1.00  0.00    -0.427 OA 
HETATM   18  O   UNL     1     -12.823   9.723  70.993  1.00  0.00    -0.323 OA 
ENDBRANCH  12  13
ENDBRANCH  11  12
ENDBRANCH  10  11
ENDBRANCH   9  10
ENDBRANCH   4   9
TORSDOF 5
ENDMDL
MODEL      233
REMARK 921   NORMALIZED FREE ENERGY PREDICTED BY IDOCK:   -2.80 KCAL/MOL
REMARK 922        TOTAL FREE ENERGY PREDICTED BY IDOCK:   -4.10 KCAL/MOL
REMARK 923 INTER-LIGAND FREE ENERGY PREDICTED BY IDOCK:   -3.00 KCAL/MOL
REMARK 924 INTRA-LIGAND FREE ENERGY PREDICTED BY IDOCK:   -1.11 KCAL/MOL
REMARK 927      BINDING AFFINITY PREDICTED BY RF-SCORE:    0.00 PKD
ROOT
HETATM    1  C   UNL     1     -10.841  12.301  65.511  1.00  0.00    -0.319 C  
HETATM    2  C   UNL     1     -10.276  11.514  66.657  1.00  0.00    -0.254 A  
HETATM    3  C   UNL     1     -10.676  10.189  66.886  1.00  0.00    -0.231 A  
HETATM    4  C   UNL     1     -10.184   9.463  67.977  1.00  0.00    -0.204 A  
HETATM    5  C   UNL     1      -9.376  12.114  67.540  1.00  0.00    -0.181 A  
HETATM    6  C   UNL     1      -9.309  10.084  68.883  1.00  0.00    -0.172 A  
HETATM    7  C   UNL     1      -8.900  11.406  68.644  1.00  0.00    -0.126 A  
HETATM    8  C   UNL     1      -8.789   9.393  70.113  1.00  0.00    -0.249 C  
ENDROOT
BRANCH   4   9
HETATM    9  O   UNL     1     -10.579   8.186  68.273  1.00  0.00    -0.183 OA 
BRANCH   9  10
HETATM   10  C   UNL     1     -10.904   7.316  67.186  1.00  0.00    -0.308 C  
BRANCH  10  11
HETATM   11  C   UNL     1     -10.093   6.020  67.252  1.00  0.00    -0.205 C  
BRANCH  11  12
HETATM   12  C   UNL     1      -9.092   6.025  68.420  1.00  0.00    -0.112 C  
BRANCH  12  13
HETATM   13  C   UNL     1      -7.596   6.024  68.013  1.00  0.00    -0.093 C  
HETATM   14  C   UNL     1      -6.666   5.963  69.235  1.00  0.00    -0.060 C  
HETATM   15  C   UNL     1      -7.256   7.293  67.206  1.00  0.00    -0.093 C  
HETATM   16  C   UNL     1      -7.324   4.805  67.116  1.00  0.00    -0.078 C  
HETATM   17  O   UNL     1      -6.953   4.870  65.952  1.00  0.00    -0.063 OA 
HETATM   18  O   UNL     1      -7.530   3.608  67.713  1.00  0.00    -0.065 OA 
ENDBRANCH  12  13
ENDBRANCH  11  12
ENDBRANCH  10  11
ENDBRANCH   9  10
ENDBRANCH   4   9
TORSDOF 5
ENDMDL
MODEL      234
REMARK 921   NORMALIZED FREE ENERGY PREDICTED BY IDOCK:   -2.79 KCAL/MOL
REMARK 922        TOTAL FREE ENERGY PREDICTED BY IDOCK:   -4.09 KCAL/MOL
REMARK 923 INTER-LIGAND FREE ENERGY PREDICTED BY IDOCK:   -3.57 KCAL/MOL
REMARK 924 INTRA-LIGAND FREE ENERGY PREDICTED BY IDOCK:   -0.52 KCAL/MOL
REMARK 927      BINDING AFFINITY PREDICTED BY RF-SCORE:    0.00 PKD
ROOT
HETATM    1  C   UNL     1      -8.333   3.226  65.856  1.00  0.00    -0.103 C  
HETATM    2  C   UNL     1      -8.840   4.580  66.259  1.00  0.00    -0.113 A  
HETATM    3  C   UNL     1      -7.952   5.588  66.663  1.00  0.00    -0.101 A  
HETATM    4  C   UNL     1      -8.422   6.840  67.079  1.00  0.00    -0.114 A  
HETATM    5  C   UNL     1     -10.213   4.833  66.281  1.00  0.00    -0.315 A  
HETATM    6  C   UNL     1      -9.805   7.077  67.135  1.00  0.00    -0.225 A  
HETATM    7  C   UNL     1     -10.690   6.069  66.717  1.00  0.00    -0.374 A  
HETATM    8  C   UNL     1     -10.389   8.370  67.632  1.00  0.00    -0.317 C  
ENDROOT
BRANCH   4   9
HETATM    9  O   UNL     1      -7.603   7.841  67.528  1.00  0.00    -0.104 OA 
BRANCH   9  10
HETATM   10  C   UNL     1      -6.980   7.675  68.804  1.00  0.00    -0.071 C  
BRANCH  10  11
HETATM   11  C   UNL     1      -7.948   7.059  69.818  1.00  0.00    -0.124 C  
BRANCH  11  12
HETATM   12  C   UNL     1      -8.155   7.967  71.042  1.00  0.00    -0.097 C  
BRANCH  12  13
HETATM   13  C   UNL     1      -9.345   7.584  71.959  1.00  0.00    -0.165 C  
HETATM   14  C   UNL     1      -9.129   8.048  73.409  1.00  0.00    -0.340 C  
HETATM   15  C   UNL     1      -9.552   6.056  71.964  1.00  0.00    -0.167 C  
HETATM   16  C   UNL     1     -10.627   8.234  71.412  1.00  0.00    -0.223 C  
HETATM   17  O   UNL     1     -11.601   7.613  71.010  1.00  0.00    -0.277 OA 
HETATM   18  O   UNL     1     -10.611   9.587  71.397  1.00  0.00    -0.336 OA 
ENDBRANCH  12  13
ENDBRANCH  11  12
ENDBRANCH  10  11
ENDBRANCH   9  10
ENDBRANCH   4   9
TORSDOF 5
ENDMDL
MODEL      235
REMARK 921   NORMALIZED FREE ENERGY PREDICTED BY IDOCK:   -2.77 KCAL/MOL
REMARK 922        TOTAL FREE ENERGY PREDICTED BY IDOCK:   -4.06 KCAL/MOL
REMARK 923 INTER-LIGAND FREE ENERGY PREDICTED BY IDOCK:   -3.35 KCAL/MOL
REMARK 924 INTRA-LIGAND FREE ENERGY PREDICTED BY IDOCK:   -0.72 KCAL/MOL
REMARK 927      BINDING AFFINITY PREDICTED BY RF-SCORE:    0.00 PKD
ROOT
HETATM    1  C   UNL     1     -11.930  11.079  69.134  1.00  0.00    -0.394 C  
HETATM    2  C   UNL     1     -10.787  11.899  68.612  1.00  0.00    -0.273 A  
HETATM    3  C   UNL     1      -9.514  11.333  68.446  1.00  0.00    -0.192 A  
HETATM    4  C   UNL     1      -8.434  12.104  67.999  1.00  0.00    -0.170 A  
HETATM    5  C   UNL     1     -10.970  13.254  68.331  1.00  0.00    -0.289 A  
HETATM    6  C   UNL     1      -8.615  13.475  67.753  1.00  0.00    -0.183 A  
HETATM    7  C   UNL     1      -9.894  14.034  67.908  1.00  0.00    -0.233 A  
HETATM    8  C   UNL     1      -7.491  14.381  67.334  1.00  0.00    -0.183 C  
ENDROOT
BRANCH   4   9
HETATM    9  O   UNL     1      -7.162  11.613  67.866  1.00  0.00    -0.075 OA 
BRANCH   9  10
HETATM   10  C   UNL     1      -6.840  10.395  68.541  1.00  0.00    -0.061 C  
BRANCH  10  11
HETATM   11  C   UNL     1      -6.720   9.230  67.555  1.00  0.00    -0.069 C  
BRANCH  11  12
HETATM   12  C   UNL     1      -7.789   8.152  67.802  1.00  0.00    -0.118 C  
BRANCH  12  13
HETATM   13  C   UNL     1      -8.577   7.697  66.547  1.00  0.00    -0.142 C  
HETATM   14  C   UNL     1      -7.686   6.942  65.549  1.00  0.00    -0.101 C  
HETATM   15  C   UNL     1      -9.192   8.914  65.826  1.00  0.00    -0.283 C  
HETATM   16  C   UNL     1      -9.728   6.777  66.987  1.00  0.00    -0.156 C  
HETATM   17  O   UNL     1     -10.914   7.023  66.823  1.00  0.00    -0.317 OA 
HETATM   18  O   UNL     1      -9.334   5.632  67.593  1.00  0.00    -0.110 OA 
ENDBRANCH  12  13
ENDBRANCH  11  12
ENDBRANCH  10  11
ENDBRANCH   9  10
ENDBRANCH   4   9
TORSDOF 5
ENDMDL
MODEL      236
REMARK 921   NORMALIZED FREE ENERGY PREDICTED BY IDOCK:   -2.77 KCAL/MOL
REMARK 922        TOTAL FREE ENERGY PREDICTED BY IDOCK:   -4.06 KCAL/MOL
REMARK 923 INTER-LIGAND FREE ENERGY PREDICTED BY IDOCK:   -3.65 KCAL/MOL
REMARK 924 INTRA-LIGAND FREE ENERGY PREDICTED BY IDOCK:   -0.41 KCAL/MOL
REMARK 927      BINDING AFFINITY PREDICTED BY RF-SCORE:    0.00 PKD
ROOT
HETATM    1  C   UNL     1      -7.969   8.398  63.558  1.00  0.00    -0.159 C  
HETATM    2  C   UNL     1      -8.468   8.313  64.971  1.00  0.00    -0.141 A  
HETATM    3  C   UNL     1      -8.927   9.457  65.641  1.00  0.00    -0.236 A  
HETATM    4  C   UNL     1      -9.356   9.392  66.972  1.00  0.00    -0.148 A  
HETATM    5  C   UNL     1      -8.435   7.095  65.651  1.00  0.00    -0.141 A  
HETATM    6  C   UNL     1      -9.285   8.172  67.663  1.00  0.00    -0.150 A  
HETATM    7  C   UNL     1      -8.838   7.026  66.985  1.00  0.00    -0.124 A  
HETATM    8  C   UNL     1      -9.664   8.035  69.111  1.00  0.00    -0.163 C  
ENDROOT
BRANCH   4   9
HETATM    9  O   UNL     1      -9.766  10.486  67.686  1.00  0.00    -0.161 OA 
BRANCH   9  10
HETATM   10  C   UNL     1     -11.171  10.673  67.877  1.00  0.00    -0.308 C  
BRANCH  10  11
HETATM   11  C   UNL     1     -11.617  12.054  67.393  1.00  0.00    -0.388 C  
BRANCH  11  12
HETATM   12  C   UNL     1     -10.692  12.607  66.295  1.00  0.00    -0.280 C  
BRANCH  12  13
HETATM   13  C   UNL     1     -11.395  12.992  64.967  1.00  0.00    -0.325 C  
HETATM   14  C   UNL     1     -11.426  14.513  64.750  1.00  0.00    -0.408 C  
HETATM   15  C   UNL     1     -12.845  12.469  64.952  1.00  0.00    -0.216 C  
HETATM   16  C   UNL     1     -10.643  12.336  63.797  1.00  0.00    -0.451 C  
HETATM   17  O   UNL     1     -11.128  11.508  63.038  1.00  0.00    -0.165 OA 
HETATM   18  O   UNL     1      -9.361  12.743  63.651  1.00  0.00     0.314 OA 
ENDBRANCH  12  13
ENDBRANCH  11  12
ENDBRANCH  10  11
ENDBRANCH   9  10
ENDBRANCH   4   9
TORSDOF 5
ENDMDL
MODEL      237
REMARK 921   NORMALIZED FREE ENERGY PREDICTED BY IDOCK:   -2.72 KCAL/MOL
REMARK 922        TOTAL FREE ENERGY PREDICTED BY IDOCK:   -3.99 KCAL/MOL
REMARK 923 INTER-LIGAND FREE ENERGY PREDICTED BY IDOCK:   -3.61 KCAL/MOL
REMARK 924 INTRA-LIGAND FREE ENERGY PREDICTED BY IDOCK:   -0.39 KCAL/MOL
REMARK 927      BINDING AFFINITY PREDICTED BY RF-SCORE:    0.00 PKD
ROOT
HETATM    1  C   UNL     1     -12.661  12.129  63.555  1.00  0.00    -0.621 C  
HETATM    2  C   UNL     1     -11.619  12.234  64.630  1.00  0.00    -0.404 A  
HETATM    3  C   UNL     1     -10.825  11.129  64.972  1.00  0.00    -0.244 A  
HETATM    4  C   UNL     1      -9.881  11.209  66.002  1.00  0.00    -0.228 A  
HETATM    5  C   UNL     1     -11.462  13.428  65.337  1.00  0.00    -0.322 A  
HETATM    6  C   UNL     1      -9.754  12.400  66.735  1.00  0.00    -0.226 A  
HETATM    7  C   UNL     1     -10.540  13.508  66.381  1.00  0.00    -0.283 A  
HETATM    8  C   UNL     1      -8.810  12.543  67.896  1.00  0.00    -0.185 C  
ENDROOT
BRANCH   4   9
HETATM    9  O   UNL     1      -9.117  10.147  66.408  1.00  0.00    -0.148 OA 
BRANCH   9  10
HETATM   10  C   UNL     1      -9.530   8.836  66.017  1.00  0.00    -0.233 C  
BRANCH  10  11
HETATM   11  C   UNL     1      -8.421   8.109  65.253  1.00  0.00    -0.157 C  
BRANCH  11  12
HETATM   12  C   UNL     1      -8.376   6.609  65.590  1.00  0.00    -0.144 C  
BRANCH  12  13
HETATM   13  C   UNL     1      -8.106   5.666  64.388  1.00  0.00    -0.128 C  
HETATM   14  C   UNL     1      -8.066   6.428  63.054  1.00  0.00    -0.055 C  
HETATM   15  C   UNL     1      -9.198   4.582  64.297  1.00  0.00    -0.117 C  
HETATM   16  C   UNL     1      -6.756   4.961  64.602  1.00  0.00    -0.048 C  
HETATM   17  O   UNL     1      -6.617   3.752  64.725  1.00  0.00    -0.040 OA 
HETATM   18  O   UNL     1      -5.688   5.791  64.650  1.00  0.00    -0.022 OA 
ENDBRANCH  12  13
ENDBRANCH  11  12
ENDBRANCH  10  11
ENDBRANCH   9  10
ENDBRANCH   4   9
TORSDOF 5
ENDMDL
MODEL      238
REMARK 921   NORMALIZED FREE ENERGY PREDICTED BY IDOCK:   -2.67 KCAL/MOL
REMARK 922        TOTAL FREE ENERGY PREDICTED BY IDOCK:   -3.94 KCAL/MOL
REMARK 923 INTER-LIGAND FREE ENERGY PREDICTED BY IDOCK:   -2.83 KCAL/MOL
REMARK 924 INTRA-LIGAND FREE ENERGY PREDICTED BY IDOCK:   -1.11 KCAL/MOL
REMARK 927      BINDING AFFINITY PREDICTED BY RF-SCORE:    0.00 PKD
ROOT
HETATM    1  C   UNL     1      -5.743   6.540  72.861  1.00  0.00    -0.038 C  
HETATM    2  C   UNL     1      -7.229   6.351  72.954  1.00  0.00    -0.082 A  
HETATM    3  C   UNL     1      -7.854   5.253  72.345  1.00  0.00    -0.102 A  
HETATM    4  C   UNL     1      -9.244   5.095  72.395  1.00  0.00    -0.133 A  
HETATM    5  C   UNL     1      -8.013   7.300  73.614  1.00  0.00    -0.133 A  
HETATM    6  C   UNL     1     -10.031   6.072  73.026  1.00  0.00    -0.186 A  
HETATM    7  C   UNL     1      -9.401   7.162  73.647  1.00  0.00    -0.252 A  
HETATM    8  C   UNL     1     -11.532   6.006  73.064  1.00  0.00    -0.101 C  
ENDROOT
BRANCH   4   9
HETATM    9  O   UNL     1      -9.908   4.069  71.776  1.00  0.00    -0.165 OA 
BRANCH   9  10
HETATM   10  C   UNL     1      -9.209   3.327  70.774  1.00  0.00    -0.138 C  
BRANCH  10  11
HETATM   11  C   UNL     1      -9.656   3.735  69.368  1.00  0.00    -0.219 C  
BRANCH  11  12
HETATM   12  C   UNL     1     -10.213   5.169  69.335  1.00  0.00    -0.293 C  
BRANCH  12  13
HETATM   13  C   UNL     1      -9.310   6.216  68.633  1.00  0.00    -0.121 C  
HETATM   14  C   UNL     1      -7.960   5.620  68.206  1.00  0.00    -0.100 C  
HETATM   15  C   UNL     1      -9.040   7.410  69.572  1.00  0.00    -0.143 C  
HETATM   16  C   UNL     1     -10.038   6.748  67.388  1.00  0.00    -0.175 C  
HETATM   17  O   UNL     1     -10.375   7.913  67.226  1.00  0.00    -0.249 OA 
HETATM   18  O   UNL     1     -10.297   5.814  66.444  1.00  0.00    -0.196 OA 
ENDBRANCH  12  13
ENDBRANCH  11  12
ENDBRANCH  10  11
ENDBRANCH   9  10
ENDBRANCH   4   9
TORSDOF 5
ENDMDL
MODEL      239
REMARK 921   NORMALIZED FREE ENERGY PREDICTED BY IDOCK:   -2.64 KCAL/MOL
REMARK 922        TOTAL FREE ENERGY PREDICTED BY IDOCK:   -3.90 KCAL/MOL
REMARK 923 INTER-LIGAND FREE ENERGY PREDICTED BY IDOCK:   -3.32 KCAL/MOL
REMARK 924 INTRA-LIGAND FREE ENERGY PREDICTED BY IDOCK:   -0.58 KCAL/MOL
REMARK 927      BINDING AFFINITY PREDICTED BY RF-SCORE:    0.00 PKD
ROOT
HETATM    1  C   UNL     1      -7.064   8.460  64.003  1.00  0.00    -0.087 C  
HETATM    2  C   UNL     1      -8.114   8.993  64.933  1.00  0.00    -0.137 A  
HETATM    3  C   UNL     1      -8.966   8.123  65.630  1.00  0.00    -0.128 A  
HETATM    4  C   UNL     1      -9.975   8.616  66.466  1.00  0.00    -0.282 A  
HETATM    5  C   UNL     1      -8.285  10.371  65.076  1.00  0.00    -0.152 A  
HETATM    6  C   UNL     1     -10.167  10.003  66.577  1.00  0.00    -0.291 A  
HETATM    7  C   UNL     1      -9.303  10.870  65.889  1.00  0.00    -0.226 A  
HETATM    8  C   UNL     1     -11.268  10.607  67.403  1.00  0.00    -0.280 C  
ENDROOT
BRANCH   4   9
HETATM    9  O   UNL     1     -10.863   7.812  67.129  1.00  0.00    -0.313 OA 
BRANCH   9  10
HETATM   10  C   UNL     1     -10.429   7.191  68.342  1.00  0.00    -0.197 C  
BRANCH  10  11
HETATM   11  C   UNL     1     -10.549   5.668  68.259  1.00  0.00    -0.253 C  
BRANCH  11  12
HETATM   12  C   UNL     1      -9.571   4.960  69.211  1.00  0.00    -0.241 C  
BRANCH  12  13
HETATM   13  C   UNL     1      -8.393   4.220  68.526  1.00  0.00    -0.091 C  
HETATM   14  C   UNL     1      -7.425   3.603  69.547  1.00  0.00    -0.052 C  
HETATM   15  C   UNL     1      -7.599   5.188  67.626  1.00  0.00    -0.087 C  
HETATM   16  C   UNL     1      -8.959   3.102  67.634  1.00  0.00    -0.154 C  
HETATM   17  O   UNL     1      -8.825   3.049  66.419  1.00  0.00    -0.130 OA 
HETATM   18  O   UNL     1      -9.642   2.141  68.300  1.00  0.00    -0.215 OA 
ENDBRANCH  12  13
ENDBRANCH  11  12
ENDBRANCH  10  11
ENDBRANCH   9  10
ENDBRANCH   4   9
TORSDOF 5
ENDMDL
MODEL      240
REMARK 921   NORMALIZED FREE ENERGY PREDICTED BY IDOCK:   -2.62 KCAL/MOL
REMARK 922        TOTAL FREE ENERGY PREDICTED BY IDOCK:   -3.87 KCAL/MOL
REMARK 923 INTER-LIGAND FREE ENERGY PREDICTED BY IDOCK:   -3.28 KCAL/MOL
REMARK 924 INTRA-LIGAND FREE ENERGY PREDICTED BY IDOCK:   -0.58 KCAL/MOL
REMARK 927      BINDING AFFINITY PREDICTED BY RF-SCORE:    0.00 PKD
ROOT
HETATM    1  C   UNL     1      -7.931   6.440  63.341  1.00  0.00    -0.086 C  
HETATM    2  C   UNL     1      -7.559   7.120  64.626  1.00  0.00    -0.106 A  
HETATM    3  C   UNL     1      -8.273   6.866  65.806  1.00  0.00    -0.132 A  
HETATM    4  C   UNL     1      -7.956   7.528  66.998  1.00  0.00    -0.116 A  
HETATM    5  C   UNL     1      -6.521   8.053  64.646  1.00  0.00    -0.056 A  
HETATM    6  C   UNL     1      -6.936   8.494  67.005  1.00  0.00    -0.074 A  
HETATM    7  C   UNL     1      -6.215   8.735  65.825  1.00  0.00    -0.056 A  
HETATM    8  C   UNL     1      -6.582   9.293  68.228  1.00  0.00    -0.059 C  
ENDROOT
BRANCH   4   9
HETATM    9  O   UNL     1      -8.652   7.354  68.165  1.00  0.00    -0.123 OA 
BRANCH   9  10
HETATM   10  C   UNL     1      -9.199   6.060  68.432  1.00  0.00    -0.114 C  
BRANCH  10  11
HETATM   11  C   UNL     1     -10.617   6.163  68.996  1.00  0.00    -0.341 C  
BRANCH  11  12
HETATM   12  C   UNL     1     -10.905   7.556  69.582  1.00  0.00    -0.210 C  
BRANCH  12  13
HETATM   13  C   UNL     1     -10.731   7.680  71.118  1.00  0.00    -0.242 C  
HETATM   14  C   UNL     1      -9.288   8.035  71.509  1.00  0.00    -0.196 C  
HETATM   15  C   UNL     1     -11.111   6.357  71.812  1.00  0.00    -0.311 C  
HETATM   16  C   UNL     1     -11.675   8.777  71.640  1.00  0.00    -0.332 C  
HETATM   17  O   UNL     1     -12.590   8.586  72.429  1.00  0.00    -0.374 OA 
HETATM   18  O   UNL     1     -11.425  10.014  71.153  1.00  0.00    -0.357 OA 
ENDBRANCH  12  13
ENDBRANCH  11  12
ENDBRANCH  10  11
ENDBRANCH   9  10
ENDBRANCH   4   9
TORSDOF 5
ENDMDL
MODEL      241
REMARK 921   NORMALIZED FREE ENERGY PREDICTED BY IDOCK:   -2.56 KCAL/MOL
REMARK 922        TOTAL FREE ENERGY PREDICTED BY IDOCK:   -3.79 KCAL/MOL
REMARK 923 INTER-LIGAND FREE ENERGY PREDICTED BY IDOCK:   -2.90 KCAL/MOL
REMARK 924 INTRA-LIGAND FREE ENERGY PREDICTED BY IDOCK:   -0.88 KCAL/MOL
REMARK 927      BINDING AFFINITY PREDICTED BY RF-SCORE:    0.00 PKD
ROOT
HETATM    1  C   UNL     1      -7.237   8.204  63.076  1.00  0.00    -0.091 C  
HETATM    2  C   UNL     1      -8.180   8.162  64.242  1.00  0.00    -0.095 A  
HETATM    3  C   UNL     1      -8.931   9.292  64.600  1.00  0.00    -0.202 A  
HETATM    4  C   UNL     1      -9.781   9.271  65.712  1.00  0.00    -0.269 A  
HETATM    5  C   UNL     1      -8.283   7.005  65.016  1.00  0.00    -0.091 A  
HETATM    6  C   UNL     1      -9.852   8.117  66.508  1.00  0.00    -0.309 A  
HETATM    7  C   UNL     1      -9.109   6.984  66.139  1.00  0.00    -0.149 A  
HETATM    8  C   UNL     1     -10.691   8.039  67.753  1.00  0.00    -0.174 C  
ENDROOT
BRANCH   4   9
HETATM    9  O   UNL     1     -10.498  10.360  66.132  1.00  0.00    -0.225 OA 
BRANCH   9  10
HETATM   10  C   UNL     1     -10.103  11.648  65.653  1.00  0.00    -0.240 C  
BRANCH  10  11
HETATM   11  C   UNL     1      -9.457  12.478  66.764  1.00  0.00    -0.231 C  
BRANCH  11  12
HETATM   12  C   UNL     1      -9.023  11.609  67.956  1.00  0.00    -0.176 C  
BRANCH  12  13
HETATM   13  C   UNL     1      -7.492  11.482  68.163  1.00  0.00    -0.101 C  
HETATM   14  C   UNL     1      -6.899  12.716  68.861  1.00  0.00    -0.097 C  
HETATM   15  C   UNL     1      -6.777  11.299  66.809  1.00  0.00    -0.140 C  
HETATM   16  C   UNL     1      -7.206  10.237  69.021  1.00  0.00    -0.080 C  
HETATM   17  O   UNL     1      -6.563   9.268  68.643  1.00  0.00    -0.053 OA 
HETATM   18  O   UNL     1      -7.730  10.279  70.268  1.00  0.00    -0.183 OA 
ENDBRANCH  12  13
ENDBRANCH  11  12
ENDBRANCH  10  11
ENDBRANCH   9  10
ENDBRANCH   4   9
TORSDOF 5
ENDMDL
MODEL      242
REMARK 921   NORMALIZED FREE ENERGY PREDICTED BY IDOCK:   -2.46 KCAL/MOL
REMARK 922        TOTAL FREE ENERGY PREDICTED BY IDOCK:   -3.67 KCAL/MOL
REMARK 923 INTER-LIGAND FREE ENERGY PREDICTED BY IDOCK:   -2.96 KCAL/MOL
REMARK 924 INTRA-LIGAND FREE ENERGY PREDICTED BY IDOCK:   -0.71 KCAL/MOL
REMARK 927      BINDING AFFINITY PREDICTED BY RF-SCORE:    0.00 PKD
ROOT
HETATM    1  C   UNL     1      -7.238   8.999  64.075  1.00  0.00    -0.095 C  
HETATM    2  C   UNL     1      -8.241   8.382  65.006  1.00  0.00    -0.155 A  
HETATM    3  C   UNL     1      -9.170   9.177  65.693  1.00  0.00    -0.296 A  
HETATM    4  C   UNL     1     -10.080   8.611  66.593  1.00  0.00    -0.294 A  
HETATM    5  C   UNL     1      -8.226   7.004  65.233  1.00  0.00    -0.128 A  
HETATM    6  C   UNL     1     -10.036   7.230  66.846  1.00  0.00    -0.317 A  
HETATM    7  C   UNL     1      -9.114   6.435  66.146  1.00  0.00    -0.150 A  
HETATM    8  C   UNL     1     -10.935   6.558  67.846  1.00  0.00    -0.382 C  
ENDROOT
BRANCH   4   9
HETATM    9  O   UNL     1     -10.973   9.347  67.325  1.00  0.00    -0.183 OA 
BRANCH   9  10
HETATM   10  C   UNL     1     -10.601   9.725  68.653  1.00  0.00    -0.221 C  
BRANCH  10  11
HETATM   11  C   UNL     1      -9.182  10.297  68.689  1.00  0.00    -0.159 C  
BRANCH  11  12
HETATM   12  C   UNL     1      -8.380   9.773  69.892  1.00  0.00    -0.198 C  
BRANCH  12  13
HETATM   13  C   UNL     1      -6.844   9.707  69.689  1.00  0.00    -0.067 C  
HETATM   14  C   UNL     1      -6.122   9.144  70.923  1.00  0.00    -0.054 C  
HETATM   15  C   UNL     1      -6.279  11.111  69.392  1.00  0.00    -0.079 C  
HETATM   16  C   UNL     1      -6.540   8.808  68.478  1.00  0.00    -0.059 C  
HETATM   17  O   UNL     1      -5.989   9.188  67.454  1.00  0.00    -0.049 OA 
HETATM   18  O   UNL     1      -6.935   7.522  68.618  1.00  0.00    -0.073 OA 
ENDBRANCH  12  13
ENDBRANCH  11  12
ENDBRANCH  10  11
ENDBRANCH   9  10
ENDBRANCH   4   9
TORSDOF 5
ENDMDL
MODEL      243
REMARK 921   NORMALIZED FREE ENERGY PREDICTED BY IDOCK:   -2.24 KCAL/MOL
REMARK 922        TOTAL FREE ENERGY PREDICTED BY IDOCK:   -3.38 KCAL/MOL
REMARK 923 INTER-LIGAND FREE ENERGY PREDICTED BY IDOCK:   -3.00 KCAL/MOL
REMARK 924 INTRA-LIGAND FREE ENERGY PREDICTED BY IDOCK:   -0.38 KCAL/MOL
REMARK 927      BINDING AFFINITY PREDICTED BY RF-SCORE:    0.00 PKD
ROOT
HETATM    1  C   UNL     1     -10.139   3.171  63.914  1.00  0.00    -0.183 C  
HETATM    2  C   UNL     1      -9.369   4.373  64.376  1.00  0.00    -0.134 A  
HETATM    3  C   UNL     1      -9.375   4.755  65.726  1.00  0.00    -0.163 A  
HETATM    4  C   UNL     1      -8.693   5.899  66.156  1.00  0.00    -0.141 A  
HETATM    5  C   UNL     1      -8.672   5.154  63.452  1.00  0.00    -0.040 A  
HETATM    6  C   UNL     1      -8.026   6.702  65.216  1.00  0.00    -0.123 A  
HETATM    7  C   UNL     1      -8.010   6.308  63.868  1.00  0.00    -0.095 A  
HETATM    8  C   UNL     1      -7.326   7.979  65.589  1.00  0.00    -0.079 C  
ENDROOT
BRANCH   4   9
HETATM    9  O   UNL     1      -8.708   6.343  67.451  1.00  0.00    -0.108 OA 
BRANCH   9  10
HETATM   10  C   UNL     1      -9.971   6.684  68.028  1.00  0.00    -0.142 C  
BRANCH  10  11
HETATM   11  C   UNL     1      -9.792   7.453  69.339  1.00  0.00    -0.168 C  
BRANCH  11  12
HETATM   12  C   UNL     1      -9.721   6.512  70.554  1.00  0.00    -0.186 C  
BRANCH  12  13
HETATM   13  C   UNL     1      -9.482   7.207  71.919  1.00  0.00    -0.157 C  
HETATM   14  C   UNL     1      -9.287   8.724  71.769  1.00  0.00    -0.350 C  
HETATM   15  C   UNL     1      -8.234   6.623  72.611  1.00  0.00    -0.108 C  
HETATM   16  C   UNL     1     -10.694   6.947  72.830  1.00  0.00    -0.255 C  
HETATM   17  O   UNL     1     -10.647   6.334  73.888  1.00  0.00    -0.282 OA 
HETATM   18  O   UNL     1     -11.862   7.455  72.373  1.00  0.00    -0.284 OA 
ENDBRANCH  12  13
ENDBRANCH  11  12
ENDBRANCH  10  11
ENDBRANCH   9  10
ENDBRANCH   4   9
TORSDOF 5
ENDMDL
MODEL      244
REMARK 921   NORMALIZED FREE ENERGY PREDICTED BY IDOCK:   -2.15 KCAL/MOL
REMARK 922        TOTAL FREE ENERGY PREDICTED BY IDOCK:   -3.26 KCAL/MOL
REMARK 923 INTER-LIGAND FREE ENERGY PREDICTED BY IDOCK:   -4.82 KCAL/MOL
REMARK 924 INTRA-LIGAND FREE ENERGY PREDICTED BY IDOCK:    1.57 KCAL/MOL
REMARK 927      BINDING AFFINITY PREDICTED BY RF-SCORE:    0.00 PKD
ROOT
HETATM    1  C   UNL     1     -13.178  15.367  71.661  1.00  0.00    -0.563 C  
HETATM    2  C   UNL     1     -12.489  14.928  70.403  1.00  0.00    -0.403 A  
HETATM    3  C   UNL     1     -12.531  13.588  69.989  1.00  0.00    -0.231 A  
HETATM    4  C   UNL     1     -11.855  13.166  68.838  1.00  0.00    -0.320 A  
HETATM    5  C   UNL     1     -11.753  15.848  69.653  1.00  0.00    -0.322 A  
HETATM    6  C   UNL     1     -11.086  14.087  68.109  1.00  0.00    -0.280 A  
HETATM    7  C   UNL     1     -11.057  15.430  68.519  1.00  0.00    -0.295 A  
HETATM    8  C   UNL     1     -10.280  13.697  66.902  1.00  0.00    -0.261 C  
ENDROOT
BRANCH   4   9
HETATM    9  O   UNL     1     -11.824  11.863  68.418  1.00  0.00    -0.329 OA 
BRANCH   9  10
HETATM   10  C   UNL     1     -11.000  11.540  67.295  1.00  0.00    -0.271 C  
BRANCH  10  11
HETATM   11  C   UNL     1     -10.067  10.369  67.611  1.00  0.00    -0.223 C  
BRANCH  11  12
HETATM   12  C   UNL     1     -10.468   9.092  66.853  1.00  0.00    -0.293 C  
BRANCH  12  13
HETATM   13  C   UNL     1      -9.678   7.814  67.239  1.00  0.00    -0.224 C  
HETATM   14  C   UNL     1      -9.048   7.925  68.636  1.00  0.00    -0.136 C  
HETATM   15  C   UNL     1      -8.553   7.547  66.218  1.00  0.00    -0.153 C  
HETATM   16  C   UNL     1     -10.635   6.610  67.215  1.00  0.00    -0.317 C  
HETATM   17  O   UNL     1     -10.521   5.649  66.467  1.00  0.00    -0.242 OA 
HETATM   18  O   UNL     1     -11.652   6.681  68.105  1.00  0.00     0.038 OA 
ENDBRANCH  12  13
ENDBRANCH  11  12
ENDBRANCH  10  11
ENDBRANCH   9  10
ENDBRANCH   4   9
TORSDOF 5
ENDMDL
MODEL      245
REMARK 921   NORMALIZED FREE ENERGY PREDICTED BY IDOCK:   -2.03 KCAL/MOL
REMARK 922        TOTAL FREE ENERGY PREDICTED BY IDOCK:   -3.10 KCAL/MOL
REMARK 923 INTER-LIGAND FREE ENERGY PREDICTED BY IDOCK:   -2.16 KCAL/MOL
REMARK 924 INTRA-LIGAND FREE ENERGY PREDICTED BY IDOCK:   -0.95 KCAL/MOL
REMARK 927      BINDING AFFINITY PREDICTED BY RF-SCORE:    0.00 PKD
ROOT
HETATM    1  C   UNL     1      -5.154   6.529  73.251  1.00  0.00    -0.036 C  
HETATM    2  C   UNL     1      -6.036   5.352  72.955  1.00  0.00    -0.039 A  
HETATM    3  C   UNL     1      -7.001   5.415  71.939  1.00  0.00    -0.075 A  
HETATM    4  C   UNL     1      -7.855   4.334  71.686  1.00  0.00    -0.078 A  
HETATM    5  C   UNL     1      -5.936   4.192  73.726  1.00  0.00    -0.012 A  
HETATM    6  C   UNL     1      -7.775   3.185  72.489  1.00  0.00    -0.058 A  
HETATM    7  C   UNL     1      -6.799   3.121  73.496  1.00  0.00    -0.035 A  
HETATM    8  C   UNL     1      -8.699   2.011  72.322  1.00  0.00    -0.084 C  
ENDROOT
BRANCH   4   9
HETATM    9  O   UNL     1      -8.845   4.362  70.740  1.00  0.00    -0.092 OA 
BRANCH   9  10
HETATM   10  C   UNL     1      -8.806   5.402  69.759  1.00  0.00    -0.110 C  
BRANCH  10  11
HETATM   11  C   UNL     1     -10.067   6.267  69.819  1.00  0.00    -0.217 C  
BRANCH  11  12
HETATM   12  C   UNL     1     -11.116   5.691  70.786  1.00  0.00    -0.196 C  
BRANCH  12  13
HETATM   13  C   UNL     1     -11.332   6.500  72.091  1.00  0.00    -0.321 C  
HETATM   14  C   UNL     1     -12.820   6.629  72.452  1.00  0.00     0.181 C  
HETATM   15  C   UNL     1     -10.741   7.918  71.951  1.00  0.00    -0.290 C  
HETATM   16  C   UNL     1     -10.597   5.793  73.242  1.00  0.00    -0.254 C  
HETATM   17  O   UNL     1      -9.675   6.282  73.880  1.00  0.00    -0.162 OA 
HETATM   18  O   UNL     1     -11.049   4.547  73.518  1.00  0.00    -0.279 OA 
ENDBRANCH  12  13
ENDBRANCH  11  12
ENDBRANCH  10  11
ENDBRANCH   9  10
ENDBRANCH   4   9
TORSDOF 5
ENDMDL
MODEL      246
REMARK 921   NORMALIZED FREE ENERGY PREDICTED BY IDOCK:   -1.94 KCAL/MOL
REMARK 922        TOTAL FREE ENERGY PREDICTED BY IDOCK:   -2.99 KCAL/MOL
REMARK 923 INTER-LIGAND FREE ENERGY PREDICTED BY IDOCK:   -3.07 KCAL/MOL
REMARK 924 INTRA-LIGAND FREE ENERGY PREDICTED BY IDOCK:    0.08 KCAL/MOL
REMARK 927      BINDING AFFINITY PREDICTED BY RF-SCORE:    0.00 PKD
ROOT
HETATM    1  C   UNL     1     -12.359  15.092  71.403  1.00  0.00    -0.395 C  
HETATM    2  C   UNL     1     -12.103  14.577  70.017  1.00  0.00    -0.395 A  
HETATM    3  C   UNL     1     -11.590  13.288  69.812  1.00  0.00    -0.297 A  
HETATM    4  C   UNL     1     -11.310  12.818  68.523  1.00  0.00    -0.291 A  
HETATM    5  C   UNL     1     -12.330  15.402  68.913  1.00  0.00     0.006 A  
HETATM    6  C   UNL     1     -11.505  13.665  67.420  1.00  0.00    -0.365 A  
HETATM    7  C   UNL     1     -12.031  14.950  67.628  1.00  0.00    -0.173 A  
HETATM    8  C   UNL     1     -11.167  13.257  66.013  1.00  0.00    -0.316 C  
ENDROOT
BRANCH   4   9
HETATM    9  O   UNL     1     -10.764  11.588  68.271  1.00  0.00    -0.192 OA 
BRANCH   9  10
HETATM   10  C   UNL     1      -9.390  11.383  68.610  1.00  0.00    -0.150 C  
BRANCH  10  11
HETATM   11  C   UNL     1      -8.468  12.218  67.719  1.00  0.00    -0.163 C  
BRANCH  11  12
HETATM   12  C   UNL     1      -8.319  13.660  68.234  1.00  0.00    -0.165 C  
BRANCH  12  13
HETATM   13  C   UNL     1      -7.055  13.933  69.088  1.00  0.00    -0.069 C  
HETATM   14  C   UNL     1      -6.399  12.633  69.580  1.00  0.00    -0.095 C  
HETATM   15  C   UNL     1      -7.409  14.794  70.317  1.00  0.00     0.365 C  
HETATM   16  C   UNL     1      -6.039  14.716  68.239  1.00  0.00    -0.117 C  
HETATM   17  O   UNL     1      -5.643  15.844  68.497  1.00  0.00    -0.096 OA 
HETATM   18  O   UNL     1      -5.592  14.057  67.145  1.00  0.00    -0.162 OA 
ENDBRANCH  12  13
ENDBRANCH  11  12
ENDBRANCH  10  11
ENDBRANCH   9  10
ENDBRANCH   4   9
TORSDOF 5
ENDMDL
MODEL      247
REMARK 921   NORMALIZED FREE ENERGY PREDICTED BY IDOCK:   -1.79 KCAL/MOL
REMARK 922        TOTAL FREE ENERGY PREDICTED BY IDOCK:   -2.80 KCAL/MOL
REMARK 923 INTER-LIGAND FREE ENERGY PREDICTED BY IDOCK:   -2.67 KCAL/MOL
REMARK 924 INTRA-LIGAND FREE ENERGY PREDICTED BY IDOCK:   -0.13 KCAL/MOL
REMARK 927      BINDING AFFINITY PREDICTED BY RF-SCORE:    0.00 PKD
ROOT
HETATM    1  C   UNL     1      -8.822   3.207  64.005  1.00  0.00    -0.096 C  
HETATM    2  C   UNL     1      -8.212   4.484  64.503  1.00  0.00    -0.107 A  
HETATM    3  C   UNL     1      -8.137   4.757  65.877  1.00  0.00    -0.107 A  
HETATM    4  C   UNL     1      -7.606   5.965  66.346  1.00  0.00    -0.091 A  
HETATM    5  C   UNL     1      -7.753   5.439  63.594  1.00  0.00    -0.083 A  
HETATM    6  C   UNL     1      -7.181   6.938  65.426  1.00  0.00    -0.073 A  
HETATM    7  C   UNL     1      -7.245   6.655  64.052  1.00  0.00    -0.067 A  
HETATM    8  C   UNL     1      -6.661   8.283  65.849  1.00  0.00    -0.053 C  
ENDROOT
BRANCH   4   9
HETATM    9  O   UNL     1      -7.555   6.301  67.672  1.00  0.00    -0.094 OA 
BRANCH   9  10
HETATM   10  C   UNL     1      -8.781   6.641  68.325  1.00  0.00    -0.118 C  
BRANCH  10  11
HETATM   11  C   UNL     1      -8.524   7.219  69.719  1.00  0.00    -0.136 C  
BRANCH  11  12
HETATM   12  C   UNL     1      -9.486   6.638  70.769  1.00  0.00    -0.173 C  
BRANCH  12  13
HETATM   13  C   UNL     1     -10.907   7.258  70.784  1.00  0.00    -0.260 C  
HETATM   14  C   UNL     1     -11.618   7.040  72.129  1.00  0.00    -0.320 C  
HETATM   15  C   UNL     1     -11.776   6.641  69.669  1.00  0.00    -0.216 C  
HETATM   16  C   UNL     1     -10.796   8.768  70.516  1.00  0.00    -0.233 C  
HETATM   17  O   UNL     1     -11.281   9.338  69.549  1.00  0.00    -0.141 OA 
HETATM   18  O   UNL     1     -10.099   9.456  71.450  1.00  0.00    -0.301 OA 
ENDBRANCH  12  13
ENDBRANCH  11  12
ENDBRANCH  10  11
ENDBRANCH   9  10
ENDBRANCH   4   9
TORSDOF 5
ENDMDL
