MODEL        1
REMARK 921   NORMALIZED FREE ENERGY PREDICTED BY IDOCK:   -7.00 KCAL/MOL
REMARK 922        TOTAL FREE ENERGY PREDICTED BY IDOCK:  -10.20 KCAL/MOL
REMARK 923 INTER-LIGAND FREE ENERGY PREDICTED BY IDOCK:   -9.04 KCAL/MOL
REMARK 924 INTRA-LIGAND FREE ENERGY PREDICTED BY IDOCK:   -1.16 KCAL/MOL
REMARK 927      BINDING AFFINITY PREDICTED BY RF-SCORE:    0.00 PKD
ROOT
HETATM    1  C   UNL     1      -8.412  17.467  66.375  1.00  0.00    -0.252 C  
HETATM    2  O   UNL     1      -9.603  16.928  65.816  1.00  0.00    -0.515 OA 
ENDROOT
BRANCH   2   3
HETATM    3  N   UNL     1      -9.392  15.574  65.517  1.00  0.00    -0.307 NA 
HETATM    4  H   UNL     1      -8.675  15.220  64.885  1.00  0.00     0.000 HD 
BRANCH   3   5
HETATM    5  C   UNL     1     -10.243  14.835  66.164  1.00  0.00    -0.297 C  
HETATM    6  C   UNL     1      -9.932  13.932  67.328  1.00  0.00    -0.242 C  
HETATM    7  N   UNL     1     -11.109  13.064  67.404  1.00  0.00    -0.263 NA 
HETATM    8  C   UNL     1     -12.188  13.542  66.519  1.00  0.00    -0.380 C  
HETATM    9  C   UNL     1     -11.714  14.841  65.847  1.00  0.00    -0.248 C  
BRANCH   7  10
HETATM   10  C   UNL     1     -10.885  11.693  67.492  1.00  0.00    -0.237 A  
HETATM   11  N   UNL     1     -11.078  11.097  68.694  1.00  0.00    -0.217 NA 
HETATM   12  O   UNL     1     -10.005   4.743  68.623  1.00  0.00    -0.155 OA 
HETATM   13  C   UNL     1     -10.868   9.767  68.855  1.00  0.00    -0.192 A  
HETATM   14  C   UNL     1     -10.454   8.973  67.789  1.00  0.00    -0.305 A  
HETATM   15  N   UNL     1     -11.093   9.163  70.123  1.00  0.00    -0.240 NA 
HETATM   16  C   UNL     1     -10.252   7.527  67.997  1.00  0.00    -0.195 C  
HETATM   17  O   UNL     1     -10.574   5.067  70.779  1.00  0.00    -0.193 OA 
HETATM   18  C   UNL     1     -10.278   9.549  66.535  1.00  0.00    -0.307 A  
HETATM   19  F   UNL     1     -10.344  11.455  65.174  1.00  0.00    -0.284 F  
HETATM   20  C   UNL     1     -10.487   6.957  69.343  1.00  0.00    -0.237 C  
HETATM   21  O   UNL     1      -9.899   6.795  67.073  1.00  0.00    -0.148 OA 
HETATM   22  C   UNL     1     -10.501  10.913  66.392  1.00  0.00    -0.250 A  
HETATM   23  C   UNL     1     -10.360   5.524  69.666  1.00  0.00    -0.289 C  
HETATM   24  C   UNL     1     -10.871   7.812  70.299  1.00  0.00    -0.249 C  
BRANCH  15  25
HETATM   25  C   UNL     1     -11.839   9.930  71.138  1.00  0.00    -0.386 C  
HETATM   26  C   UNL     1     -13.348   9.978  71.040  1.00  0.00    -0.334 C  
HETATM   27  C   UNL     1     -12.701   9.325  72.220  1.00  0.00    -0.435 C  
ENDBRANCH  15  25
ENDBRANCH   7  10
BRANCH   9  28
HETATM   28  C   UNL     1     -11.993  14.885  64.346  1.00  0.00    -0.394 C  
HETATM   29  H1  UNL     1     -11.960  16.247  62.780  1.00  0.00     0.000 HD 
HETATM   30  N   UNL     1     -11.774  16.217  63.782  1.00  0.00    -1.488 NA 
HETATM   31  H2  UNL     1     -10.835  16.558  63.994  1.00  0.00     0.000 HD 
ENDBRANCH   9  28
ENDBRANCH   3   5
ENDBRANCH   2   3
TORSDOF 5
ENDMDL
MODEL        2
REMARK 921   NORMALIZED FREE ENERGY PREDICTED BY IDOCK:   -6.94 KCAL/MOL
REMARK 922        TOTAL FREE ENERGY PREDICTED BY IDOCK:  -10.13 KCAL/MOL
REMARK 923 INTER-LIGAND FREE ENERGY PREDICTED BY IDOCK:   -9.30 KCAL/MOL
REMARK 924 INTRA-LIGAND FREE ENERGY PREDICTED BY IDOCK:   -0.83 KCAL/MOL
REMARK 927      BINDING AFFINITY PREDICTED BY RF-SCORE:    0.00 PKD
ROOT
HETATM    1  C   UNL     1      -7.889  17.092  66.347  1.00  0.00    -0.308 C  
HETATM    2  O   UNL     1      -9.093  16.630  65.748  1.00  0.00    -0.503 OA 
ENDROOT
BRANCH   2   3
HETATM    3  N   UNL     1      -9.160  15.235  65.880  1.00  0.00    -0.452 NA 
HETATM    4  H   UNL     1      -8.433  14.585  65.582  1.00  0.00     0.000 HD 
BRANCH   3   5
HETATM    5  C   UNL     1     -10.283  14.892  66.436  1.00  0.00    -0.284 C  
HETATM    6  C   UNL     1     -10.534  14.746  67.914  1.00  0.00    -0.246 C  
HETATM    7  N   UNL     1     -11.779  13.977  67.969  1.00  0.00    -0.340 NA 
HETATM    8  C   UNL     1     -12.399  13.860  66.636  1.00  0.00    -0.369 C  
HETATM    9  C   UNL     1     -11.533  14.645  65.636  1.00  0.00    -0.340 C  
BRANCH   7  10
HETATM   10  C   UNL     1     -11.806  12.868  68.810  1.00  0.00    -0.315 A  
HETATM   11  N   UNL     1     -11.210  11.731  68.375  1.00  0.00    -0.229 NA 
HETATM   12  O   UNL     1     -11.503   6.884  72.611  1.00  0.00    -0.259 OA 
HETATM   13  C   UNL     1     -11.207  10.610  69.137  1.00  0.00    -0.265 A  
HETATM   14  C   UNL     1     -11.811  10.595  70.391  1.00  0.00    -0.441 A  
HETATM   15  N   UNL     1     -10.561   9.433  68.664  1.00  0.00    -0.215 NA 
HETATM   16  C   UNL     1     -11.774   9.360  71.200  1.00  0.00    -0.345 C  
HETATM   17  O   UNL     1     -10.386   5.913  70.912  1.00  0.00    -0.209 OA 
HETATM   18  C   UNL     1     -12.403  11.754  70.880  1.00  0.00    -0.420 A  
HETATM   19  F   UNL     1     -12.951  14.012  70.572  1.00  0.00    -0.374 F  
HETATM   20  C   UNL     1     -11.100   8.164  70.648  1.00  0.00    -0.264 C  
HETATM   21  O   UNL     1     -12.287   9.318  72.317  1.00  0.00    -0.344 OA 
HETATM   22  C   UNL     1     -12.392  12.893  70.084  1.00  0.00    -0.179 A  
HETATM   23  C   UNL     1     -10.961   6.888  71.374  1.00  0.00    -0.240 C  
HETATM   24  C   UNL     1     -10.564   8.284  69.428  1.00  0.00    -0.196 C  
BRANCH  15  25
HETATM   25  C   UNL     1      -9.653   9.554  67.508  1.00  0.00    -0.144 C  
HETATM   26  C   UNL     1      -9.186   8.288  66.823  1.00  0.00    -0.212 C  
HETATM   27  C   UNL     1     -10.032   9.269  66.075  1.00  0.00    -0.325 C  
ENDBRANCH  15  25
ENDBRANCH   7  10
BRANCH   9  28
HETATM   28  C   UNL     1     -11.262  13.886  64.340  1.00  0.00    -0.329 C  
HETATM   29  H1  UNL     1     -12.184  13.501  62.521  1.00  0.00     0.000 HD 
HETATM   30  N   UNL     1     -12.365  14.009  63.386  1.00  0.00    -1.154 NA 
HETATM   31  H2  UNL     1     -12.585  14.988  63.202  1.00  0.00     0.000 HD 
ENDBRANCH   9  28
ENDBRANCH   3   5
ENDBRANCH   2   3
TORSDOF 5
ENDMDL
MODEL        3
REMARK 921   NORMALIZED FREE ENERGY PREDICTED BY IDOCK:   -6.94 KCAL/MOL
REMARK 922        TOTAL FREE ENERGY PREDICTED BY IDOCK:  -10.12 KCAL/MOL
REMARK 923 INTER-LIGAND FREE ENERGY PREDICTED BY IDOCK:   -9.20 KCAL/MOL
REMARK 924 INTRA-LIGAND FREE ENERGY PREDICTED BY IDOCK:   -0.92 KCAL/MOL
REMARK 927      BINDING AFFINITY PREDICTED BY RF-SCORE:    0.00 PKD
ROOT
HETATM    1  C   UNL     1     -10.527   7.139  73.516  1.00  0.00    -0.380 C  
HETATM    2  O   UNL     1     -10.359   7.447  72.138  1.00  0.00    -0.192 OA 
ENDROOT
BRANCH   2   3
HETATM    3  N   UNL     1     -10.246   8.837  71.993  1.00  0.00    -0.334 NA 
HETATM    4  H   UNL     1      -9.688   9.443  72.594  1.00  0.00     0.000 HD 
BRANCH   3   5
HETATM    5  C   UNL     1     -10.954   9.241  70.982  1.00  0.00    -0.320 C  
HETATM    6  C   UNL     1     -10.433   9.585  69.611  1.00  0.00    -0.223 C  
HETATM    7  N   UNL     1     -11.534  10.341  69.011  1.00  0.00    -0.184 NA 
HETATM    8  C   UNL     1     -12.751  10.267  69.842  1.00  0.00     0.165 C  
HETATM    9  C   UNL     1     -12.453   9.363  71.049  1.00  0.00    -0.311 C  
BRANCH   7  10
HETATM   10  C   UNL     1     -11.219  11.554  68.406  1.00  0.00    -0.255 A  
HETATM   11  N   UNL     1     -11.481  12.691  69.096  1.00  0.00    -0.288 NA 
HETATM   12  O   UNL     1      -9.791  18.058  65.955  1.00  0.00    -0.535 OA 
HETATM   13  C   UNL     1     -11.209  13.907  68.563  1.00  0.00    -0.270 A  
HETATM   14  C   UNL     1     -10.647  14.025  67.294  1.00  0.00    -0.273 A  
HETATM   15  N   UNL     1     -11.479  15.086  69.314  1.00  0.00    -0.288 NA 
HETATM   16  C   UNL     1     -10.351  15.366  66.754  1.00  0.00    -0.279 C  
HETATM   17  O   UNL     1     -10.632  18.914  67.862  1.00  0.00    -0.395 OA 
HETATM   18  C   UNL     1     -10.337  12.877  66.574  1.00  0.00    -0.272 A  
HETATM   19  F   UNL     1     -10.303  10.537  66.443  1.00  0.00    -0.265 F  
HETATM   20  C   UNL     1     -10.667  16.555  67.575  1.00  0.00    -0.283 C  
HETATM   21  O   UNL     1      -9.843  15.504  65.641  1.00  0.00    -0.334 OA 
HETATM   22  C   UNL     1     -10.621  11.639  67.140  1.00  0.00    -0.232 A  
HETATM   23  C   UNL     1     -10.380  17.942  67.164  1.00  0.00    -0.367 C  
HETATM   24  C   UNL     1     -11.217  16.329  68.775  1.00  0.00    -0.343 C  
BRANCH  15  25
HETATM   25  C   UNL     1     -11.752  14.946  70.756  1.00  0.00    -0.311 C  
HETATM   26  C   UNL     1     -11.694  16.183  71.624  1.00  0.00    -0.558 C  
HETATM   27  C   UNL     1     -12.989  15.453  71.457  1.00  0.00    -0.521 C  
ENDBRANCH  15  25
ENDBRANCH   7  10
BRANCH   9  28
HETATM   28  C   UNL     1     -12.937   9.941  72.376  1.00  0.00    -0.177 C  
HETATM   29  H1  UNL     1     -14.129   9.398  73.986  1.00  0.00     0.000 HD 
HETATM   30  N   UNL     1     -13.805   9.012  73.099  1.00  0.00    -1.177 NA 
HETATM   31  H2  UNL     1     -13.349   8.110  73.235  1.00  0.00     0.000 HD 
ENDBRANCH   9  28
ENDBRANCH   3   5
ENDBRANCH   2   3
TORSDOF 5
ENDMDL
MODEL        4
REMARK 921   NORMALIZED FREE ENERGY PREDICTED BY IDOCK:   -6.91 KCAL/MOL
REMARK 922        TOTAL FREE ENERGY PREDICTED BY IDOCK:  -10.09 KCAL/MOL
REMARK 923 INTER-LIGAND FREE ENERGY PREDICTED BY IDOCK:   -8.66 KCAL/MOL
REMARK 924 INTRA-LIGAND FREE ENERGY PREDICTED BY IDOCK:   -1.43 KCAL/MOL
REMARK 927      BINDING AFFINITY PREDICTED BY RF-SCORE:    0.00 PKD
ROOT
HETATM    1  C   UNL     1      -9.461  10.636  62.803  1.00  0.00    -0.328 C  
HETATM    2  O   UNL     1      -9.826  10.158  64.092  1.00  0.00    -0.305 OA 
ENDROOT
BRANCH   2   3
HETATM    3  N   UNL     1      -9.076   9.007  64.378  1.00  0.00    -0.420 NA 
HETATM    4  H   UNL     1      -8.670   8.386  63.679  1.00  0.00     0.000 HD 
BRANCH   3   5
HETATM    5  C   UNL     1      -8.975   8.848  65.663  1.00  0.00    -0.201 C  
HETATM    6  C   UNL     1     -10.097   8.504  66.608  1.00  0.00    -0.294 C  
HETATM    7  N   UNL     1      -9.544   8.838  67.922  1.00  0.00    -0.142 NA 
HETATM    8  C   UNL     1      -8.101   9.132  67.840  1.00  0.00    -0.105 C  
HETATM    9  C   UNL     1      -7.655   8.934  66.381  1.00  0.00    -0.092 C  
BRANCH   7  10
HETATM   10  C   UNL     1     -10.331   9.618  68.765  1.00  0.00    -0.213 A  
HETATM   11  N   UNL     1     -10.479  10.929  68.456  1.00  0.00    -0.178 NA 
HETATM   12  O   UNL     1     -14.258  14.136  72.574  1.00  0.00    -0.603 OA 
HETATM   13  C   UNL     1     -11.222  11.750  69.238  1.00  0.00    -0.256 A  
HETATM   14  C   UNL     1     -11.860  11.269  70.378  1.00  0.00    -0.443 A  
HETATM   15  N   UNL     1     -11.374  13.120  68.884  1.00  0.00    -0.272 NA 
HETATM   16  C   UNL     1     -12.674  12.188  71.197  1.00  0.00    -0.253 C  
HETATM   17  O   UNL     1     -13.692  15.774  71.134  1.00  0.00    -0.560 OA 
HETATM   18  C   UNL     1     -11.754   9.921  70.705  1.00  0.00    -0.424 A  
HETATM   19  F   UNL     1     -10.908   7.794  70.203  1.00  0.00    -0.231 F  
HETATM   20  C   UNL     1     -12.784  13.606  70.786  1.00  0.00    -0.338 C  
HETATM   21  O   UNL     1     -13.262  11.792  72.203  1.00  0.00    -0.498 OA 
HETATM   22  C   UNL     1     -10.990   9.097  69.888  1.00  0.00    -0.204 A  
HETATM   23  C   UNL     1     -13.599  14.610  71.495  1.00  0.00    -0.405 C  
HETATM   24  C   UNL     1     -12.119  13.965  69.681  1.00  0.00    -0.349 C  
BRANCH  15  25
HETATM   25  C   UNL     1     -10.984  13.535  67.524  1.00  0.00    -0.268 C  
HETATM   26  C   UNL     1     -12.028  13.499  66.431  1.00  0.00    -0.459 C  
HETATM   27  C   UNL     1     -11.431  14.807  66.844  1.00  0.00    -0.354 C  
ENDBRANCH  15  25
ENDBRANCH   7  10
BRANCH   9  28
HETATM   28  C   UNL     1      -6.773  10.064  65.857  1.00  0.00    -0.103 C  
HETATM   29  H1  UNL     1      -6.918  12.078  65.378  1.00  0.00     0.000 HD 
HETATM   30  N   UNL     1      -7.507  11.323  65.728  1.00  0.00    -0.361 NA 
HETATM   31  H2  UNL     1      -7.954  11.581  66.608  1.00  0.00     0.000 HD 
ENDBRANCH   9  28
ENDBRANCH   3   5
ENDBRANCH   2   3
TORSDOF 5
ENDMDL
MODEL        5
REMARK 921   NORMALIZED FREE ENERGY PREDICTED BY IDOCK:   -6.88 KCAL/MOL
REMARK 922        TOTAL FREE ENERGY PREDICTED BY IDOCK:  -10.04 KCAL/MOL
REMARK 923 INTER-LIGAND FREE ENERGY PREDICTED BY IDOCK:   -8.99 KCAL/MOL
REMARK 924 INTRA-LIGAND FREE ENERGY PREDICTED BY IDOCK:   -1.05 KCAL/MOL
REMARK 927      BINDING AFFINITY PREDICTED BY RF-SCORE:    0.00 PKD
ROOT
HETATM    1  C   UNL     1     -14.409   7.299  71.890  1.00  0.00    -0.354 C  
HETATM    2  O   UNL     1     -13.072   7.079  71.459  1.00  0.00    -0.380 OA 
ENDROOT
BRANCH   2   3
HETATM    3  N   UNL     1     -12.193   7.539  72.450  1.00  0.00    -0.510 NA 
HETATM    4  H   UNL     1     -12.151   7.180  73.404  1.00  0.00     0.000 HD 
BRANCH   3   5
HETATM    5  C   UNL     1     -11.442   8.487  71.978  1.00  0.00    -0.361 C  
HETATM    6  C   UNL     1     -11.915   9.814  71.444  1.00  0.00    -0.411 C  
HETATM    7  N   UNL     1     -10.757  10.308  70.696  1.00  0.00    -0.181 NA 
HETATM    8  C   UNL     1      -9.562   9.478  70.945  1.00  0.00    -0.146 C  
HETATM    9  C   UNL     1      -9.940   8.390  71.963  1.00  0.00    -0.354 C  
BRANCH   7  10
HETATM   10  C   UNL     1     -10.983  10.769  69.403  1.00  0.00    -0.254 A  
HETATM   11  N   UNL     1     -11.295  12.079  69.245  1.00  0.00    -0.265 NA 
HETATM   12  O   UNL     1     -12.178  13.796  63.097  1.00  0.00    -0.609 OA 
HETATM   13  C   UNL     1     -11.539  12.594  68.015  1.00  0.00    -0.343 A  
HETATM   14  C   UNL     1     -11.469  11.795  66.877  1.00  0.00    -0.364 A  
HETATM   15  N   UNL     1     -11.850  13.976  67.875  1.00  0.00    -0.363 NA 
HETATM   16  C   UNL     1     -11.725  12.395  65.553  1.00  0.00    -0.407 C  
HETATM   17  O   UNL     1     -12.550  15.750  64.154  1.00  0.00    -0.542 OA 
HETATM   18  C   UNL     1     -11.120  10.455  67.001  1.00  0.00    -0.141 A  
HETATM   19  F   UNL     1     -10.519   8.657  68.380  1.00  0.00    -0.222 F  
HETATM   20  C   UNL     1     -12.058  13.834  65.471  1.00  0.00    -0.434 C  
HETATM   21  O   UNL     1     -11.658  11.719  64.526  1.00  0.00    -0.301 OA 
HETATM   22  C   UNL     1     -10.871   9.948  68.272  1.00  0.00    -0.230 A  
HETATM   23  C   UNL     1     -12.292  14.556  64.207  1.00  0.00    -0.369 C  
HETATM   24  C   UNL     1     -12.111  14.506  66.627  1.00  0.00    -0.296 C  
BRANCH  15  25
HETATM   25  C   UNL     1     -11.595  14.867  69.021  1.00  0.00    -0.305 C  
HETATM   26  C   UNL     1     -10.213  15.461  69.180  1.00  0.00    -0.239 C  
HETATM   27  C   UNL     1     -11.383  16.359  68.929  1.00  0.00    -0.272 C  
ENDBRANCH  15  25
ENDBRANCH   7  10
BRANCH   9  28
HETATM   28  C   UNL     1      -9.445   6.998  71.576  1.00  0.00    -0.154 C  
HETATM   29  H1  UNL     1      -9.872   5.504  70.200  1.00  0.00     0.000 HD 
HETATM   30  N   UNL     1     -10.202   6.433  70.459  1.00  0.00    -0.186 NA 
HETATM   31  H2  UNL     1     -10.199   7.063  69.656  1.00  0.00     0.000 HD 
ENDBRANCH   9  28
ENDBRANCH   3   5
ENDBRANCH   2   3
TORSDOF 5
ENDMDL
MODEL        6
REMARK 921   NORMALIZED FREE ENERGY PREDICTED BY IDOCK:   -6.82 KCAL/MOL
REMARK 922        TOTAL FREE ENERGY PREDICTED BY IDOCK:   -9.97 KCAL/MOL
REMARK 923 INTER-LIGAND FREE ENERGY PREDICTED BY IDOCK:   -8.84 KCAL/MOL
REMARK 924 INTRA-LIGAND FREE ENERGY PREDICTED BY IDOCK:   -1.13 KCAL/MOL
REMARK 927      BINDING AFFINITY PREDICTED BY RF-SCORE:    0.00 PKD
ROOT
HETATM    1  C   UNL     1     -10.303   4.246  64.879  1.00  0.00    -0.165 C  
HETATM    2  O   UNL     1     -10.650   4.504  66.233  1.00  0.00    -0.227 OA 
ENDROOT
BRANCH   2   3
HETATM    3  N   UNL     1     -11.093   5.830  66.344  1.00  0.00    -0.767 NA 
HETATM    4  H   UNL     1     -11.730   6.289  65.693  1.00  0.00     0.000 HD 
BRANCH   3   5
HETATM    5  C   UNL     1     -10.575   6.388  67.397  1.00  0.00    -0.295 C  
HETATM    6  C   UNL     1     -11.254   6.579  68.728  1.00  0.00    -0.236 C  
HETATM    7  N   UNL     1     -10.418   7.579  69.392  1.00  0.00    -0.220 NA 
HETATM    8  C   UNL     1      -9.169   7.819  68.644  1.00  0.00    -0.138 C  
HETATM    9  C   UNL     1      -9.153   6.879  67.427  1.00  0.00    -0.122 C  
BRANCH   7  10
HETATM   10  C   UNL     1     -11.064   8.670  69.966  1.00  0.00    -0.157 A  
HETATM   11  N   UNL     1     -10.912   9.879  69.372  1.00  0.00    -0.236 NA 
HETATM   12  O   UNL     1     -14.136  14.621  72.313  1.00  0.00    -0.449 OA 
HETATM   13  C   UNL     1     -11.504  10.986  69.883  1.00  0.00    -0.320 A  
HETATM   14  C   UNL     1     -12.290  10.914  71.030  1.00  0.00    -0.498 A  
HETATM   15  N   UNL     1     -11.342  12.241  69.231  1.00  0.00    -0.263 NA 
HETATM   16  C   UNL     1     -12.932  12.138  71.548  1.00  0.00    -0.295 C  
HETATM   17  O   UNL     1     -13.158  15.741  70.620  1.00  0.00    -0.497 OA 
HETATM   18  C   UNL     1     -12.491   9.683  71.646  1.00  0.00    -0.494 A  
HETATM   19  F   UNL     1     -12.092   7.375  71.695  1.00  0.00    -0.286 F  
HETATM   20  C   UNL     1     -12.715  13.417  70.836  1.00  0.00    -0.349 C  
HETATM   21  O   UNL     1     -13.643  12.106  72.552  1.00  0.00    -0.277 OA 
HETATM   22  C   UNL     1     -11.877   8.560  71.103  1.00  0.00    -0.284 A  
HETATM   23  C   UNL     1     -13.334  14.696  71.229  1.00  0.00    -0.383 C  
HETATM   24  C   UNL     1     -11.931  13.376  69.751  1.00  0.00    -0.330 C  
BRANCH  15  25
HETATM   25  C   UNL     1     -10.799  12.249  67.860  1.00  0.00    -0.218 C  
HETATM   26  C   UNL     1     -11.748  12.511  66.711  1.00  0.00    -0.453 C  
HETATM   27  C   UNL     1     -10.642  13.478  66.997  1.00  0.00    -0.269 C  
ENDBRANCH  15  25
ENDBRANCH   7  10
BRANCH   9  28
HETATM   28  C   UNL     1      -8.742   7.572  66.130  1.00  0.00    -0.156 C  
HETATM   29  H1  UNL     1      -9.371   9.132  64.913  1.00  0.00     0.000 HD 
HETATM   30  N   UNL     1      -9.645   8.669  65.780  1.00  0.00    -0.457 NA 
HETATM   31  H2  UNL     1      -9.728   9.338  66.546  1.00  0.00     0.000 HD 
ENDBRANCH   9  28
ENDBRANCH   3   5
ENDBRANCH   2   3
TORSDOF 5
ENDMDL
MODEL        7
REMARK 921   NORMALIZED FREE ENERGY PREDICTED BY IDOCK:   -6.67 KCAL/MOL
REMARK 922        TOTAL FREE ENERGY PREDICTED BY IDOCK:   -9.78 KCAL/MOL
REMARK 923 INTER-LIGAND FREE ENERGY PREDICTED BY IDOCK:   -8.72 KCAL/MOL
REMARK 924 INTRA-LIGAND FREE ENERGY PREDICTED BY IDOCK:   -1.06 KCAL/MOL
REMARK 927      BINDING AFFINITY PREDICTED BY RF-SCORE:    0.00 PKD
ROOT
HETATM    1  C   UNL     1      -7.671  17.408  66.297  1.00  0.00    -0.305 C  
HETATM    2  O   UNL     1      -8.886  16.818  65.853  1.00  0.00    -0.499 OA 
ENDROOT
BRANCH   2   3
HETATM    3  N   UNL     1      -8.841  15.439  66.104  1.00  0.00    -0.446 NA 
HETATM    4  H   UNL     1      -8.103  14.812  65.784  1.00  0.00     0.000 HD 
BRANCH   3   5
HETATM    5  C   UNL     1      -9.873  15.077  66.804  1.00  0.00    -0.243 C  
HETATM    6  C   UNL     1      -9.846  14.488  68.190  1.00  0.00    -0.223 C  
HETATM    7  N   UNL     1     -11.182  13.907  68.335  1.00  0.00    -0.250 NA 
HETATM    8  C   UNL     1     -12.068  14.314  67.228  1.00  0.00    -0.355 C  
HETATM    9  C   UNL     1     -11.283  15.267  66.312  1.00  0.00    -0.223 C  
BRANCH   7  10
HETATM   10  C   UNL     1     -11.260  12.597  68.797  1.00  0.00    -0.280 A  
HETATM   11  N   UNL     1     -10.682  11.627  68.047  1.00  0.00    -0.199 NA 
HETATM   12  O   UNL     1     -11.214   5.734  70.600  1.00  0.00    -0.258 OA 
HETATM   13  C   UNL     1     -10.729  10.328  68.432  1.00  0.00    -0.226 A  
HETATM   14  C   UNL     1     -11.367   9.952  69.611  1.00  0.00    -0.212 A  
HETATM   15  N   UNL     1     -10.101   9.330  67.634  1.00  0.00    -0.200 NA 
HETATM   16  C   UNL     1     -11.384   8.530  70.005  1.00  0.00    -0.007 C  
HETATM   17  O   UNL     1     -10.078   5.289  68.706  1.00  0.00    -0.171 OA 
HETATM   18  C   UNL     1     -11.942  10.927  70.419  1.00  0.00    -0.453 A  
HETATM   19  F   UNL     1     -12.423  13.188  70.803  1.00  0.00    -0.393 F  
HETATM   20  C   UNL     1     -10.726   7.536  69.128  1.00  0.00    -0.163 C  
HETATM   21  O   UNL     1     -11.927   8.166  71.048  1.00  0.00    -0.295 OA 
HETATM   22  C   UNL     1     -11.880  12.253  70.008  1.00  0.00    -0.296 A  
HETATM   23  C   UNL     1     -10.639   6.096  69.433  1.00  0.00    -0.286 C  
HETATM   24  C   UNL     1     -10.154   8.003  68.012  1.00  0.00    -0.194 C  
BRANCH  15  25
HETATM   25  C   UNL     1      -9.159   9.766  66.587  1.00  0.00    -0.147 C  
HETATM   26  C   UNL     1      -8.710   8.755  65.555  1.00  0.00    -0.217 C  
HETATM   27  C   UNL     1      -9.508   9.947  65.129  1.00  0.00    -0.338 C  
ENDBRANCH  15  25
ENDBRANCH   7  10
BRANCH   9  28
HETATM   28  C   UNL     1     -11.436  14.946  64.827  1.00  0.00    -0.410 C  
HETATM   29  H1  UNL     1     -11.572  15.940  63.010  1.00  0.00     0.000 HD 
HETATM   30  N   UNL     1     -11.470  16.154  64.002  1.00  0.00    -1.425 NA 
HETATM   31  H2  UNL     1     -10.651  16.739  64.171  1.00  0.00     0.000 HD 
ENDBRANCH   9  28
ENDBRANCH   3   5
ENDBRANCH   2   3
TORSDOF 5
ENDMDL
MODEL        8
REMARK 921   NORMALIZED FREE ENERGY PREDICTED BY IDOCK:   -6.62 KCAL/MOL
REMARK 922        TOTAL FREE ENERGY PREDICTED BY IDOCK:   -9.71 KCAL/MOL
REMARK 923 INTER-LIGAND FREE ENERGY PREDICTED BY IDOCK:   -8.35 KCAL/MOL
REMARK 924 INTRA-LIGAND FREE ENERGY PREDICTED BY IDOCK:   -1.36 KCAL/MOL
REMARK 927      BINDING AFFINITY PREDICTED BY RF-SCORE:    0.00 PKD
ROOT
HETATM    1  C   UNL     1      -6.367  17.392  69.136  1.00  0.00    -0.234 C  
HETATM    2  O   UNL     1      -7.655  16.792  69.082  1.00  0.00    -0.240 OA 
ENDROOT
BRANCH   2   3
HETATM    3  N   UNL     1      -8.514  17.624  68.350  1.00  0.00    -0.280 NA 
HETATM    4  H   UNL     1      -8.263  18.539  67.977  1.00  0.00     0.000 HD 
BRANCH   3   5
HETATM    5  C   UNL     1      -9.677  17.060  68.216  1.00  0.00    -0.275 C  
HETATM    6  C   UNL     1     -10.635  16.723  69.328  1.00  0.00    -0.336 C  
HETATM    7  N   UNL     1     -11.558  15.775  68.700  1.00  0.00    -0.385 NA 
HETATM    8  C   UNL     1     -11.352  15.709  67.241  1.00  0.00    -0.122 C  
HETATM    9  C   UNL     1     -10.251  16.716  66.868  1.00  0.00    -0.291 C  
BRANCH   7  10
HETATM   10  C   UNL     1     -11.819  14.592  69.385  1.00  0.00    -0.329 A  
HETATM   11  N   UNL     1     -11.249  13.454  68.919  1.00  0.00    -0.264 NA 
HETATM   12  O   UNL     1     -12.660   8.240  72.434  1.00  0.00    -0.331 OA 
HETATM   13  C   UNL     1     -11.469  12.264  69.531  1.00  0.00    -0.249 A  
HETATM   14  C   UNL     1     -12.281  12.176  70.658  1.00  0.00    -0.392 A  
HETATM   15  N   UNL     1     -10.846  11.086  69.031  1.00  0.00    -0.214 NA 
HETATM   16  C   UNL     1     -12.484  10.866  71.306  1.00  0.00    -0.388 C  
HETATM   17  O   UNL     1     -11.346   7.348  70.836  1.00  0.00    -0.264 OA 
HETATM   18  C   UNL     1     -12.855  13.331  71.180  1.00  0.00    -0.363 A  
HETATM   19  F   UNL     1     -13.159  15.651  71.060  1.00  0.00    -0.473 F  
HETATM   20  C   UNL     1     -11.822   9.673  70.733  1.00  0.00    -0.378 C  
HETATM   21  O   UNL     1     -13.185  10.757  72.312  1.00  0.00    -0.402 OA 
HETATM   22  C   UNL     1     -12.615  14.541  70.539  1.00  0.00    -0.351 A  
HETATM   23  C   UNL     1     -11.913   8.321  71.313  1.00  0.00    -0.287 C  
HETATM   24  C   UNL     1     -11.073   9.868  69.640  1.00  0.00    -0.241 C  
BRANCH  15  25
HETATM   25  C   UNL     1      -9.744  11.237  68.064  1.00  0.00    -0.179 C  
HETATM   26  C   UNL     1      -9.210   9.998  67.379  1.00  0.00    -0.153 C  
HETATM   27  C   UNL     1      -9.873  11.067  66.569  1.00  0.00    -0.241 C  
ENDBRANCH  15  25
ENDBRANCH   7  10
BRANCH   9  28
HETATM   28  C   UNL     1      -9.206  16.147  65.911  1.00  0.00    -0.261 C  
HETATM   29  H1  UNL     1      -7.728  14.690  65.884  1.00  0.00     0.000 HD 
HETATM   30  N   UNL     1      -8.426  15.071  66.523  1.00  0.00    -0.427 NA 
HETATM   31  H2  UNL     1      -9.032  14.336  66.887  1.00  0.00     0.000 HD 
ENDBRANCH   9  28
ENDBRANCH   3   5
ENDBRANCH   2   3
TORSDOF 5
ENDMDL
MODEL        9
REMARK 921   NORMALIZED FREE ENERGY PREDICTED BY IDOCK:   -6.56 KCAL/MOL
REMARK 922        TOTAL FREE ENERGY PREDICTED BY IDOCK:   -9.64 KCAL/MOL
REMARK 923 INTER-LIGAND FREE ENERGY PREDICTED BY IDOCK:   -9.38 KCAL/MOL
REMARK 924 INTRA-LIGAND FREE ENERGY PREDICTED BY IDOCK:   -0.26 KCAL/MOL
REMARK 927      BINDING AFFINITY PREDICTED BY RF-SCORE:    0.00 PKD
ROOT
HETATM    1  C   UNL     1     -11.579  11.784  63.702  1.00  0.00    -0.424 C  
HETATM    2  O   UNL     1     -10.183  11.901  63.945  1.00  0.00    -0.324 OA 
ENDROOT
BRANCH   2   3
HETATM    3  N   UNL     1      -9.838  13.261  63.965  1.00  0.00    -0.686 NA 
HETATM    4  H   UNL     1      -9.544  13.801  63.151  1.00  0.00     0.000 HD 
BRANCH   3   5
HETATM    5  C   UNL     1      -9.946  13.732  65.171  1.00  0.00    -0.211 C  
HETATM    6  C   UNL     1      -9.429  13.085  66.429  1.00  0.00    -0.224 C  
HETATM    7  N   UNL     1     -10.147  13.793  67.491  1.00  0.00    -0.239 NA 
HETATM    8  C   UNL     1     -10.873  14.963  66.962  1.00  0.00    -0.315 C  
HETATM    9  C   UNL     1     -10.578  15.068  65.456  1.00  0.00    -0.380 C  
BRANCH   7  10
HETATM   10  C   UNL     1     -10.766  13.018  68.467  1.00  0.00    -0.255 A  
HETATM   11  N   UNL     1     -10.578  11.676  68.421  1.00  0.00    -0.202 NA 
HETATM   12  O   UNL     1     -13.552   8.494  73.171  1.00  0.00    -0.041 OA 
HETATM   13  C   UNL     1     -11.159  10.859  69.335  1.00  0.00    -0.260 A  
HETATM   14  C   UNL     1     -11.961  11.375  70.350  1.00  0.00    -0.465 A  
HETATM   15  N   UNL     1     -10.933   9.456  69.274  1.00  0.00    -0.170 NA 
HETATM   16  C   UNL     1     -12.563  10.457  71.335  1.00  0.00    -0.434 C  
HETATM   17  O   UNL     1     -12.578   6.798  72.052  1.00  0.00    -0.308 OA 
HETATM   18  C   UNL     1     -12.148  12.750  70.443  1.00  0.00    -0.382 A  
HETATM   19  F   UNL     1     -11.713  14.896  69.607  1.00  0.00    -0.270 F  
HETATM   20  C   UNL     1     -12.305   9.005  71.213  1.00  0.00    -0.361 C  
HETATM   21  O   UNL     1     -13.266  10.881  72.252  1.00  0.00    -0.406 OA 
HETATM   22  C   UNL     1     -11.540  13.569  69.498  1.00  0.00    -0.294 A  
HETATM   23  C   UNL     1     -12.814   7.993  72.157  1.00  0.00    -0.241 C  
HETATM   24  C   UNL     1     -11.530   8.615  70.193  1.00  0.00    -0.005 C  
BRANCH  15  25
HETATM   25  C   UNL     1      -9.837   8.962  68.421  1.00  0.00    -0.174 C  
HETATM   26  C   UNL     1     -10.115   7.806  67.486  1.00  0.00    -0.272 C  
HETATM   27  C   UNL     1      -9.753   9.145  66.925  1.00  0.00    -0.254 C  
ENDBRANCH  15  25
ENDBRANCH   7  10
BRANCH   9  28
HETATM   28  C   UNL     1     -11.823  15.323  64.610  1.00  0.00    -0.267 C  
HETATM   29  H1  UNL     1     -12.487  16.636  63.146  1.00  0.00     0.000 HD 
HETATM   30  N   UNL     1     -11.656  16.466  63.712  1.00  0.00    -1.515 NA 
HETATM   31  H2  UNL     1     -10.827  16.357  63.126  1.00  0.00     0.000 HD 
ENDBRANCH   9  28
ENDBRANCH   3   5
ENDBRANCH   2   3
TORSDOF 5
ENDMDL
MODEL       10
REMARK 921   NORMALIZED FREE ENERGY PREDICTED BY IDOCK:   -6.56 KCAL/MOL
REMARK 922        TOTAL FREE ENERGY PREDICTED BY IDOCK:   -9.63 KCAL/MOL
REMARK 923 INTER-LIGAND FREE ENERGY PREDICTED BY IDOCK:   -8.50 KCAL/MOL
REMARK 924 INTRA-LIGAND FREE ENERGY PREDICTED BY IDOCK:   -1.13 KCAL/MOL
REMARK 927      BINDING AFFINITY PREDICTED BY RF-SCORE:    0.00 PKD
ROOT
HETATM    1  C   UNL     1     -10.193  19.529  69.179  1.00  0.00    -0.185 C  
HETATM    2  O   UNL     1     -10.898  19.390  67.952  1.00  0.00    -0.378 OA 
ENDROOT
BRANCH   2   3
HETATM    3  N   UNL     1      -9.989  19.508  66.890  1.00  0.00    -0.357 NA 
HETATM    4  H   UNL     1      -9.640  20.390  66.515  1.00  0.00     0.000 HD 
BRANCH   3   5
HETATM    5  C   UNL     1      -9.657  18.331  66.452  1.00  0.00    -0.305 C  
HETATM    6  C   UNL     1     -10.604  17.254  65.989  1.00  0.00    -0.217 C  
HETATM    7  N   UNL     1      -9.773  16.049  65.997  1.00  0.00    -0.320 NA 
HETATM    8  C   UNL     1      -8.350  16.379  66.206  1.00  0.00    -0.327 C  
HETATM    9  C   UNL     1      -8.222  17.908  66.295  1.00  0.00    -0.246 C  
BRANCH   7  10
HETATM   10  C   UNL     1     -10.290  14.922  66.628  1.00  0.00    -0.283 A  
HETATM   11  N   UNL     1     -10.723  15.057  67.906  1.00  0.00    -0.262 NA 
HETATM   12  O   UNL     1     -13.108   9.617  70.406  1.00  0.00     0.074 OA 
HETATM   13  C   UNL     1     -11.229  13.998  68.586  1.00  0.00    -0.268 A  
HETATM   14  C   UNL     1     -11.324  12.743  67.990  1.00  0.00    -0.335 A  
HETATM   15  N   UNL     1     -11.691  14.169  69.920  1.00  0.00    -0.295 NA 
HETATM   16  C   UNL     1     -11.895  11.618  68.756  1.00  0.00    -0.325 C  
HETATM   17  O   UNL     1     -13.352  11.038  72.137  1.00  0.00    -0.451 OA 
HETATM   18  C   UNL     1     -10.917  12.579  66.670  1.00  0.00    -0.303 A  
HETATM   19  F   UNL     1     -10.031  13.513  64.712  1.00  0.00    -0.339 F  
HETATM   20  C   UNL     1     -12.345  11.854  70.145  1.00  0.00    -0.247 C  
HETATM   21  O   UNL     1     -12.004  10.500  68.255  1.00  0.00    -0.377 OA 
HETATM   22  C   UNL     1     -10.404  13.678  65.991  1.00  0.00    -0.304 A  
HETATM   23  C   UNL     1     -12.970  10.823  70.996  1.00  0.00    -0.332 C  
HETATM   24  C   UNL     1     -12.197  13.095  70.624  1.00  0.00    -0.321 C  
BRANCH  15  25
HETATM   25  C   UNL     1     -11.896  15.543  70.416  1.00  0.00    -0.351 C  
HETATM   26  C   UNL     1     -13.027  15.798  71.388  1.00  0.00    -0.478 C  
HETATM   27  C   UNL     1     -11.611  16.008  71.824  1.00  0.00    -0.534 C  
ENDBRANCH  15  25
ENDBRANCH   7  10
BRANCH   9  28
HETATM   28  C   UNL     1      -7.341  18.377  67.451  1.00  0.00    -0.217 C  
HETATM   29  H1  UNL     1      -6.392  20.104  68.104  1.00  0.00     0.000 HD 
HETATM   30  N   UNL     1      -6.980  19.790  67.332  1.00  0.00    -0.214 NA 
HETATM   31  H2  UNL     1      -7.810  20.376  67.239  1.00  0.00     0.000 HD 
ENDBRANCH   9  28
ENDBRANCH   3   5
ENDBRANCH   2   3
TORSDOF 5
ENDMDL
MODEL       11
REMARK 921   NORMALIZED FREE ENERGY PREDICTED BY IDOCK:   -6.53 KCAL/MOL
REMARK 922        TOTAL FREE ENERGY PREDICTED BY IDOCK:   -9.59 KCAL/MOL
REMARK 923 INTER-LIGAND FREE ENERGY PREDICTED BY IDOCK:   -8.84 KCAL/MOL
REMARK 924 INTRA-LIGAND FREE ENERGY PREDICTED BY IDOCK:   -0.75 KCAL/MOL
REMARK 927      BINDING AFFINITY PREDICTED BY RF-SCORE:    0.00 PKD
ROOT
HETATM    1  C   UNL     1     -10.547   6.197  68.715  1.00  0.00    -0.273 C  
HETATM    2  O   UNL     1     -10.260   7.055  69.813  1.00  0.00    -0.193 OA 
ENDROOT
BRANCH   2   3
HETATM    3  N   UNL     1      -9.734   8.259  69.324  1.00  0.00    -0.174 NA 
HETATM    4  H   UNL     1      -8.741   8.451  69.190  1.00  0.00     0.000 HD 
BRANCH   3   5
HETATM    5  C   UNL     1     -10.695   9.095  69.065  1.00  0.00    -0.153 C  
HETATM    6  C   UNL     1     -10.951   9.775  67.746  1.00  0.00    -0.180 C  
HETATM    7  N   UNL     1     -11.855  10.870  68.102  1.00  0.00    -0.569 NA 
HETATM    8  C   UNL     1     -12.333  10.742  69.492  1.00  0.00    -0.138 C  
HETATM    9  C   UNL     1     -11.744   9.451  70.083  1.00  0.00    -0.057 C  
BRANCH   7  10
HETATM   10  C   UNL     1     -11.539  12.138  67.626  1.00  0.00    -0.343 A  
HETATM   11  N   UNL     1     -11.557  13.167  68.508  1.00  0.00    -0.303 NA 
HETATM   12  O   UNL     1      -9.951  18.834  65.893  1.00  0.00    -0.508 OA 
HETATM   13  C   UNL     1     -11.269  14.431  68.111  1.00  0.00    -0.281 A  
HETATM   14  C   UNL     1     -10.940  14.709  66.786  1.00  0.00    -0.323 A  
HETATM   15  N   UNL     1     -11.279  15.491  69.060  1.00  0.00    -0.281 NA 
HETATM   16  C   UNL     1     -10.617  16.094  66.394  1.00  0.00    -0.269 C  
HETATM   17  O   UNL     1     -10.340  19.433  68.029  1.00  0.00    -0.400 OA 
HETATM   18  C   UNL     1     -10.882  13.671  65.863  1.00  0.00    -0.276 A  
HETATM   19  F   UNL     1     -11.103  11.384  65.397  1.00  0.00    -0.335 F  
HETATM   20  C   UNL     1     -10.659  17.158  67.423  1.00  0.00    -0.297 C  
HETATM   21  O   UNL     1     -10.311  16.372  65.235  1.00  0.00    -0.581 OA 
HETATM   22  C   UNL     1     -11.178  12.382  66.292  1.00  0.00    -0.317 A  
HETATM   23  C   UNL     1     -10.317  18.569  67.165  1.00  0.00    -0.399 C  
HETATM   24  C   UNL     1     -10.999  16.783  68.662  1.00  0.00    -0.298 C  
BRANCH  15  25
HETATM   25  C   UNL     1     -11.296  15.144  70.493  1.00  0.00    -0.298 C  
HETATM   26  C   UNL     1     -11.839  16.159  71.474  1.00  0.00    -0.528 C  
HETATM   27  C   UNL     1     -12.538  14.848  71.298  1.00  0.00    -0.402 C  
ENDBRANCH  15  25
ENDBRANCH   7  10
BRANCH   9  28
HETATM   28  C   UNL     1     -11.167   9.633  71.485  1.00  0.00    -0.307 C  
HETATM   29  H1  UNL     1     -10.820   8.515  73.199  1.00  0.00     0.000 HD 
HETATM   30  N   UNL     1     -11.205   8.394  72.263  1.00  0.00    -0.359 NA 
HETATM   31  H2  UNL     1     -10.740   7.633  71.768  1.00  0.00     0.000 HD 
ENDBRANCH   9  28
ENDBRANCH   3   5
ENDBRANCH   2   3
TORSDOF 5
ENDMDL
MODEL       12
REMARK 921   NORMALIZED FREE ENERGY PREDICTED BY IDOCK:   -6.50 KCAL/MOL
REMARK 922        TOTAL FREE ENERGY PREDICTED BY IDOCK:   -9.56 KCAL/MOL
REMARK 923 INTER-LIGAND FREE ENERGY PREDICTED BY IDOCK:   -8.77 KCAL/MOL
REMARK 924 INTRA-LIGAND FREE ENERGY PREDICTED BY IDOCK:   -0.79 KCAL/MOL
REMARK 927      BINDING AFFINITY PREDICTED BY RF-SCORE:    0.00 PKD
ROOT
HETATM    1  C   UNL     1      -5.623  18.870  66.178  1.00  0.00    -0.154 C  
HETATM    2  O   UNL     1      -6.877  18.311  65.807  1.00  0.00    -0.291 OA 
ENDROOT
BRANCH   2   3
HETATM    3  N   UNL     1      -7.848  19.323  65.821  1.00  0.00    -0.451 NA 
HETATM    4  H   UNL     1      -7.874  20.116  65.180  1.00  0.00     0.000 HD 
BRANCH   3   5
HETATM    5  C   UNL     1      -8.709  19.105  66.768  1.00  0.00    -0.307 C  
HETATM    6  C   UNL     1      -8.547  18.137  67.911  1.00  0.00    -0.254 C  
HETATM    7  N   UNL     1      -9.911  17.989  68.422  1.00  0.00    -0.346 NA 
HETATM    8  C   UNL     1     -10.823  18.975  67.814  1.00  0.00    -0.288 C  
HETATM    9  C   UNL     1     -10.001  19.869  66.871  1.00  0.00    -0.563 C  
BRANCH   7  10
HETATM   10  C   UNL     1     -10.378  16.694  68.626  1.00  0.00    -0.304 A  
HETATM   11  N   UNL     1     -10.967  16.414  69.814  1.00  0.00    -0.351 NA 
HETATM   12  O   UNL     1     -13.048  10.334  70.292  1.00  0.00    -0.186 OA 
HETATM   13  C   UNL     1     -11.436  15.171  70.085  1.00  0.00    -0.281 A  
HETATM   14  C   UNL     1     -11.331  14.146  69.148  1.00  0.00    -0.318 A  
HETATM   15  N   UNL     1     -12.064  14.907  71.334  1.00  0.00    -0.317 NA 
HETATM   16  C   UNL     1     -11.867  12.810  69.471  1.00  0.00    -0.316 C  
HETATM   17  O   UNL     1     -13.636  11.157  72.306  1.00  0.00    -0.244 OA 
HETATM   18  C   UNL     1     -10.760  14.409  67.907  1.00  0.00    -0.246 A  
HETATM   19  F   UNL     1      -9.756  15.938  66.443  1.00  0.00    -0.239 F  
HETATM   20  C   UNL     1     -12.496  12.592  70.793  1.00  0.00    -0.357 C  
HETATM   21  O   UNL     1     -11.802  11.886  68.661  1.00  0.00    -0.306 OA 
HETATM   22  C   UNL     1     -10.289  15.691  67.649  1.00  0.00    -0.275 A  
HETATM   23  C   UNL     1     -13.104  11.317  71.216  1.00  0.00    -0.219 C  
HETATM   24  C   UNL     1     -12.533  13.641  71.623  1.00  0.00    -0.173 C  
BRANCH  15  25
HETATM   25  C   UNL     1     -12.465  16.055  72.168  1.00  0.00    -0.454 C  
HETATM   26  C   UNL     1     -13.705  15.924  73.026  1.00  0.00    -0.558 C  
HETATM   27  C   UNL     1     -12.369  16.107  73.674  1.00  0.00    -0.667 C  
ENDBRANCH  15  25
ENDBRANCH   7  10
BRANCH   9  28
HETATM   28  C   UNL     1     -10.663  20.091  65.513  1.00  0.00    -0.154 C  
HETATM   29  H1  UNL     1     -11.476  18.979  63.960  1.00  0.00     0.000 HD 
HETATM   30  N   UNL     1     -11.034  18.831  64.867  1.00  0.00    -0.146 NA 
HETATM   31  H2  UNL     1     -11.623  18.264  65.477  1.00  0.00     0.000 HD 
ENDBRANCH   9  28
ENDBRANCH   3   5
ENDBRANCH   2   3
TORSDOF 5
ENDMDL
MODEL       13
REMARK 921   NORMALIZED FREE ENERGY PREDICTED BY IDOCK:   -6.50 KCAL/MOL
REMARK 922        TOTAL FREE ENERGY PREDICTED BY IDOCK:   -9.55 KCAL/MOL
REMARK 923 INTER-LIGAND FREE ENERGY PREDICTED BY IDOCK:   -8.47 KCAL/MOL
REMARK 924 INTRA-LIGAND FREE ENERGY PREDICTED BY IDOCK:   -1.08 KCAL/MOL
REMARK 927      BINDING AFFINITY PREDICTED BY RF-SCORE:    0.00 PKD
ROOT
HETATM    1  C   UNL     1     -10.430  19.891  67.136  1.00  0.00    -0.433 C  
HETATM    2  O   UNL     1     -10.776  18.515  67.047  1.00  0.00    -0.395 OA 
ENDROOT
BRANCH   2   3
HETATM    3  N   UNL     1     -10.194  17.973  65.892  1.00  0.00    -0.588 NA 
HETATM    4  H   UNL     1     -10.057  18.476  65.016  1.00  0.00     0.000 HD 
BRANCH   3   5
HETATM    5  C   UNL     1      -9.853  16.737  66.101  1.00  0.00    -0.309 C  
HETATM    6  C   UNL     1     -10.773  15.544  66.075  1.00  0.00    -0.326 C  
HETATM    7  N   UNL     1      -9.994  14.504  66.750  1.00  0.00    -0.257 NA 
HETATM    8  C   UNL     1      -8.598  14.931  66.963  1.00  0.00    -0.238 C  
HETATM    9  C   UNL     1      -8.425  16.328  66.346  1.00  0.00    -0.365 C  
BRANCH   7  10
HETATM   10  C   UNL     1     -10.629  13.789  67.761  1.00  0.00    -0.246 A  
HETATM   11  N   UNL     1     -10.490  12.441  67.764  1.00  0.00    -0.214 NA 
HETATM   12  O   UNL     1     -13.521   9.548  72.660  1.00  0.00    -0.369 OA 
HETATM   13  C   UNL     1     -11.089  11.680  68.713  1.00  0.00    -0.230 A  
HETATM   14  C   UNL     1     -11.860  12.262  69.716  1.00  0.00    -0.388 A  
HETATM   15  N   UNL     1     -10.915  10.268  68.703  1.00  0.00    -0.238 NA 
HETATM   16  C   UNL     1     -12.483  11.403  70.742  1.00  0.00    -0.365 C  
HETATM   17  O   UNL     1     -12.621   7.777  71.595  1.00  0.00    -0.314 OA 
HETATM   18  C   UNL     1     -11.996  13.645  69.760  1.00  0.00    -0.404 A  
HETATM   19  F   UNL     1     -11.494  15.742  68.840  1.00  0.00    -0.286 F  
HETATM   20  C   UNL     1     -12.279   9.939  70.671  1.00  0.00    -0.325 C  
HETATM   21  O   UNL     1     -13.160  11.887  71.649  1.00  0.00    -0.436 OA 
HETATM   22  C   UNL     1     -11.370  14.406  68.779  1.00  0.00    -0.273 A  
HETATM   23  C   UNL     1     -12.813   8.983  71.658  1.00  0.00    -0.359 C  
HETATM   24  C   UNL     1     -11.531   9.485  69.658  1.00  0.00     0.051 C  
BRANCH  15  25
HETATM   25  C   UNL     1      -9.847   9.703  67.858  1.00  0.00    -0.154 C  
HETATM   26  C   UNL     1      -9.784   8.202  67.682  1.00  0.00    -0.200 C  
HETATM   27  C   UNL     1     -10.056   9.077  66.500  1.00  0.00    -0.354 C  
ENDBRANCH  15  25
ENDBRANCH   7  10
BRANCH   9  28
HETATM   28  C   UNL     1      -7.681  17.305  67.253  1.00  0.00    -0.188 C  
HETATM   29  H1  UNL     1      -7.803  18.067  69.180  1.00  0.00     0.000 HD 
HETATM   30  N   UNL     1      -8.300  17.414  68.574  1.00  0.00    -0.266 NA 
HETATM   31  H2  UNL     1      -8.393  16.498  69.014  1.00  0.00     0.000 HD 
ENDBRANCH   9  28
ENDBRANCH   3   5
ENDBRANCH   2   3
TORSDOF 5
ENDMDL
MODEL       14
REMARK 921   NORMALIZED FREE ENERGY PREDICTED BY IDOCK:   -6.45 KCAL/MOL
REMARK 922        TOTAL FREE ENERGY PREDICTED BY IDOCK:   -9.49 KCAL/MOL
REMARK 923 INTER-LIGAND FREE ENERGY PREDICTED BY IDOCK:   -8.73 KCAL/MOL
REMARK 924 INTRA-LIGAND FREE ENERGY PREDICTED BY IDOCK:   -0.76 KCAL/MOL
REMARK 927      BINDING AFFINITY PREDICTED BY RF-SCORE:    0.00 PKD
ROOT
HETATM    1  C   UNL     1      -8.404   6.881  67.151  1.00  0.00    -0.121 C  
HETATM    2  O   UNL     1      -8.999   7.844  66.290  1.00  0.00    -0.156 OA 
ENDROOT
BRANCH   2   3
HETATM    3  N   UNL     1      -8.666   9.128  66.746  1.00  0.00    -0.126 NA 
HETATM    4  H   UNL     1      -7.732   9.423  67.030  1.00  0.00     0.000 HD 
BRANCH   3   5
HETATM    5  C   UNL     1      -9.720   9.888  66.753  1.00  0.00    -0.192 C  
HETATM    6  C   UNL     1     -10.103  10.889  65.695  1.00  0.00    -0.261 C  
HETATM    7  N   UNL     1     -11.103  11.722  66.366  1.00  0.00    -0.299 NA 
HETATM    8  C   UNL     1     -11.505  11.141  67.661  1.00  0.00    -0.250 C  
HETATM    9  C   UNL     1     -10.758   9.810  67.841  1.00  0.00    -0.312 C  
BRANCH   7  10
HETATM   10  C   UNL     1     -10.943  13.102  66.281  1.00  0.00    -0.280 A  
HETATM   11  N   UNL     1     -10.993  13.815  67.432  1.00  0.00    -0.280 NA 
HETATM   12  O   UNL     1     -10.128  20.144  66.580  1.00  0.00    -0.440 OA 
HETATM   13  C   UNL     1     -10.856  15.164  67.422  1.00  0.00    -0.302 A  
HETATM   14  C   UNL     1     -10.654  15.856  66.230  1.00  0.00    -0.301 A  
HETATM   15  N   UNL     1     -10.897  15.889  68.646  1.00  0.00    -0.274 NA 
HETATM   16  C   UNL     1     -10.493  17.322  66.261  1.00  0.00    -0.268 C  
HETATM   17  O   UNL     1     -10.412  20.038  68.812  1.00  0.00    -0.377 OA 
HETATM   18  C   UNL     1     -10.567  15.149  65.036  1.00  0.00    -0.439 A  
HETATM   19  F   UNL     1     -10.604  13.093  63.912  1.00  0.00    -0.401 F  
HETATM   20  C   UNL     1     -10.559  18.023  67.562  1.00  0.00    -0.402 C  
HETATM   21  O   UNL     1     -10.300  17.961  65.227  1.00  0.00    -0.470 OA 
HETATM   22  C   UNL     1     -10.707  13.766  65.069  1.00  0.00    -0.382 A  
HETATM   23  C   UNL     1     -10.372  19.476  67.727  1.00  0.00    -0.452 C  
HETATM   24  C   UNL     1     -10.770  17.264  68.645  1.00  0.00    -0.280 C  
BRANCH  15  25
HETATM   25  C   UNL     1     -10.774  15.135  69.907  1.00  0.00    -0.257 C  
HETATM   26  C   UNL     1     -11.339  15.746  71.171  1.00  0.00    -0.442 C  
HETATM   27  C   UNL     1     -11.920  14.475  70.637  1.00  0.00    -0.387 C  
ENDBRANCH  15  25
ENDBRANCH   7  10
BRANCH   9  28
HETATM   28  C   UNL     1     -10.144   9.640  69.229  1.00  0.00    -0.193 C  
HETATM   29  H1  UNL     1      -8.899  10.668  70.533  1.00  0.00     0.000 HD 
HETATM   30  N   UNL     1      -9.309  10.781  69.607  1.00  0.00    -0.384 NA 
HETATM   31  H2  UNL     1      -9.828  11.657  69.537  1.00  0.00     0.000 HD 
ENDBRANCH   9  28
ENDBRANCH   3   5
ENDBRANCH   2   3
TORSDOF 5
ENDMDL
MODEL       15
REMARK 921   NORMALIZED FREE ENERGY PREDICTED BY IDOCK:   -6.39 KCAL/MOL
REMARK 922        TOTAL FREE ENERGY PREDICTED BY IDOCK:   -9.41 KCAL/MOL
REMARK 923 INTER-LIGAND FREE ENERGY PREDICTED BY IDOCK:   -8.73 KCAL/MOL
REMARK 924 INTRA-LIGAND FREE ENERGY PREDICTED BY IDOCK:   -0.68 KCAL/MOL
REMARK 927      BINDING AFFINITY PREDICTED BY RF-SCORE:    0.00 PKD
ROOT
HETATM    1  C   UNL     1     -12.302  16.005  73.511  1.00  0.00    -0.562 C  
HETATM    2  O   UNL     1     -12.687  16.023  72.143  1.00  0.00    -0.449 OA 
ENDROOT
BRANCH   2   3
HETATM    3  N   UNL     1     -11.537  16.133  71.348  1.00  0.00    -0.509 NA 
HETATM    4  H   UNL     1     -10.645  16.515  71.661  1.00  0.00     0.000 HD 
BRANCH   3   5
HETATM    5  C   UNL     1     -11.772  15.676  70.155  1.00  0.00    -0.360 C  
HETATM    6  C   UNL     1     -12.501  14.401  69.818  1.00  0.00    -0.217 C  
HETATM    7  N   UNL     1     -12.139  14.166  68.419  1.00  0.00    -0.323 NA 
HETATM    8  C   UNL     1     -11.440  15.329  67.842  1.00  0.00    -0.316 C  
HETATM    9  C   UNL     1     -11.376  16.429  68.914  1.00  0.00    -0.272 C  
BRANCH   7  10
HETATM   10  C   UNL     1     -11.692  12.892  68.083  1.00  0.00    -0.352 A  
HETATM   11  N   UNL     1     -11.593  11.974  69.076  1.00  0.00    -0.288 NA 
HETATM   12  O   UNL     1      -9.562   6.201  67.057  1.00  0.00    -0.126 OA 
HETATM   13  C   UNL     1     -11.154  10.717  68.822  1.00  0.00    -0.265 A  
HETATM   14  C   UNL     1     -10.798  10.329  67.533  1.00  0.00    -0.355 A  
HETATM   15  N   UNL     1     -11.074   9.768  69.878  1.00  0.00    -0.249 NA 
HETATM   16  C   UNL     1     -10.340   8.947  67.291  1.00  0.00    -0.280 C  
HETATM   17  O   UNL     1      -9.820   5.827  69.263  1.00  0.00    -0.151 OA 
HETATM   18  C   UNL     1     -10.918  11.237  66.486  1.00  0.00    -0.303 A  
HETATM   19  F   UNL     1     -11.501  13.384  65.749  1.00  0.00    -0.311 F  
HETATM   20  C   UNL     1     -10.263   8.009  68.433  1.00  0.00    -0.239 C  
HETATM   21  O   UNL     1     -10.030   8.569  66.162  1.00  0.00    -0.239 OA 
HETATM   22  C   UNL     1     -11.373  12.520  66.769  1.00  0.00    -0.334 A  
HETATM   23  C   UNL     1      -9.862   6.595  68.313  1.00  0.00    -0.137 C  
HETATM   24  C   UNL     1     -10.617   8.489  69.631  1.00  0.00    -0.220 C  
BRANCH  15  25
HETATM   25  C   UNL     1     -11.757  10.078  71.147  1.00  0.00    -0.387 C  
HETATM   26  C   UNL     1     -13.216   9.705  71.290  1.00  0.00    -0.429 C  
HETATM   27  C   UNL     1     -12.194   9.057  72.170  1.00  0.00    -0.427 C  
ENDBRANCH  15  25
ENDBRANCH   7  10
BRANCH   9  28
HETATM   28  C   UNL     1     -10.000  17.080  69.035  1.00  0.00    -0.269 C  
HETATM   29  H1  UNL     1      -9.171  18.948  69.401  1.00  0.00     0.000 HD 
HETATM   30  N   UNL     1     -10.089  18.513  69.320  1.00  0.00    -0.364 NA 
HETATM   31  H2  UNL     1     -10.656  18.689  70.151  1.00  0.00     0.000 HD 
ENDBRANCH   9  28
ENDBRANCH   3   5
ENDBRANCH   2   3
TORSDOF 5
ENDMDL
MODEL       16
REMARK 921   NORMALIZED FREE ENERGY PREDICTED BY IDOCK:   -6.38 KCAL/MOL
REMARK 922        TOTAL FREE ENERGY PREDICTED BY IDOCK:   -9.40 KCAL/MOL
REMARK 923 INTER-LIGAND FREE ENERGY PREDICTED BY IDOCK:   -8.48 KCAL/MOL
REMARK 924 INTRA-LIGAND FREE ENERGY PREDICTED BY IDOCK:   -0.92 KCAL/MOL
REMARK 927      BINDING AFFINITY PREDICTED BY RF-SCORE:    0.00 PKD
ROOT
HETATM    1  C   UNL     1      -8.683   9.186  62.975  1.00  0.00    -0.158 C  
HETATM    2  O   UNL     1      -8.644  10.289  63.871  1.00  0.00    -0.168 OA 
ENDROOT
BRANCH   2   3
HETATM    3  N   UNL     1      -9.950  10.577  64.295  1.00  0.00    -0.337 NA 
HETATM    4  H   UNL     1     -10.681   9.882  64.448  1.00  0.00     0.000 HD 
BRANCH   3   5
HETATM    5  C   UNL     1     -10.095  11.857  64.463  1.00  0.00    -0.271 C  
HETATM    6  C   UNL     1      -9.326  12.719  65.431  1.00  0.00     0.312 C  
HETATM    7  N   UNL     1     -10.131  13.940  65.505  1.00  0.00    -0.312 NA 
HETATM    8  C   UNL     1     -11.189  13.951  64.477  1.00  0.00    -0.365 C  
HETATM    9  C   UNL     1     -11.047  12.673  63.632  1.00  0.00    -0.496 C  
BRANCH   7  10
HETATM   10  C   UNL     1     -10.436  14.425  66.773  1.00  0.00    -0.273 A  
HETATM   11  N   UNL     1     -11.069  13.590  67.633  1.00  0.00    -0.262 NA 
HETATM   12  O   UNL     1     -12.214  16.220  73.404  1.00  0.00    -0.491 OA 
HETATM   13  C   UNL     1     -11.407  14.000  68.881  1.00  0.00    -0.280 A  
HETATM   14  C   UNL     1     -11.108  15.288  69.318  1.00  0.00    -0.277 A  
HETATM   15  N   UNL     1     -12.056  13.099  69.771  1.00  0.00    -0.298 NA 
HETATM   16  C   UNL     1     -11.477  15.693  70.688  1.00  0.00    -0.375 C  
HETATM   17  O   UNL     1     -13.098  14.165  73.677  1.00  0.00    -0.349 OA 
HETATM   18  C   UNL     1     -10.432  16.159  68.470  1.00  0.00    -0.269 A  
HETATM   19  F   UNL     1      -9.425  16.560  66.392  1.00  0.00    -0.241 F  
HETATM   20  C   UNL     1     -12.164  14.717  71.562  1.00  0.00    -0.407 C  
HETATM   21  O   UNL     1     -11.216  16.819  71.109  1.00  0.00    -0.060 OA 
HETATM   22  C   UNL     1     -10.092  15.717  67.196  1.00  0.00    -0.251 A  
HETATM   23  C   UNL     1     -12.545  14.988  72.961  1.00  0.00    -0.437 C  
HETATM   24  C   UNL     1     -12.414  13.511  71.038  1.00  0.00    -0.369 C  
BRANCH  15  25
HETATM   25  C   UNL     1     -12.065  11.665  69.427  1.00  0.00    -0.263 C  
HETATM   26  C   UNL     1     -10.951  10.790  69.958  1.00  0.00    -0.280 C  
HETATM   27  C   UNL     1     -12.362  10.544  70.393  1.00  0.00    -0.409 C  
ENDBRANCH  15  25
ENDBRANCH   7  10
BRANCH   9  28
HETATM   28  C   UNL     1     -12.374  11.959  63.386  1.00  0.00    -0.462 C  
HETATM   29  H1  UNL     1     -14.275  11.843  64.211  1.00  0.00     0.000 HD 
HETATM   30  N   UNL     1     -13.389  12.320  64.376  1.00  0.00    -0.632 NA 
HETATM   31  H2  UNL     1     -13.517  13.332  64.420  1.00  0.00     0.000 HD 
ENDBRANCH   9  28
ENDBRANCH   3   5
ENDBRANCH   2   3
TORSDOF 5
ENDMDL
MODEL       17
REMARK 921   NORMALIZED FREE ENERGY PREDICTED BY IDOCK:   -6.37 KCAL/MOL
REMARK 922        TOTAL FREE ENERGY PREDICTED BY IDOCK:   -9.39 KCAL/MOL
REMARK 923 INTER-LIGAND FREE ENERGY PREDICTED BY IDOCK:   -8.69 KCAL/MOL
REMARK 924 INTRA-LIGAND FREE ENERGY PREDICTED BY IDOCK:   -0.69 KCAL/MOL
REMARK 927      BINDING AFFINITY PREDICTED BY RF-SCORE:    0.00 PKD
ROOT
HETATM    1  C   UNL     1      -8.052   8.874  63.074  1.00  0.00    -0.172 C  
HETATM    2  O   UNL     1      -8.987   9.911  62.807  1.00  0.00    -0.221 OA 
ENDROOT
BRANCH   2   3
HETATM    3  N   UNL     1      -9.910   9.973  63.862  1.00  0.00    -0.484 NA 
HETATM    4  H   UNL     1     -10.471   9.189  64.194  1.00  0.00     0.000 HD 
BRANCH   3   5
HETATM    5  C   UNL     1      -9.948  11.175  64.353  1.00  0.00    -0.301 C  
HETATM    6  C   UNL     1      -9.369  11.615  65.673  1.00  0.00    -0.180 C  
HETATM    7  N   UNL     1     -10.021  12.903  65.914  1.00  0.00    -0.275 NA 
HETATM    8  C   UNL     1     -10.763  13.361  64.724  1.00  0.00    -0.390 C  
HETATM    9  C   UNL     1     -10.551  12.331  63.602  1.00  0.00    -0.501 C  
BRANCH   7  10
HETATM   10  C   UNL     1     -10.592  13.104  67.167  1.00  0.00    -0.257 A  
HETATM   11  N   UNL     1     -10.288  14.250  67.824  1.00  0.00    -0.237 NA 
HETATM   12  O   UNL     1     -13.210  14.797  73.541  1.00  0.00    -0.544 OA 
HETATM   13  C   UNL     1     -10.800  14.506  69.053  1.00  0.00    -0.254 A  
HETATM   14  C   UNL     1     -11.658  13.602  69.674  1.00  0.00    -0.342 A  
HETATM   15  N   UNL     1     -10.477  15.723  69.715  1.00  0.00    -0.296 NA 
HETATM   16  C   UNL     1     -12.208  13.922  71.005  1.00  0.00    -0.342 C  
HETATM   17  O   UNL     1     -12.027  16.713  73.469  1.00  0.00    -0.440 OA 
HETATM   18  C   UNL     1     -12.014  12.431  69.013  1.00  0.00    -0.291 A  
HETATM   19  F   UNL     1     -11.844  11.066  67.116  1.00  0.00    -0.220 F  
HETATM   20  C   UNL     1     -11.825  15.197  71.651  1.00  0.00    -0.449 C  
HETATM   21  O   UNL     1     -12.979  13.151  71.576  1.00  0.00    -0.366 OA 
HETATM   22  C   UNL     1     -11.480  12.190  67.752  1.00  0.00    -0.332 A  
HETATM   23  C   UNL     1     -12.340  15.648  72.957  1.00  0.00    -0.463 C  
HETATM   24  C   UNL     1     -10.984  15.987  70.971  1.00  0.00    -0.053 C  
BRANCH  15  25
HETATM   25  C   UNL     1      -9.854  16.801  68.926  1.00  0.00    -0.264 C  
HETATM   26  C   UNL     1     -10.738  17.650  68.039  1.00  0.00    -0.333 C  
HETATM   27  C   UNL     1     -10.021  18.278  69.191  1.00  0.00    -0.202 C  
ENDBRANCH  15  25
ENDBRANCH   7  10
BRANCH   9  28
HETATM   28  C   UNL     1     -11.838  11.953  62.873  1.00  0.00     0.306 C  
HETATM   29  H1  UNL     1     -13.889  11.981  63.188  1.00  0.00     0.000 HD 
HETATM   30  N   UNL     1     -13.029  12.234  63.674  1.00  0.00    -0.792 NA 
HETATM   31  H2  UNL     1     -13.049  13.208  63.977  1.00  0.00     0.000 HD 
ENDBRANCH   9  28
ENDBRANCH   3   5
ENDBRANCH   2   3
TORSDOF 5
ENDMDL
MODEL       18
REMARK 921   NORMALIZED FREE ENERGY PREDICTED BY IDOCK:   -6.36 KCAL/MOL
REMARK 922        TOTAL FREE ENERGY PREDICTED BY IDOCK:   -9.38 KCAL/MOL
REMARK 923 INTER-LIGAND FREE ENERGY PREDICTED BY IDOCK:   -9.36 KCAL/MOL
REMARK 924 INTRA-LIGAND FREE ENERGY PREDICTED BY IDOCK:   -0.02 KCAL/MOL
REMARK 927      BINDING AFFINITY PREDICTED BY RF-SCORE:    0.00 PKD
ROOT
HETATM    1  C   UNL     1     -12.909  14.419  64.872  1.00  0.00    -0.041 C  
HETATM    2  O   UNL     1     -12.568  15.180  63.720  1.00  0.00    -0.752 OA 
ENDROOT
BRANCH   2   3
HETATM    3  N   UNL     1     -11.538  16.072  64.053  1.00  0.00    -1.278 NA 
HETATM    4  H   UNL     1     -11.508  17.055  63.784  1.00  0.00     0.000 HD 
BRANCH   3   5
HETATM    5  C   UNL     1     -10.628  15.464  64.753  1.00  0.00    -0.244 C  
HETATM    6  C   UNL     1     -10.323  13.989  64.726  1.00  0.00    -0.380 C  
HETATM    7  N   UNL     1      -9.537  13.786  65.944  1.00  0.00    -0.189 NA 
HETATM    8  C   UNL     1      -9.162  15.072  66.563  1.00  0.00    -0.290 C  
HETATM    9  C   UNL     1      -9.693  16.205  65.669  1.00  0.00    -0.239 C  
BRANCH   7  10
HETATM   10  C   UNL     1      -9.914  12.737  66.778  1.00  0.00    -0.237 A  
HETATM   11  N   UNL     1     -10.626  13.038  67.891  1.00  0.00    -0.225 NA 
HETATM   12  O   UNL     1     -12.220   7.878  71.407  1.00  0.00    -0.303 OA 
HETATM   13  C   UNL     1     -11.017  12.067  68.752  1.00  0.00    -0.239 A  
HETATM   14  C   UNL     1     -10.704  10.731  68.517  1.00  0.00    -0.245 A  
HETATM   15  N   UNL     1     -11.778  12.408  69.906  1.00  0.00    -0.298 NA 
HETATM   16  C   UNL     1     -11.160   9.700  69.469  1.00  0.00    -0.168 C  
HETATM   17  O   UNL     1     -13.134   9.538  72.626  1.00  0.00    -0.318 OA 
HETATM   18  C   UNL     1     -10.001  10.385  67.368  1.00  0.00    -0.226 A  
HETATM   19  F   UNL     1      -8.949  11.050  65.381  1.00  0.00    -0.189 F  
HETATM   20  C   UNL     1     -11.935  10.117  70.658  1.00  0.00    -0.423 C  
HETATM   21  O   UNL     1     -10.911   8.509  69.283  1.00  0.00    -0.175 OA 
HETATM   22  C   UNL     1      -9.612  11.396  66.496  1.00  0.00    -0.198 A  
HETATM   23  C   UNL     1     -12.481   9.179  71.657  1.00  0.00    -0.359 C  
HETATM   24  C   UNL     1     -12.170  11.427  70.795  1.00  0.00    -0.376 C  
BRANCH  15  25
HETATM   25  C   UNL     1     -12.382  13.752  69.970  1.00  0.00    -0.300 C  
HETATM   26  C   UNL     1     -13.227  14.105  71.174  1.00  0.00    -0.369 C  
HETATM   27  C   UNL     1     -11.955  14.849  70.915  1.00  0.00    -0.374 C  
ENDBRANCH  15  25
ENDBRANCH   7  10
BRANCH   9  28
HETATM   28  C   UNL     1     -10.391  17.317  66.449  1.00  0.00    -0.316 C  
HETATM   29  H1  UNL     1     -10.897  19.317  66.222  1.00  0.00     0.000 HD 
HETATM   30  N   UNL     1     -10.432  18.574  65.702  1.00  0.00    -0.608 NA 
HETATM   31  H2  UNL     1     -10.857  18.444  64.783  1.00  0.00     0.000 HD 
ENDBRANCH   9  28
ENDBRANCH   3   5
ENDBRANCH   2   3
TORSDOF 5
ENDMDL
MODEL       19
REMARK 921   NORMALIZED FREE ENERGY PREDICTED BY IDOCK:   -6.36 KCAL/MOL
REMARK 922        TOTAL FREE ENERGY PREDICTED BY IDOCK:   -9.38 KCAL/MOL
REMARK 923 INTER-LIGAND FREE ENERGY PREDICTED BY IDOCK:   -8.20 KCAL/MOL
REMARK 924 INTRA-LIGAND FREE ENERGY PREDICTED BY IDOCK:   -1.17 KCAL/MOL
REMARK 927      BINDING AFFINITY PREDICTED BY RF-SCORE:    0.00 PKD
ROOT
HETATM    1  C   UNL     1      -8.549  17.286  66.290  1.00  0.00    -0.229 C  
HETATM    2  O   UNL     1      -9.773  16.744  65.809  1.00  0.00    -0.504 OA 
ENDROOT
BRANCH   2   3
HETATM    3  N   UNL     1      -9.525  15.475  65.264  1.00  0.00    -0.295 NA 
HETATM    4  H   UNL     1      -8.878  15.285  64.499  1.00  0.00     0.000 HD 
BRANCH   3   5
HETATM    5  C   UNL     1     -10.238  14.578  65.876  1.00  0.00    -0.322 C  
HETATM    6  C   UNL     1      -9.732  13.564  66.868  1.00  0.00    -0.261 C  
HETATM    7  N   UNL     1     -10.817  12.583  66.929  1.00  0.00    -0.243 NA 
HETATM    8  C   UNL     1     -12.019  13.066  66.223  1.00  0.00    -0.414 C  
HETATM    9  C   UNL     1     -11.730  14.482  65.700  1.00  0.00    -0.335 C  
BRANCH   7  10
HETATM   10  C   UNL     1     -10.470  11.241  66.801  1.00  0.00    -0.248 A  
HETATM   11  N   UNL     1     -10.647  10.438  67.879  1.00  0.00    -0.213 NA 
HETATM   12  O   UNL     1      -8.990   4.301  66.820  1.00  0.00    -0.113 OA 
HETATM   13  C   UNL     1     -10.321   9.123  67.830  1.00  0.00    -0.245 A  
HETATM   14  C   UNL     1      -9.800   8.557  66.669  1.00  0.00    -0.342 A  
HETATM   15  N   UNL     1     -10.530   8.298  68.970  1.00  0.00    -0.217 NA 
HETATM   16  C   UNL     1      -9.472   7.118  66.647  1.00  0.00    -0.170 C  
HETATM   17  O   UNL     1      -9.657   4.209  68.970  1.00  0.00    -0.170 OA 
HETATM   18  C   UNL     1      -9.636   9.347  65.536  1.00  0.00    -0.328 A  
HETATM   19  F   UNL     1      -9.834  11.442  64.504  1.00  0.00    -0.244 F  
HETATM   20  C   UNL     1      -9.698   6.314  67.868  1.00  0.00    -0.123 C  
HETATM   21  O   UNL     1      -9.023   6.585  65.633  1.00  0.00    -0.106 OA 
HETATM   22  C   UNL     1      -9.980  10.692  65.608  1.00  0.00    -0.268 A  
HETATM   23  C   UNL     1      -9.450   4.863  67.958  1.00  0.00    -0.136 C  
HETATM   24  C   UNL     1     -10.190   6.960  68.932  1.00  0.00    -0.177 C  
BRANCH  15  25
HETATM   25  C   UNL     1     -11.377   8.817  70.059  1.00  0.00    -0.032 C  
HETATM   26  C   UNL     1     -11.480   8.014  71.338  1.00  0.00    -0.293 C  
HETATM   27  C   UNL     1     -10.864   9.378  71.364  1.00  0.00    -0.430 C  
ENDBRANCH  15  25
ENDBRANCH   7  10
BRANCH   9  28
HETATM   28  C   UNL     1     -12.166  14.696  64.252  1.00  0.00    -0.408 C  
HETATM   29  H1  UNL     1     -12.252  16.219  62.845  1.00  0.00     0.000 HD 
HETATM   30  N   UNL     1     -11.960  16.076  63.811  1.00  0.00    -1.339 NA 
HETATM   31  H2  UNL     1     -10.992  16.367  63.952  1.00  0.00     0.000 HD 
ENDBRANCH   9  28
ENDBRANCH   3   5
ENDBRANCH   2   3
TORSDOF 5
ENDMDL
MODEL       20
REMARK 921   NORMALIZED FREE ENERGY PREDICTED BY IDOCK:   -6.32 KCAL/MOL
REMARK 922        TOTAL FREE ENERGY PREDICTED BY IDOCK:   -9.32 KCAL/MOL
REMARK 923 INTER-LIGAND FREE ENERGY PREDICTED BY IDOCK:   -7.94 KCAL/MOL
REMARK 924 INTRA-LIGAND FREE ENERGY PREDICTED BY IDOCK:   -1.38 KCAL/MOL
REMARK 927      BINDING AFFINITY PREDICTED BY RF-SCORE:    0.00 PKD
ROOT
HETATM    1  C   UNL     1      -5.696   8.956  66.718  1.00  0.00    -0.048 C  
HETATM    2  O   UNL     1      -6.956   9.604  66.604  1.00  0.00    -0.083 OA 
ENDROOT
BRANCH   2   3
HETATM    3  N   UNL     1      -7.973   8.647  66.729  1.00  0.00    -0.094 NA 
HETATM    4  H   UNL     1      -7.821   7.644  66.831  1.00  0.00     0.000 HD 
BRANCH   3   5
HETATM    5  C   UNL     1      -9.137   9.224  66.697  1.00  0.00    -0.143 C  
HETATM    6  C   UNL     1      -9.721   9.984  65.535  1.00  0.00    -0.289 C  
HETATM    7  N   UNL     1     -10.817  10.739  66.145  1.00  0.00    -0.119 NA 
HETATM    8  C   UNL     1     -11.066  10.301  67.531  1.00  0.00    -0.232 C  
HETATM    9  C   UNL     1     -10.103   9.145  67.848  1.00  0.00    -0.246 C  
BRANCH   7  10
HETATM   10  C   UNL     1     -10.891  12.099  65.858  1.00  0.00    -0.278 A  
HETATM   11  N   UNL     1     -10.405  12.966  66.779  1.00  0.00    -0.243 NA 
HETATM   12  O   UNL     1     -10.876  19.143  65.005  1.00  0.00    -0.372 OA 
HETATM   13  C   UNL     1     -10.454  14.305  66.570  1.00  0.00    -0.287 A  
HETATM   14  C   UNL     1     -10.999  14.828  65.401  1.00  0.00    -0.365 A  
HETATM   15  N   UNL     1      -9.923  15.194  67.547  1.00  0.00    -0.225 NA 
HETATM   16  C   UNL     1     -11.020  16.290  65.201  1.00  0.00    -0.274 C  
HETATM   17  O   UNL     1      -9.917  19.343  67.034  1.00  0.00    -0.324 OA 
HETATM   18  C   UNL     1     -11.477  13.964  64.422  1.00  0.00    -0.376 A  
HETATM   19  F   UNL     1     -11.863  11.769  63.696  1.00  0.00    -0.480 F  
HETATM   20  C   UNL     1     -10.467  17.165  66.259  1.00  0.00    -0.260 C  
HETATM   21  O   UNL     1     -11.482  16.784  64.173  1.00  0.00    -1.171 OA 
HETATM   22  C   UNL     1     -11.414  12.595  64.655  1.00  0.00    -0.330 A  
HETATM   23  C   UNL     1     -10.393  18.635  66.158  1.00  0.00    -0.443 C  
HETATM   24  C   UNL     1      -9.979  16.559  67.348  1.00  0.00    -0.267 C  
BRANCH  15  25
HETATM   25  C   UNL     1      -9.062  14.634  68.605  1.00  0.00    -0.189 C  
HETATM   26  C   UNL     1      -7.573  14.546  68.352  1.00  0.00    -0.122 C  
HETATM   27  C   UNL     1      -8.090  15.429  69.443  1.00  0.00    -0.249 C  
ENDBRANCH  15  25
ENDBRANCH   7  10
BRANCH   9  28
HETATM   28  C   UNL     1      -9.415   9.282  69.204  1.00  0.00    -0.157 C  
HETATM   29  H1  UNL     1      -8.138  10.584  70.195  1.00  0.00     0.000 HD 
HETATM   30  N   UNL     1      -8.598  10.492  69.290  1.00  0.00    -0.270 NA 
HETATM   31  H2  UNL     1      -9.146  11.324  69.068  1.00  0.00     0.000 HD 
ENDBRANCH   9  28
ENDBRANCH   3   5
ENDBRANCH   2   3
TORSDOF 5
ENDMDL
MODEL       21
REMARK 921   NORMALIZED FREE ENERGY PREDICTED BY IDOCK:   -6.28 KCAL/MOL
REMARK 922        TOTAL FREE ENERGY PREDICTED BY IDOCK:   -9.28 KCAL/MOL
REMARK 923 INTER-LIGAND FREE ENERGY PREDICTED BY IDOCK:   -8.06 KCAL/MOL
REMARK 924 INTRA-LIGAND FREE ENERGY PREDICTED BY IDOCK:   -1.22 KCAL/MOL
REMARK 927      BINDING AFFINITY PREDICTED BY RF-SCORE:    0.00 PKD
ROOT
HETATM    1  C   UNL     1     -10.075   7.033  66.982  1.00  0.00    -0.229 C  
HETATM    2  O   UNL     1     -10.916   6.014  67.508  1.00  0.00    -0.304 OA 
ENDROOT
BRANCH   2   3
HETATM    3  N   UNL     1     -10.264   5.398  68.586  1.00  0.00    -0.184 NA 
HETATM    4  H   UNL     1      -9.611   4.619  68.505  1.00  0.00     0.000 HD 
BRANCH   3   5
HETATM    5  C   UNL     1     -10.612   5.963  69.702  1.00  0.00    -0.313 C  
HETATM    6  C   UNL     1     -11.902   6.695  69.964  1.00  0.00    -0.238 C  
HETATM    7  N   UNL     1     -11.618   7.452  71.184  1.00  0.00    -0.278 NA 
HETATM    8  C   UNL     1     -10.337   7.040  71.787  1.00  0.00    -0.197 C  
HETATM    9  C   UNL     1      -9.754   5.899  70.937  1.00  0.00    -0.211 C  
BRANCH   7  10
HETATM   10  C   UNL     1     -11.944   8.806  71.184  1.00  0.00    -0.285 A  
HETATM   11  N   UNL     1     -11.330   9.603  70.276  1.00  0.00    -0.257 NA 
HETATM   12  O   UNL     1     -13.193  15.765  70.581  1.00  0.00    -0.501 OA 
HETATM   13  C   UNL     1     -11.591  10.933  70.227  1.00  0.00    -0.334 A  
HETATM   14  C   UNL     1     -12.502  11.517  71.103  1.00  0.00    -0.442 A  
HETATM   15  N   UNL     1     -10.946  11.746  69.254  1.00  0.00    -0.210 NA 
HETATM   16  C   UNL     1     -12.773  12.965  71.009  1.00  0.00    -0.251 C  
HETATM   17  O   UNL     1     -11.690  15.845  68.905  1.00  0.00    -0.390 OA 
HETATM   18  C   UNL     1     -13.172  10.721  72.026  1.00  0.00    -0.466 A  
HETATM   19  F   UNL     1     -13.556   8.597  72.940  1.00  0.00    -0.342 F  
HETATM   20  C   UNL     1     -12.060  13.761  69.986  1.00  0.00    -0.416 C  
HETATM   21  O   UNL     1     -13.581  13.510  71.759  1.00  0.00    -0.380 OA 
HETATM   22  C   UNL     1     -12.891   9.360  72.057  1.00  0.00    -0.414 A  
HETATM   23  C   UNL     1     -12.275  15.204  69.766  1.00  0.00    -0.289 C  
HETATM   24  C   UNL     1     -11.196  13.102  69.204  1.00  0.00    -0.247 C  
BRANCH  15  25
HETATM   25  C   UNL     1     -10.255  11.078  68.135  1.00  0.00    -0.182 C  
HETATM   26  C   UNL     1     -10.995  10.910  66.827  1.00  0.00    -0.248 C  
HETATM   27  C   UNL     1      -9.769  11.765  66.882  1.00  0.00    -0.212 C  
ENDBRANCH  15  25
ENDBRANCH   7  10
BRANCH   9  28
HETATM   28  C   UNL     1      -8.268   6.069  70.629  1.00  0.00    -0.120 C  
HETATM   29  H1  UNL     1      -6.993   7.448  69.746  1.00  0.00     0.000 HD 
HETATM   30  N   UNL     1      -7.985   7.334  69.951  1.00  0.00    -0.119 NA 
HETATM   31  H2  UNL     1      -8.345   8.127  70.484  1.00  0.00     0.000 HD 
ENDBRANCH   9  28
ENDBRANCH   3   5
ENDBRANCH   2   3
TORSDOF 5
ENDMDL
MODEL       22
REMARK 921   NORMALIZED FREE ENERGY PREDICTED BY IDOCK:   -6.27 KCAL/MOL
REMARK 922        TOTAL FREE ENERGY PREDICTED BY IDOCK:   -9.25 KCAL/MOL
REMARK 923 INTER-LIGAND FREE ENERGY PREDICTED BY IDOCK:   -8.17 KCAL/MOL
REMARK 924 INTRA-LIGAND FREE ENERGY PREDICTED BY IDOCK:   -1.08 KCAL/MOL
REMARK 927      BINDING AFFINITY PREDICTED BY RF-SCORE:    0.00 PKD
ROOT
HETATM    1  C   UNL     1     -12.627  12.280  63.331  1.00  0.00    -0.427 C  
HETATM    2  O   UNL     1     -12.596  13.354  64.263  1.00  0.00    -0.623 OA 
ENDROOT
BRANCH   2   3
HETATM    3  N   UNL     1     -12.652  12.830  65.563  1.00  0.00    -0.610 NA 
HETATM    4  H   UNL     1     -13.505  12.532  66.036  1.00  0.00     0.000 HD 
BRANCH   3   5
HETATM    5  C   UNL     1     -11.460  12.780  66.076  1.00  0.00    -0.350 C  
HETATM    6  C   UNL     1     -10.545  11.583  66.085  1.00  0.00    -0.266 C  
HETATM    7  N   UNL     1      -9.550  11.928  67.102  1.00  0.00    -0.184 NA 
HETATM    8  C   UNL     1      -9.678  13.335  67.524  1.00  0.00    -0.224 C  
HETATM    9  C   UNL     1     -10.802  13.982  66.698  1.00  0.00    -0.297 C  
BRANCH   7  10
HETATM   10  C   UNL     1      -9.271  10.969  68.072  1.00  0.00    -0.159 A  
HETATM   11  N   UNL     1     -10.184  10.783  69.056  1.00  0.00    -0.206 NA 
HETATM   12  O   UNL     1      -8.526   6.203  73.276  1.00  0.00    -0.117 OA 
HETATM   13  C   UNL     1      -9.973   9.873  70.039  1.00  0.00    -0.254 A  
HETATM   14  C   UNL     1      -8.816   9.100  70.064  1.00  0.00    -0.193 A  
HETATM   15  N   UNL     1     -10.955   9.685  71.052  1.00  0.00    -0.341 NA 
HETATM   16  C   UNL     1      -8.628   8.109  71.141  1.00  0.00    -0.133 C  
HETATM   17  O   UNL     1     -10.508   6.873  74.113  1.00  0.00    -0.357 OA 
HETATM   18  C   UNL     1      -7.874   9.245  69.051  1.00  0.00    -0.082 A  
HETATM   19  F   UNL     1      -7.204  10.301  67.069  1.00  0.00    -0.086 F  
HETATM   20  C   UNL     1      -9.677   7.969  72.176  1.00  0.00    -0.283 C  
HETATM   21  O   UNL     1      -7.622   7.401  71.185  1.00  0.00    -0.080 OA 
HETATM   22  C   UNL     1      -8.111  10.181  68.051  1.00  0.00    -0.112 A  
HETATM   23  C   UNL     1      -9.625   6.988  73.275  1.00  0.00    -0.177 C  
HETATM   24  C   UNL     1     -10.743   8.771  72.064  1.00  0.00    -0.347 C  
BRANCH  15  25
HETATM   25  C   UNL     1     -12.298  10.253  70.835  1.00  0.00    -0.373 C  
HETATM   26  C   UNL     1     -13.397   9.901  71.814  1.00  0.00    -0.501 C  
HETATM   27  C   UNL     1     -12.937  11.319  71.692  1.00  0.00    -0.537 C  
ENDBRANCH  15  25
ENDBRANCH   7  10
BRANCH   9  28
HETATM   28  C   UNL     1     -11.770  14.814  67.536  1.00  0.00    -0.348 C  
HETATM   29  H1  UNL     1     -13.005  14.596  69.190  1.00  0.00     0.000 HD 
HETATM   30  N   UNL     1     -12.359  14.041  68.630  1.00  0.00    -0.503 NA 
HETATM   31  H2  UNL     1     -11.636  13.616  69.213  1.00  0.00     0.000 HD 
ENDBRANCH   9  28
ENDBRANCH   3   5
ENDBRANCH   2   3
TORSDOF 5
ENDMDL
MODEL       23
REMARK 921   NORMALIZED FREE ENERGY PREDICTED BY IDOCK:   -6.26 KCAL/MOL
REMARK 922        TOTAL FREE ENERGY PREDICTED BY IDOCK:   -9.24 KCAL/MOL
REMARK 923 INTER-LIGAND FREE ENERGY PREDICTED BY IDOCK:   -8.46 KCAL/MOL
REMARK 924 INTRA-LIGAND FREE ENERGY PREDICTED BY IDOCK:   -0.78 KCAL/MOL
REMARK 927      BINDING AFFINITY PREDICTED BY RF-SCORE:    0.00 PKD
ROOT
HETATM    1  C   UNL     1      -9.236   4.498  69.953  1.00  0.00    -0.127 C  
HETATM    2  O   UNL     1      -8.222   5.475  69.749  1.00  0.00    -0.098 OA 
ENDROOT
BRANCH   2   3
HETATM    3  N   UNL     1      -7.978   5.596  68.374  1.00  0.00    -0.099 NA 
HETATM    4  H   UNL     1      -7.382   4.974  67.829  1.00  0.00     0.000 HD 
BRANCH   3   5
HETATM    5  C   UNL     1      -8.622   6.618  67.894  1.00  0.00    -0.118 C  
HETATM    6  C   UNL     1      -8.495   8.046  68.355  1.00  0.00    -0.127 C  
HETATM    7  N   UNL     1      -9.683   8.688  67.792  1.00  0.00    -0.159 NA 
HETATM    8  C   UNL     1     -10.376   7.798  66.841  1.00  0.00    -0.326 C  
HETATM    9  C   UNL     1      -9.567   6.496  66.729  1.00  0.00    -0.198 C  
BRANCH   7  10
HETATM   10  C   UNL     1     -10.454   9.467  68.650  1.00  0.00    -0.211 A  
HETATM   11  N   UNL     1     -10.591  10.784  68.358  1.00  0.00    -0.184 NA 
HETATM   12  O   UNL     1     -14.299  13.983  72.546  1.00  0.00    -0.626 OA 
HETATM   13  C   UNL     1     -11.318  11.603  69.156  1.00  0.00    -0.283 A  
HETATM   14  C   UNL     1     -11.952  11.116  70.296  1.00  0.00    -0.460 A  
HETATM   15  N   UNL     1     -11.459  12.978  68.819  1.00  0.00    -0.276 NA 
HETATM   16  C   UNL     1     -12.748  12.034  71.132  1.00  0.00    -0.266 C  
HETATM   17  O   UNL     1     -13.729  15.631  71.119  1.00  0.00    -0.591 OA 
HETATM   18  C   UNL     1     -11.857   9.763  70.607  1.00  0.00    -0.360 A  
HETATM   19  F   UNL     1     -11.037   7.634  70.073  1.00  0.00    -0.255 F  
HETATM   20  C   UNL     1     -12.847  13.457  70.739  1.00  0.00    -0.221 C  
HETATM   21  O   UNL     1     -13.331  11.633  72.139  1.00  0.00    -0.491 OA 
HETATM   22  C   UNL     1     -11.108   8.940  69.773  1.00  0.00    -0.089 A  
HETATM   23  C   UNL     1     -13.645  14.461  71.467  1.00  0.00    -0.370 C  
HETATM   24  C   UNL     1     -12.188  13.822  69.632  1.00  0.00    -0.305 C  
BRANCH  15  25
HETATM   25  C   UNL     1     -11.076  13.405  67.460  1.00  0.00    -0.274 C  
HETATM   26  C   UNL     1     -12.137  14.016  66.570  1.00  0.00    -0.488 C  
HETATM   27  C   UNL     1     -10.964  14.839  67.001  1.00  0.00    -0.324 C  
ENDBRANCH  15  25
ENDBRANCH   7  10
BRANCH   9  28
HETATM   28  C   UNL     1     -10.429   5.237  66.801  1.00  0.00    -0.273 C  
HETATM   29  H1  UNL     1     -11.828   4.223  65.652  1.00  0.00     0.000 HD 
HETATM   30  N   UNL     1     -11.252   5.063  65.604  1.00  0.00    -0.868 NA 
HETATM   31  H2  UNL     1     -10.681   5.071  64.759  1.00  0.00     0.000 HD 
ENDBRANCH   9  28
ENDBRANCH   3   5
ENDBRANCH   2   3
TORSDOF 5
ENDMDL
MODEL       24
REMARK 921   NORMALIZED FREE ENERGY PREDICTED BY IDOCK:   -6.19 KCAL/MOL
REMARK 922        TOTAL FREE ENERGY PREDICTED BY IDOCK:   -9.15 KCAL/MOL
REMARK 923 INTER-LIGAND FREE ENERGY PREDICTED BY IDOCK:   -8.17 KCAL/MOL
REMARK 924 INTRA-LIGAND FREE ENERGY PREDICTED BY IDOCK:   -0.98 KCAL/MOL
REMARK 927      BINDING AFFINITY PREDICTED BY RF-SCORE:    0.00 PKD
ROOT
HETATM    1  C   UNL     1     -12.258  14.600  64.248  1.00  0.00    -0.408 C  
HETATM    2  O   UNL     1     -13.100  13.862  65.125  1.00  0.00    -0.773 OA 
ENDROOT
BRANCH   2   3
HETATM    3  N   UNL     1     -12.859  14.277  66.443  1.00  0.00    -0.363 NA 
HETATM    4  H   UNL     1     -13.405  14.977  66.944  1.00  0.00     0.000 HD 
BRANCH   3   5
HETATM    5  C   UNL     1     -11.838  13.640  66.933  1.00  0.00    -0.411 C  
HETATM    6  C   UNL     1     -11.622  12.149  66.903  1.00  0.00    -0.341 C  
HETATM    7  N   UNL     1     -10.577  11.940  67.906  1.00  0.00    -0.195 NA 
HETATM    8  C   UNL     1      -9.999  13.221  68.356  1.00  0.00    -0.226 C  
HETATM    9  C   UNL     1     -10.673  14.354  67.563  1.00  0.00    -0.271 C  
BRANCH   7  10
HETATM   10  C   UNL     1     -10.793  10.944  68.853  1.00  0.00    -0.219 A  
HETATM   11  N   UNL     1     -10.194   9.744  68.655  1.00  0.00    -0.183 NA 
HETATM   12  O   UNL     1     -11.400   5.462  73.318  1.00  0.00    -0.289 OA 
HETATM   13  C   UNL     1     -10.369   8.724  69.532  1.00  0.00    -0.213 A  
HETATM   14  C   UNL     1     -11.164   8.882  70.664  1.00  0.00    -0.308 A  
HETATM   15  N   UNL     1      -9.718   7.479  69.309  1.00  0.00    -0.162 NA 
HETATM   16  C   UNL     1     -11.318   7.755  71.605  1.00  0.00    -0.253 C  
HETATM   17  O   UNL     1     -10.080   4.256  71.947  1.00  0.00    -0.181 OA 
HETATM   18  C   UNL     1     -11.766  10.111  70.913  1.00  0.00    -0.468 A  
HETATM   19  F   UNL     1     -12.142  12.330  70.261  1.00  0.00    -0.374 F  
HETATM   20  C   UNL     1     -10.628   6.479  71.312  1.00  0.00    -0.268 C  
HETATM   21  O   UNL     1     -12.002   7.865  72.621  1.00  0.00    -0.327 OA 
HETATM   22  C   UNL     1     -11.571  11.143  70.003  1.00  0.00    -0.338 A  
HETATM   23  C   UNL     1     -10.670   5.298  72.194  1.00  0.00    -0.209 C  
HETATM   24  C   UNL     1      -9.900   6.432  70.190  1.00  0.00    -0.167 C  
BRANCH  15  25
HETATM   25  C   UNL     1      -8.634   7.429  68.311  1.00  0.00    -0.124 C  
HETATM   26  C   UNL     1      -7.203   7.502  68.797  1.00  0.00    -0.082 C  
HETATM   27  C   UNL     1      -7.692   6.265  68.112  1.00  0.00    -0.104 C  
ENDBRANCH  15  25
ENDBRANCH   7  10
BRANCH   9  28
HETATM   28  C   UNL     1     -11.106  15.531  68.435  1.00  0.00    -0.315 C  
HETATM   29  H1  UNL     1     -12.647  16.048  69.726  1.00  0.00     0.000 HD 
HETATM   30  N   UNL     1     -12.357  15.262  69.144  1.00  0.00    -0.603 NA 
HETATM   31  H2  UNL     1     -12.295  14.402  69.689  1.00  0.00     0.000 HD 
ENDBRANCH   9  28
ENDBRANCH   3   5
ENDBRANCH   2   3
TORSDOF 5
ENDMDL
MODEL       25
REMARK 921   NORMALIZED FREE ENERGY PREDICTED BY IDOCK:   -6.17 KCAL/MOL
REMARK 922        TOTAL FREE ENERGY PREDICTED BY IDOCK:   -9.13 KCAL/MOL
REMARK 923 INTER-LIGAND FREE ENERGY PREDICTED BY IDOCK:   -7.95 KCAL/MOL
REMARK 924 INTRA-LIGAND FREE ENERGY PREDICTED BY IDOCK:   -1.18 KCAL/MOL
REMARK 927      BINDING AFFINITY PREDICTED BY RF-SCORE:    0.00 PKD
ROOT
HETATM    1  C   UNL     1     -10.980   4.093  73.328  1.00  0.00    -0.232 C  
HETATM    2  O   UNL     1     -11.762   5.260  73.110  1.00  0.00    -0.268 OA 
ENDROOT
BRANCH   2   3
HETATM    3  N   UNL     1     -11.461   5.778  71.841  1.00  0.00    -0.218 NA 
HETATM    4  H   UNL     1     -11.481   5.244  70.973  1.00  0.00     0.000 HD 
BRANCH   3   5
HETATM    5  C   UNL     1     -11.153   7.037  71.933  1.00  0.00    -0.242 C  
HETATM    6  C   UNL     1     -12.065   8.199  71.639  1.00  0.00    -0.304 C  
HETATM    7  N   UNL     1     -11.140   9.327  71.506  1.00  0.00    -0.354 NA 
HETATM    8  C   UNL     1      -9.777   8.957  71.931  1.00  0.00    -0.279 C  
HETATM    9  C   UNL     1      -9.808   7.501  72.423  1.00  0.00    -0.219 C  
BRANCH   7  10
HETATM   10  C   UNL     1     -11.286  10.142  70.388  1.00  0.00    -0.326 A  
HETATM   11  N   UNL     1     -10.697   9.743  69.234  1.00  0.00    -0.218 NA 
HETATM   12  O   UNL     1     -11.697  13.772  64.304  1.00  0.00    -0.394 OA 
HETATM   13  C   UNL     1     -10.790  10.494  68.109  1.00  0.00    -0.253 A  
HETATM   14  C   UNL     1     -11.497  11.694  68.103  1.00  0.00    -0.382 A  
HETATM   15  N   UNL     1     -10.176  10.046  66.906  1.00  0.00    -0.227 NA 
HETATM   16  C   UNL     1     -11.589  12.476  66.855  1.00  0.00    -0.370 C  
HETATM   17  O   UNL     1     -10.425  12.190  63.326  1.00  0.00    -0.432 OA 
HETATM   18  C   UNL     1     -12.139  12.115  69.263  1.00  0.00    -0.234 A  
HETATM   19  F   UNL     1     -12.672  11.736  71.513  1.00  0.00    -0.453 F  
HETATM   20  C   UNL     1     -10.917  11.966  65.639  1.00  0.00    -0.353 C  
HETATM   21  O   UNL     1     -12.217  13.533  66.814  1.00  0.00    -0.390 OA 
HETATM   22  C   UNL     1     -12.034  11.329  70.404  1.00  0.00    -0.380 A  
HETATM   23  C   UNL     1     -10.972  12.633  64.326  1.00  0.00    -0.366 C  
HETATM   24  C   UNL     1     -10.254  10.809  65.759  1.00  0.00    -0.257 C  
BRANCH  15  25
HETATM   25  C   UNL     1      -9.726   8.643  66.834  1.00  0.00    -0.214 C  
HETATM   26  C   UNL     1      -8.799   8.240  65.709  1.00  0.00    -0.194 C  
HETATM   27  C   UNL     1      -8.324   8.166  67.126  1.00  0.00    -0.120 C  
ENDBRANCH  15  25
ENDBRANCH   7  10
BRANCH   9  28
HETATM   28  C   UNL     1      -8.660   6.652  71.881  1.00  0.00    -0.124 C  
HETATM   29  H1  UNL     1      -7.981   5.897  70.071  1.00  0.00     0.000 HD 
HETATM   30  N   UNL     1      -8.747   6.465  70.433  1.00  0.00    -0.145 NA 
HETATM   31  H2  UNL     1      -8.805   7.360  69.948  1.00  0.00     0.000 HD 
ENDBRANCH   9  28
ENDBRANCH   3   5
ENDBRANCH   2   3
TORSDOF 5
ENDMDL
MODEL       26
REMARK 921   NORMALIZED FREE ENERGY PREDICTED BY IDOCK:   -6.12 KCAL/MOL
REMARK 922        TOTAL FREE ENERGY PREDICTED BY IDOCK:   -9.07 KCAL/MOL
REMARK 923 INTER-LIGAND FREE ENERGY PREDICTED BY IDOCK:   -7.79 KCAL/MOL
REMARK 924 INTRA-LIGAND FREE ENERGY PREDICTED BY IDOCK:   -1.28 KCAL/MOL
REMARK 927      BINDING AFFINITY PREDICTED BY RF-SCORE:    0.00 PKD
ROOT
HETATM    1  C   UNL     1      -6.123   6.506  65.072  1.00  0.00    -0.037 C  
HETATM    2  O   UNL     1      -7.444   7.031  65.093  1.00  0.00    -0.083 OA 
ENDROOT
BRANCH   2   3
HETATM    3  N   UNL     1      -7.385   8.399  65.396  1.00  0.00    -0.082 NA 
HETATM    4  H   UNL     1      -6.525   8.927  65.546  1.00  0.00     0.000 HD 
BRANCH   3   5
HETATM    5  C   UNL     1      -8.584   8.896  65.460  1.00  0.00    -0.168 C  
HETATM    6  C   UNL     1      -9.241   9.769  64.423  1.00  0.00    -0.245 C  
HETATM    7  N   UNL     1     -10.369  10.358  65.145  1.00  0.00    -0.261 NA 
HETATM    8  C   UNL     1     -10.559   9.718  66.461  1.00  0.00    -0.080 C  
HETATM    9  C   UNL     1      -9.517   8.596  66.601  1.00  0.00    -0.267 C  
BRANCH   7  10
HETATM   10  C   UNL     1     -10.536  11.737  65.051  1.00  0.00    -0.288 A  
HETATM   11  N   UNL     1      -9.939  12.511  65.990  1.00  0.00    -0.254 NA 
HETATM   12  O   UNL     1     -10.907  18.823  65.121  1.00  0.00    -0.523 OA 
HETATM   13  C   UNL     1     -10.068  13.860  65.965  1.00  0.00    -0.313 A  
HETATM   14  C   UNL     1     -10.812  14.491  64.972  1.00  0.00    -0.425 A  
HETATM   15  N   UNL     1      -9.418  14.652  66.953  1.00  0.00    -0.236 NA 
HETATM   16  C   UNL     1     -10.917  15.963  64.968  1.00  0.00    -0.412 C  
HETATM   17  O   UNL     1      -9.640  18.827  66.984  1.00  0.00    -0.289 OA 
HETATM   18  C   UNL     1     -11.412  13.727  63.976  1.00  0.00    -0.244 A  
HETATM   19  F   UNL     1     -11.833  11.619  63.044  1.00  0.00    -0.422 F  
HETATM   20  C   UNL     1     -10.231  16.732  66.030  1.00  0.00    -0.361 C  
HETATM   21  O   UNL     1     -11.557  16.552  64.098  1.00  0.00    -1.052 OA 
HETATM   22  C   UNL     1     -11.264  12.346  64.019  1.00  0.00    -0.396 A  
HETATM   23  C   UNL     1     -10.226  18.205  66.110  1.00  0.00    -0.367 C  
HETATM   24  C   UNL     1      -9.553  16.026  66.943  1.00  0.00    -0.226 C  
BRANCH  15  25
HETATM   25  C   UNL     1      -8.378  14.016  67.783  1.00  0.00    -0.176 C  
HETATM   26  C   UNL     1      -6.936  14.418  67.565  1.00  0.00    -0.182 C  
HETATM   27  C   UNL     1      -7.598  14.706  68.875  1.00  0.00    -0.139 C  
ENDBRANCH  15  25
ENDBRANCH   7  10
BRANCH   9  28
HETATM   28  C   UNL     1      -8.810   8.590  67.954  1.00  0.00    -0.137 C  
HETATM   29  H1  UNL     1      -7.508   7.394  69.042  1.00  0.00     0.000 HD 
HETATM   30  N   UNL     1      -7.980   7.398  68.138  1.00  0.00    -0.121 NA 
HETATM   31  H2  UNL     1      -7.314   7.291  67.373  1.00  0.00     0.000 HD 
ENDBRANCH   9  28
ENDBRANCH   3   5
ENDBRANCH   2   3
TORSDOF 5
ENDMDL
MODEL       27
REMARK 921   NORMALIZED FREE ENERGY PREDICTED BY IDOCK:   -6.10 KCAL/MOL
REMARK 922        TOTAL FREE ENERGY PREDICTED BY IDOCK:   -9.04 KCAL/MOL
REMARK 923 INTER-LIGAND FREE ENERGY PREDICTED BY IDOCK:   -7.78 KCAL/MOL
REMARK 924 INTRA-LIGAND FREE ENERGY PREDICTED BY IDOCK:   -1.26 KCAL/MOL
REMARK 927      BINDING AFFINITY PREDICTED BY RF-SCORE:    0.00 PKD
ROOT
HETATM    1  C   UNL     1      -7.631   8.206  66.610  1.00  0.00    -0.093 C  
HETATM    2  O   UNL     1      -7.899   8.151  68.006  1.00  0.00    -0.117 OA 
ENDROOT
BRANCH   2   3
HETATM    3  N   UNL     1      -8.283   6.845  68.343  1.00  0.00    -0.120 NA 
HETATM    4  H   UNL     1      -7.827   5.997  68.006  1.00  0.00     0.000 HD 
BRANCH   3   5
HETATM    5  C   UNL     1      -9.303   6.873  69.148  1.00  0.00    -0.140 C  
HETATM    6  C   UNL     1     -10.623   7.549  68.887  1.00  0.00    -0.169 C  
HETATM    7  N   UNL     1     -11.231   7.624  70.216  1.00  0.00    -0.250 NA 
HETATM    8  C   UNL     1     -10.469   6.834  71.202  1.00  0.00    -0.214 C  
HETATM    9  C   UNL     1      -9.304   6.150  70.467  1.00  0.00    -0.173 C  
BRANCH   7  10
HETATM   10  C   UNL     1     -11.747   8.854  70.613  1.00  0.00    -0.179 A  
HETATM   11  N   UNL     1     -11.374   9.951  69.910  1.00  0.00    -0.241 NA 
HETATM   12  O   UNL     1     -14.060  15.409  72.038  1.00  0.00    -0.494 OA 
HETATM   13  C   UNL     1     -11.830  11.183  70.247  1.00  0.00    -0.366 A  
HETATM   14  C   UNL     1     -12.700  11.356  71.321  1.00  0.00    -0.498 A  
HETATM   15  N   UNL     1     -11.436  12.318  69.484  1.00  0.00    -0.269 NA 
HETATM   16  C   UNL     1     -13.188  12.710  71.648  1.00  0.00    -0.298 C  
HETATM   17  O   UNL     1     -12.806  16.176  70.331  1.00  0.00    -0.163 OA 
HETATM   18  C   UNL     1     -13.126  10.246  72.043  1.00  0.00    -0.529 A  
HETATM   19  F   UNL     1     -13.080   7.926  72.370  1.00  0.00    -0.244 F  
HETATM   20  C   UNL     1     -12.731  13.853  70.828  1.00  0.00    -0.383 C  
HETATM   21  O   UNL     1     -13.967  12.895  72.583  1.00  0.00    -0.589 OA 
HETATM   22  C   UNL     1     -12.649   8.993  71.678  1.00  0.00    -0.348 A  
HETATM   23  C   UNL     1     -13.179  15.244  71.028  1.00  0.00    -0.484 C  
HETATM   24  C   UNL     1     -11.885  13.577  69.828  1.00  0.00    -0.329 C  
BRANCH  15  25
HETATM   25  C   UNL     1     -10.800  12.089  68.174  1.00  0.00    -0.221 C  
HETATM   26  C   UNL     1     -11.557  12.485  66.926  1.00  0.00    -0.436 C  
HETATM   27  C   UNL     1     -10.273  13.173  67.265  1.00  0.00    -0.243 C  
ENDBRANCH  15  25
ENDBRANCH   7  10
BRANCH   9  28
HETATM   28  C   UNL     1      -7.971   6.265  71.203  1.00  0.00    -0.116 C  
HETATM   29  H1  UNL     1      -6.545   7.704  71.656  1.00  0.00     0.000 HD 
HETATM   30  N   UNL     1      -7.436   7.627  71.165  1.00  0.00    -0.077 NA 
HETATM   31  H2  UNL     1      -8.114   8.300  71.522  1.00  0.00     0.000 HD 
ENDBRANCH   9  28
ENDBRANCH   3   5
ENDBRANCH   2   3
TORSDOF 5
ENDMDL
MODEL       28
REMARK 921   NORMALIZED FREE ENERGY PREDICTED BY IDOCK:   -6.09 KCAL/MOL
REMARK 922        TOTAL FREE ENERGY PREDICTED BY IDOCK:   -9.03 KCAL/MOL
REMARK 923 INTER-LIGAND FREE ENERGY PREDICTED BY IDOCK:   -7.68 KCAL/MOL
REMARK 924 INTRA-LIGAND FREE ENERGY PREDICTED BY IDOCK:   -1.35 KCAL/MOL
REMARK 927      BINDING AFFINITY PREDICTED BY RF-SCORE:    0.00 PKD
ROOT
HETATM    1  C   UNL     1      -9.460   4.203  69.114  1.00  0.00    -0.178 C  
HETATM    2  O   UNL     1     -10.374   5.177  69.600  1.00  0.00    -0.264 OA 
ENDROOT
BRANCH   2   3
HETATM    3  N   UNL     1     -10.653   4.907  70.948  1.00  0.00    -0.088 NA 
HETATM    4  H   UNL     1     -10.572   3.991  71.389  1.00  0.00     0.000 HD 
BRANCH   3   5
HETATM    5  C   UNL     1     -11.030   5.993  71.553  1.00  0.00    -0.277 C  
HETATM    6  C   UNL     1     -12.127   6.925  71.108  1.00  0.00    -0.381 C  
HETATM    7  N   UNL     1     -11.870   8.141  71.880  1.00  0.00    -0.297 NA 
HETATM    8  C   UNL     1     -10.844   7.914  72.916  1.00  0.00    -0.386 C  
HETATM    9  C   UNL     1     -10.427   6.435  72.859  1.00  0.00    -0.243 C  
BRANCH   7  10
HETATM   10  C   UNL     1     -11.850   9.346  71.184  1.00  0.00    -0.338 A  
HETATM   11  N   UNL     1     -11.039   9.436  70.101  1.00  0.00    -0.243 NA 
HETATM   12  O   UNL     1     -11.324  15.152  67.138  1.00  0.00    -0.338 OA 
HETATM   13  C   UNL     1     -10.962  10.583  69.382  1.00  0.00    -0.250 A  
HETATM   14  C   UNL     1     -11.717  11.700  69.730  1.00  0.00    -0.425 A  
HETATM   15  N   UNL     1     -10.115  10.647  68.240  1.00  0.00    -0.153 NA 
HETATM   16  C   UNL     1     -11.619  12.925  68.914  1.00  0.00    -0.315 C  
HETATM   17  O   UNL     1      -9.814  14.072  65.861  1.00  0.00    -0.304 OA 
HETATM   18  C   UNL     1     -12.582  11.629  70.817  1.00  0.00    -0.365 A  
HETATM   19  F   UNL     1     -13.499  10.380  72.575  1.00  0.00    -0.441 F  
HETATM   20  C   UNL     1     -10.710  12.937  67.746  1.00  0.00    -0.238 C  
HETATM   21  O   UNL     1     -12.283  13.925  69.187  1.00  0.00    -0.356 OA 
HETATM   22  C   UNL     1     -12.648  10.443  71.538  1.00  0.00    -0.439 A  
HETATM   23  C   UNL     1     -10.557  14.084  66.832  1.00  0.00    -0.280 C  
HETATM   24  C   UNL     1     -10.021  11.814  67.509  1.00  0.00    -0.192 C  
BRANCH  15  25
HETATM   25  C   UNL     1      -9.588   9.384  67.691  1.00  0.00    -0.134 C  
HETATM   26  C   UNL     1     -10.446   8.607  66.718  1.00  0.00    -0.298 C  
HETATM   27  C   UNL     1      -9.141   9.179  66.264  1.00  0.00    -0.222 C  
ENDBRANCH  15  25
ENDBRANCH   7  10
BRANCH   9  28
HETATM   28  C   UNL     1      -8.915   6.228  72.909  1.00  0.00    -0.124 C  
HETATM   29  H1  UNL     1      -7.257   6.447  71.679  1.00  0.00     0.000 HD 
HETATM   30  N   UNL     1      -8.267   6.585  71.647  1.00  0.00    -0.112 NA 
HETATM   31  H2  UNL     1      -8.500   7.539  71.369  1.00  0.00     0.000 HD 
ENDBRANCH   9  28
ENDBRANCH   3   5
ENDBRANCH   2   3
TORSDOF 5
ENDMDL
MODEL       29
REMARK 921   NORMALIZED FREE ENERGY PREDICTED BY IDOCK:   -6.08 KCAL/MOL
REMARK 922        TOTAL FREE ENERGY PREDICTED BY IDOCK:   -9.01 KCAL/MOL
REMARK 923 INTER-LIGAND FREE ENERGY PREDICTED BY IDOCK:   -7.69 KCAL/MOL
REMARK 924 INTRA-LIGAND FREE ENERGY PREDICTED BY IDOCK:   -1.32 KCAL/MOL
REMARK 927      BINDING AFFINITY PREDICTED BY RF-SCORE:    0.00 PKD
ROOT
HETATM    1  C   UNL     1     -10.440   7.645  73.060  1.00  0.00    -0.356 C  
HETATM    2  O   UNL     1      -9.732   8.160  71.939  1.00  0.00    -0.171 OA 
ENDROOT
BRANCH   2   3
HETATM    3  N   UNL     1      -8.586   7.380  71.727  1.00  0.00    -0.114 NA 
HETATM    4  H   UNL     1      -8.000   6.992  72.466  1.00  0.00     0.000 HD 
BRANCH   3   5
HETATM    5  C   UNL     1      -8.380   7.224  70.454  1.00  0.00    -0.130 C  
HETATM    6  C   UNL     1      -7.856   8.268  69.504  1.00  0.00    -0.103 C  
HETATM    7  N   UNL     1      -8.193   7.724  68.187  1.00  0.00    -0.123 NA 
HETATM    8  C   UNL     1      -8.667   6.330  68.286  1.00  0.00    -0.115 C  
HETATM    9  C   UNL     1      -8.595   5.905  69.762  1.00  0.00    -0.129 C  
BRANCH   7  10
HETATM   10  C   UNL     1      -8.828   8.576  67.289  1.00  0.00    -0.130 A  
HETATM   11  N   UNL     1      -9.624   9.549  67.797  1.00  0.00    -0.132 NA 
HETATM   12  O   UNL     1     -12.296  13.305  63.293  1.00  0.00    -0.721 OA 
HETATM   13  C   UNL     1     -10.282  10.408  66.980  1.00  0.00    -0.225 A  
HETATM   14  C   UNL     1     -10.156  10.320  65.596  1.00  0.00    -0.341 A  
HETATM   15  N   UNL     1     -11.099  11.431  67.538  1.00  0.00    -0.262 NA 
HETATM   16  C   UNL     1     -10.875  11.282  64.739  1.00  0.00    -0.244 C  
HETATM   17  O   UNL     1     -13.136  14.214  65.175  1.00  0.00    -0.757 OA 
HETATM   18  C   UNL     1      -9.322   9.353  65.045  1.00  0.00    -0.258 A  
HETATM   19  F   UNL     1      -7.839   7.565  65.359  1.00  0.00    -0.089 F  
HETATM   20  C   UNL     1     -11.722  12.315  65.377  1.00  0.00    -0.424 C  
HETATM   21  O   UNL     1     -10.774  11.240  63.514  1.00  0.00    -0.379 OA 
HETATM   22  C   UNL     1      -8.654   8.484  65.900  1.00  0.00    -0.163 A  
HETATM   23  C   UNL     1     -12.454  13.356  64.632  1.00  0.00    -0.331 C  
HETATM   24  C   UNL     1     -11.782  12.302  66.714  1.00  0.00    -0.342 C  
BRANCH  15  25
HETATM   25  C   UNL     1     -10.963  11.723  68.977  1.00  0.00    -0.227 C  
HETATM   26  C   UNL     1     -11.831  12.807  69.577  1.00  0.00    -0.379 C  
HETATM   27  C   UNL     1     -11.992  11.391  70.030  1.00  0.00    -0.442 C  
ENDBRANCH  15  25
ENDBRANCH   7  10
BRANCH   9  28
HETATM   28  C   UNL     1      -9.850   5.183  70.248  1.00  0.00    -0.225 C  
HETATM   29  H1  UNL     1     -11.901   5.487  70.343  1.00  0.00     0.000 HD 
HETATM   30  N   UNL     1     -11.063   5.968  70.018  1.00  0.00    -0.377 NA 
HETATM   31  H2  UNL     1     -11.148   6.237  69.037  1.00  0.00     0.000 HD 
ENDBRANCH   9  28
ENDBRANCH   3   5
ENDBRANCH   2   3
TORSDOF 5
ENDMDL
MODEL       30
REMARK 921   NORMALIZED FREE ENERGY PREDICTED BY IDOCK:   -6.06 KCAL/MOL
REMARK 922        TOTAL FREE ENERGY PREDICTED BY IDOCK:   -8.99 KCAL/MOL
REMARK 923 INTER-LIGAND FREE ENERGY PREDICTED BY IDOCK:   -8.73 KCAL/MOL
REMARK 924 INTRA-LIGAND FREE ENERGY PREDICTED BY IDOCK:   -0.26 KCAL/MOL
REMARK 927      BINDING AFFINITY PREDICTED BY RF-SCORE:    0.00 PKD
ROOT
HETATM    1  C   UNL     1     -12.434  16.036  73.386  1.00  0.00    -0.558 C  
HETATM    2  O   UNL     1     -11.629  15.463  72.363  1.00  0.00    -0.439 OA 
ENDROOT
BRANCH   2   3
HETATM    3  N   UNL     1     -11.695  16.278  71.224  1.00  0.00    -0.624 NA 
HETATM    4  H   UNL     1     -11.550  17.288  71.218  1.00  0.00     0.000 HD 
BRANCH   3   5
HETATM    5  C   UNL     1     -11.968  15.561  70.176  1.00  0.00    -0.366 C  
HETATM    6  C   UNL     1     -12.654  14.220  70.170  1.00  0.00    -0.282 C  
HETATM    7  N   UNL     1     -12.353  13.693  68.838  1.00  0.00    -0.168 NA 
HETATM    8  C   UNL     1     -11.737  14.722  67.979  1.00  0.00    -0.333 C  
HETATM    9  C   UNL     1     -11.670  16.034  68.779  1.00  0.00    -0.302 C  
BRANCH   7  10
HETATM   10  C   UNL     1     -11.865  12.391  68.763  1.00  0.00    -0.311 A  
HETATM   11  N   UNL     1     -11.362  11.973  67.576  1.00  0.00    -0.296 NA 
HETATM   12  O   UNL     1      -9.145   5.923  67.706  1.00  0.00    -0.112 OA 
HETATM   13  C   UNL     1     -10.879  10.714  67.428  1.00  0.00    -0.296 A  
HETATM   14  C   UNL     1     -10.880   9.817  68.493  1.00  0.00    -0.227 A  
HETATM   15  N   UNL     1     -10.343  10.304  66.176  1.00  0.00    -0.215 NA 
HETATM   16  C   UNL     1     -10.332   8.461  68.299  1.00  0.00    -0.199 C  
HETATM   17  O   UNL     1      -8.740   6.491  65.564  1.00  0.00    -0.136 OA 
HETATM   18  C   UNL     1     -11.360  10.226  69.733  1.00  0.00    -0.334 A  
HETATM   19  F   UNL     1     -12.293  11.911  71.068  1.00  0.00    -0.435 F  
HETATM   20  C   UNL     1      -9.801   8.086  66.970  1.00  0.00    -0.295 C  
HETATM   21  O   UNL     1     -10.306   7.648  69.223  1.00  0.00    -0.209 OA 
HETATM   22  C   UNL     1     -11.848  11.521  69.863  1.00  0.00    -0.355 A  
HETATM   23  C   UNL     1      -9.190   6.780  66.663  1.00  0.00    -0.159 C  
HETATM   24  C   UNL     1      -9.860   9.021  66.013  1.00  0.00    -0.242 C  
BRANCH  15  25
HETATM   25  C   UNL     1     -10.042  11.342  65.173  1.00  0.00    -0.271 C  
HETATM   26  C   UNL     1      -9.783  10.913  63.746  1.00  0.00    -0.354 C  
HETATM   27  C   UNL     1     -10.969  11.768  64.061  1.00  0.00    -0.451 C  
ENDBRANCH  15  25
ENDBRANCH   7  10
BRANCH   9  28
HETATM   28  C   UNL     1     -10.321  16.741  68.673  1.00  0.00    -0.318 C  
HETATM   29  H1  UNL     1      -9.503  18.622  68.991  1.00  0.00     0.000 HD 
HETATM   30  N   UNL     1     -10.404  18.149  69.062  1.00  0.00    -0.443 NA 
HETATM   31  H2  UNL     1     -10.802  18.252  69.995  1.00  0.00     0.000 HD 
ENDBRANCH   9  28
ENDBRANCH   3   5
ENDBRANCH   2   3
TORSDOF 5
ENDMDL
MODEL       31
REMARK 921   NORMALIZED FREE ENERGY PREDICTED BY IDOCK:   -6.04 KCAL/MOL
REMARK 922        TOTAL FREE ENERGY PREDICTED BY IDOCK:   -8.97 KCAL/MOL
REMARK 923 INTER-LIGAND FREE ENERGY PREDICTED BY IDOCK:   -8.71 KCAL/MOL
REMARK 924 INTRA-LIGAND FREE ENERGY PREDICTED BY IDOCK:   -0.26 KCAL/MOL
REMARK 927      BINDING AFFINITY PREDICTED BY RF-SCORE:    0.00 PKD
ROOT
HETATM    1  C   UNL     1     -12.695  16.206  73.749  1.00  0.00    -0.572 C  
HETATM    2  O   UNL     1     -11.612  15.934  72.868  1.00  0.00    -0.392 OA 
ENDROOT
BRANCH   2   3
HETATM    3  N   UNL     1     -11.902  16.479  71.609  1.00  0.00    -0.641 NA 
HETATM    4  H   UNL     1     -11.925  17.477  71.396  1.00  0.00     0.000 HD 
BRANCH   3   5
HETATM    5  C   UNL     1     -12.139  15.531  70.754  1.00  0.00    -0.390 C  
HETATM    6  C   UNL     1     -13.048  14.349  70.966  1.00  0.00    -0.353 C  
HETATM    7  N   UNL     1     -12.648  13.422  69.905  1.00  0.00    -0.073 NA 
HETATM    8  C   UNL     1     -11.732  14.067  68.945  1.00  0.00    -0.340 C  
HETATM    9  C   UNL     1     -11.550  15.534  69.369  1.00  0.00    -0.366 C  
BRANCH   7  10
HETATM   10  C   UNL     1     -12.399  12.103  70.272  1.00  0.00    -0.191 A  
HETATM   11  N   UNL     1     -11.618  11.357  69.453  1.00  0.00    -0.292 NA 
HETATM   12  O   UNL     1     -10.663   5.347  71.576  1.00  0.00    -0.239 OA 
HETATM   13  C   UNL     1     -11.342  10.061  69.743  1.00  0.00    -0.228 A  
HETATM   14  C   UNL     1     -11.848   9.461  70.893  1.00  0.00    -0.365 A  
HETATM   15  N   UNL     1     -10.507   9.303  68.875  1.00  0.00    -0.214 NA 
HETATM   16  C   UNL     1     -11.514   8.053  71.184  1.00  0.00    -0.276 C  
HETATM   17  O   UNL     1      -9.489   5.324  69.654  1.00  0.00    -0.125 OA 
HETATM   18  C   UNL     1     -12.627  10.209  71.770  1.00  0.00    -0.500 A  
HETATM   19  F   UNL     1     -13.632  12.254  72.316  1.00  0.00    -0.589 F  
HETATM   20  C   UNL     1     -10.652   7.311  70.237  1.00  0.00    -0.243 C  
HETATM   21  O   UNL     1     -11.934   7.497  72.198  1.00  0.00    -0.290 OA 
HETATM   22  C   UNL     1     -12.894  11.536  71.455  1.00  0.00    -0.384 A  
HETATM   23  C   UNL     1     -10.215   5.918  70.438  1.00  0.00    -0.213 C  
HETATM   24  C   UNL     1     -10.231   7.980  69.156  1.00  0.00    -0.217 C  
BRANCH  15  25
HETATM   25  C   UNL     1      -9.718  10.026  67.861  1.00  0.00    -0.146 C  
HETATM   26  C   UNL     1      -8.523   9.331  67.247  1.00  0.00    -0.125 C  
HETATM   27  C   UNL     1      -9.691   9.697  66.388  1.00  0.00    -0.285 C  
ENDBRANCH  15  25
ENDBRANCH   7  10
BRANCH   9  28
HETATM   28  C   UNL     1     -10.095  15.996  69.349  1.00  0.00    -0.271 C  
HETATM   29  H1  UNL     1      -8.235  15.361  70.015  1.00  0.00     0.000 HD 
HETATM   30  N   UNL     1      -9.207  15.053  70.028  1.00  0.00    -0.389 NA 
HETATM   31  H2  UNL     1      -9.301  14.113  69.642  1.00  0.00     0.000 HD 
ENDBRANCH   9  28
ENDBRANCH   3   5
ENDBRANCH   2   3
TORSDOF 5
ENDMDL
MODEL       32
REMARK 921   NORMALIZED FREE ENERGY PREDICTED BY IDOCK:   -6.02 KCAL/MOL
REMARK 922        TOTAL FREE ENERGY PREDICTED BY IDOCK:   -8.94 KCAL/MOL
REMARK 923 INTER-LIGAND FREE ENERGY PREDICTED BY IDOCK:   -8.29 KCAL/MOL
REMARK 924 INTRA-LIGAND FREE ENERGY PREDICTED BY IDOCK:   -0.65 KCAL/MOL
REMARK 927      BINDING AFFINITY PREDICTED BY RF-SCORE:    0.00 PKD
ROOT
HETATM    1  C   UNL     1     -13.278  13.212  64.873  1.00  0.00     0.305 C  
HETATM    2  O   UNL     1     -12.580  12.868  63.683  1.00  0.00    -0.686 OA 
ENDROOT
BRANCH   2   3
HETATM    3  N   UNL     1     -11.472  13.716  63.545  1.00  0.00    -0.537 NA 
HETATM    4  H   UNL     1     -11.321  14.359  62.768  1.00  0.00     0.000 HD 
BRANCH   3   5
HETATM    5  C   UNL     1     -10.664  13.565  64.551  1.00  0.00    -0.418 C  
HETATM    6  C   UNL     1     -10.232  12.254  65.155  1.00  0.00    -0.279 C  
HETATM    7  N   UNL     1      -9.681  12.647  66.453  1.00  0.00    -0.255 NA 
HETATM    8  C   UNL     1      -9.545  14.113  66.558  1.00  0.00    -0.296 C  
HETATM    9  C   UNL     1      -9.991  14.731  65.223  1.00  0.00    -0.331 C  
BRANCH   7  10
HETATM   10  C   UNL     1     -10.117  11.942  67.571  1.00  0.00    -0.193 A  
HETATM   11  N   UNL     1      -9.410  10.847  67.942  1.00  0.00    -0.153 NA 
HETATM   12  O   UNL     1     -11.735   7.942  73.204  1.00  0.00    -0.264 OA 
HETATM   13  C   UNL     1      -9.785  10.106  69.014  1.00  0.00    -0.206 A  
HETATM   14  C   UNL     1     -10.902  10.452  69.770  1.00  0.00    -0.342 A  
HETATM   15  N   UNL     1      -9.017   8.969  69.393  1.00  0.00    -0.142 NA 
HETATM   16  C   UNL     1     -11.270   9.632  70.940  1.00  0.00    -0.352 C  
HETATM   17  O   UNL     1      -9.978   6.620  72.715  1.00  0.00    -0.168 OA 
HETATM   18  C   UNL     1     -11.630  11.589  69.434  1.00  0.00    -0.388 A  
HETATM   19  F   UNL     1     -11.926  13.440  68.027  1.00  0.00    -0.348 F  
HETATM   20  C   UNL     1     -10.442   8.452  71.276  1.00  0.00    -0.273 C  
HETATM   21  O   UNL     1     -12.244   9.918  71.635  1.00  0.00    -0.382 OA 
HETATM   22  C   UNL     1     -11.227  12.336  68.332  1.00  0.00    -0.266 A  
HETATM   23  C   UNL     1     -10.681   7.581  72.441  1.00  0.00    -0.263 C  
HETATM   24  C   UNL     1      -9.398   8.203  70.476  1.00  0.00    -0.155 C  
BRANCH  15  25
HETATM   25  C   UNL     1      -7.674   8.809  68.806  1.00  0.00    -0.097 C  
HETATM   26  C   UNL     1      -6.476   8.837  69.729  1.00  0.00    -0.038 C  
HETATM   27  C   UNL     1      -6.798   7.590  68.967  1.00  0.00    -0.064 C  
ENDBRANCH  15  25
ENDBRANCH   7  10
BRANCH   9  28
HETATM   28  C   UNL     1     -10.921  15.931  65.390  1.00  0.00    -0.285 C  
HETATM   29  H1  UNL     1     -11.856  17.369  64.221  1.00  0.00     0.000 HD 
HETATM   30  N   UNL     1     -11.235  16.567  64.110  1.00  0.00    -1.413 NA 
HETATM   31  H2  UNL     1     -11.618  15.893  63.447  1.00  0.00     0.000 HD 
ENDBRANCH   9  28
ENDBRANCH   3   5
ENDBRANCH   2   3
TORSDOF 5
ENDMDL
MODEL       33
REMARK 921   NORMALIZED FREE ENERGY PREDICTED BY IDOCK:   -5.94 KCAL/MOL
REMARK 922        TOTAL FREE ENERGY PREDICTED BY IDOCK:   -8.83 KCAL/MOL
REMARK 923 INTER-LIGAND FREE ENERGY PREDICTED BY IDOCK:   -7.55 KCAL/MOL
REMARK 924 INTRA-LIGAND FREE ENERGY PREDICTED BY IDOCK:   -1.28 KCAL/MOL
REMARK 927      BINDING AFFINITY PREDICTED BY RF-SCORE:    0.00 PKD
ROOT
HETATM    1  C   UNL     1     -11.969   7.926  71.186  1.00  0.00    -0.285 C  
HETATM    2  O   UNL     1     -11.163   8.466  70.146  1.00  0.00    -0.233 OA 
ENDROOT
BRANCH   2   3
HETATM    3  N   UNL     1      -9.903   7.851  70.182  1.00  0.00    -0.184 NA 
HETATM    4  H   UNL     1      -9.672   7.023  70.731  1.00  0.00     0.000 HD 
BRANCH   3   5
HETATM    5  C   UNL     1      -9.071   8.490  69.414  1.00  0.00    -0.150 C  
HETATM    6  C   UNL     1      -8.393   9.797  69.730  1.00  0.00    -0.178 C  
HETATM    7  N   UNL     1      -7.914  10.252  68.424  1.00  0.00    -0.104 NA 
HETATM    8  C   UNL     1      -8.057   9.198  67.401  1.00  0.00    -0.107 C  
HETATM    9  C   UNL     1      -8.625   7.943  68.085  1.00  0.00    -0.123 C  
BRANCH   7  10
HETATM   10  C   UNL     1      -8.198  11.566  68.064  1.00  0.00    -0.143 A  
HETATM   11  N   UNL     1      -9.072  11.767  67.047  1.00  0.00    -0.181 NA 
HETATM   12  O   UNL     1     -10.154  17.990  65.772  1.00  0.00    -0.564 OA 
HETATM   13  C   UNL     1      -9.387  13.020  66.637  1.00  0.00    -0.241 A  
HETATM   14  C   UNL     1      -8.827  14.137  67.250  1.00  0.00    -0.227 A  
HETATM   15  N   UNL     1     -10.320  13.205  65.578  1.00  0.00    -0.286 NA 
HETATM   16  C   UNL     1      -9.206  15.486  66.787  1.00  0.00    -0.248 C  
HETATM   17  O   UNL     1     -11.468  16.995  64.236  1.00  0.00    -1.124 OA 
HETATM   18  C   UNL     1      -7.951  13.966  68.317  1.00  0.00    -0.148 A  
HETATM   19  F   UNL     1      -6.811  12.518  69.764  1.00  0.00    -0.060 F  
HETATM   20  C   UNL     1     -10.170  15.615  65.671  1.00  0.00    -0.402 C  
HETATM   21  O   UNL     1      -8.739  16.494  67.316  1.00  0.00    -0.182 OA 
HETATM   22  C   UNL     1      -7.644  12.672  68.724  1.00  0.00    -0.022 A  
HETATM   23  C   UNL     1     -10.658  16.905  65.148  1.00  0.00    -0.069 C  
HETATM   24  C   UNL     1     -10.637  14.476  65.145  1.00  0.00    -0.410 C  
BRANCH  15  25
HETATM   25  C   UNL     1     -11.146  12.054  65.168  1.00  0.00    -0.318 C  
HETATM   26  C   UNL     1     -12.294  12.295  64.213  1.00  0.00    -0.519 C  
HETATM   27  C   UNL     1     -11.146  11.433  63.792  1.00  0.00    -0.417 C  
ENDBRANCH  15  25
ENDBRANCH   7  10
BRANCH   9  28
HETATM   28  C   UNL     1      -9.763   7.289  67.305  1.00  0.00    -0.158 C  
HETATM   29  H1  UNL     1     -11.659   7.758  66.601  1.00  0.00     0.000 HD 
HETATM   30  N   UNL     1     -10.898   8.195  67.122  1.00  0.00    -0.465 NA 
HETATM   31  H2  UNL     1     -10.606   9.069  66.685  1.00  0.00     0.000 HD 
ENDBRANCH   9  28
ENDBRANCH   3   5
ENDBRANCH   2   3
TORSDOF 5
ENDMDL
MODEL       34
REMARK 921   NORMALIZED FREE ENERGY PREDICTED BY IDOCK:   -5.92 KCAL/MOL
REMARK 922        TOTAL FREE ENERGY PREDICTED BY IDOCK:   -8.80 KCAL/MOL
REMARK 923 INTER-LIGAND FREE ENERGY PREDICTED BY IDOCK:   -7.82 KCAL/MOL
REMARK 924 INTRA-LIGAND FREE ENERGY PREDICTED BY IDOCK:   -0.98 KCAL/MOL
REMARK 927      BINDING AFFINITY PREDICTED BY RF-SCORE:    0.00 PKD
ROOT
HETATM    1  C   UNL     1     -10.784  19.617  66.814  1.00  0.00    -0.447 C  
HETATM    2  O   UNL     1     -10.876  18.202  66.712  1.00  0.00    -0.258 OA 
ENDROOT
BRANCH   2   3
HETATM    3  N   UNL     1      -9.891  17.745  65.824  1.00  0.00    -0.543 NA 
HETATM    4  H   UNL     1      -9.529  18.275  65.031  1.00  0.00     0.000 HD 
BRANCH   3   5
HETATM    5  C   UNL     1      -9.508  16.549  66.157  1.00  0.00    -0.315 C  
HETATM    6  C   UNL     1     -10.355  15.304  66.128  1.00  0.00    -0.302 C  
HETATM    7  N   UNL     1      -9.596  14.362  66.953  1.00  0.00    -0.246 NA 
HETATM    8  C   UNL     1      -8.254  14.887  67.272  1.00  0.00    -0.209 C  
HETATM    9  C   UNL     1      -8.094  16.247  66.573  1.00  0.00    -0.337 C  
BRANCH   7  10
HETATM   10  C   UNL     1     -10.292  13.681  67.947  1.00  0.00    -0.249 A  
HETATM   11  N   UNL     1      -9.895  12.419  68.244  1.00  0.00    -0.223 NA 
HETATM   12  O   UNL     1     -13.341   9.676  72.948  1.00  0.00    -0.046 OA 
HETATM   13  C   UNL     1     -10.535  11.693  69.194  1.00  0.00    -0.064 A  
HETATM   14  C   UNL     1     -11.615  12.223  69.895  1.00  0.00    -0.278 A  
HETATM   15  N   UNL     1     -10.090  10.376  69.499  1.00  0.00    -0.233 NA 
HETATM   16  C   UNL     1     -12.276  11.409  70.933  1.00  0.00    -0.344 C  
HETATM   17  O   UNL     1     -11.891   8.025  72.449  1.00  0.00    -0.345 OA 
HETATM   18  C   UNL     1     -12.026  13.526  69.636  1.00  0.00    -0.397 A  
HETATM   19  F   UNL     1     -11.749  15.516  68.430  1.00  0.00    -0.334 F  
HETATM   20  C   UNL     1     -11.777  10.041  71.196  1.00  0.00    -0.472 C  
HETATM   21  O   UNL     1     -13.224  11.852  71.580  1.00  0.00    -0.412 OA 
HETATM   22  C   UNL     1     -11.354  14.254  68.660  1.00  0.00    -0.275 A  
HETATM   23  C   UNL     1     -12.326   9.147  72.233  1.00  0.00    -0.309 C  
HETATM   24  C   UNL     1     -10.742   9.625  70.455  1.00  0.00    -0.311 C  
BRANCH  15  25
HETATM   25  C   UNL     1      -8.766   9.956  69.002  1.00  0.00    -0.151 C  
HETATM   26  C   UNL     1      -7.573  10.099  69.921  1.00  0.00    -0.174 C  
HETATM   27  C   UNL     1      -8.009   8.739  69.476  1.00  0.00    -0.096 C  
ENDBRANCH  15  25
ENDBRANCH   7  10
BRANCH   9  28
HETATM   28  C   UNL     1      -7.501  17.327  67.474  1.00  0.00    -0.170 C  
HETATM   29  H1  UNL     1      -7.994  18.389  69.188  1.00  0.00     0.000 HD 
HETATM   30  N   UNL     1      -8.389  17.667  68.586  1.00  0.00    -0.286 NA 
HETATM   31  H2  UNL     1      -8.642  16.836  69.123  1.00  0.00     0.000 HD 
ENDBRANCH   9  28
ENDBRANCH   3   5
ENDBRANCH   2   3
TORSDOF 5
ENDMDL
MODEL       35
REMARK 921   NORMALIZED FREE ENERGY PREDICTED BY IDOCK:   -5.90 KCAL/MOL
REMARK 922        TOTAL FREE ENERGY PREDICTED BY IDOCK:   -8.79 KCAL/MOL
REMARK 923 INTER-LIGAND FREE ENERGY PREDICTED BY IDOCK:   -7.55 KCAL/MOL
REMARK 924 INTRA-LIGAND FREE ENERGY PREDICTED BY IDOCK:   -1.23 KCAL/MOL
REMARK 927      BINDING AFFINITY PREDICTED BY RF-SCORE:    0.00 PKD
ROOT
HETATM    1  C   UNL     1      -7.252   4.785  72.506  1.00  0.00    -0.082 C  
HETATM    2  O   UNL     1      -8.662   4.973  72.522  1.00  0.00    -0.119 OA 
ENDROOT
BRANCH   2   3
HETATM    3  N   UNL     1      -8.951   6.277  72.094  1.00  0.00    -0.138 NA 
HETATM    4  H   UNL     1      -8.708   7.126  72.604  1.00  0.00     0.000 HD 
BRANCH   3   5
HETATM    5  C   UNL     1      -9.573   6.247  70.954  1.00  0.00    -0.176 C  
HETATM    6  C   UNL     1      -8.992   6.616  69.614  1.00  0.00    -0.142 C  
HETATM    7  N   UNL     1     -10.177   6.793  68.772  1.00  0.00    -0.167 NA 
HETATM    8  C   UNL     1     -11.398   6.329  69.456  1.00  0.00    -0.404 C  
HETATM    9  C   UNL     1     -10.992   5.762  70.827  1.00  0.00    -0.312 C  
BRANCH   7  10
HETATM   10  C   UNL     1     -10.247   7.955  68.008  1.00  0.00    -0.208 A  
HETATM   11  N   UNL     1     -10.778   9.059  68.587  1.00  0.00    -0.150 NA 
HETATM   12  O   UNL     1     -10.834  14.218  64.724  1.00  0.00    -0.390 OA 
HETATM   13  C   UNL     1     -10.887  10.223  67.899  1.00  0.00    -0.284 A  
HETATM   14  C   UNL     1     -10.453  10.318  66.579  1.00  0.00    -0.241 A  
HETATM   15  N   UNL     1     -11.433  11.373  68.534  1.00  0.00    -0.268 NA 
HETATM   16  C   UNL     1     -10.573  11.605  65.867  1.00  0.00    -0.271 C  
HETATM   17  O   UNL     1     -11.773  15.059  66.592  1.00  0.00    -0.278 OA 
HETATM   18  C   UNL     1      -9.875   9.211  65.967  1.00  0.00    -0.342 A  
HETATM   19  F   UNL     1      -9.195   6.972  66.097  1.00  0.00    -0.174 F  
HETATM   20  C   UNL     1     -11.163  12.763  66.575  1.00  0.00    -0.349 C  
HETATM   21  O   UNL     1     -10.187  11.727  64.705  1.00  0.00    -0.260 OA 
HETATM   22  C   UNL     1      -9.769   8.030  66.692  1.00  0.00    -0.243 A  
HETATM   23  C   UNL     1     -11.298  14.108  65.987  1.00  0.00    -0.330 C  
HETATM   24  C   UNL     1     -11.560  12.558  67.838  1.00  0.00    -0.347 C  
BRANCH  15  25
HETATM   25  C   UNL     1     -11.576  11.356  70.002  1.00  0.00    -0.299 C  
HETATM   26  C   UNL     1     -12.365  12.466  70.662  1.00  0.00    -0.367 C  
HETATM   27  C   UNL     1     -12.855  11.055  70.745  1.00  0.00    -0.354 C  
ENDBRANCH  15  25
ENDBRANCH   7  10
BRANCH   9  28
HETATM   28  C   UNL     1     -11.882   6.241  71.971  1.00  0.00    -0.318 C  
HETATM   29  H1  UNL     1     -12.371   5.701  73.914  1.00  0.00     0.000 HD 
HETATM   30  N   UNL     1     -11.776   5.381  73.150  1.00  0.00    -0.538 NA 
HETATM   31  H2  UNL     1     -10.806   5.287  73.452  1.00  0.00     0.000 HD 
ENDBRANCH   9  28
ENDBRANCH   3   5
ENDBRANCH   2   3
TORSDOF 5
ENDMDL
MODEL       36
REMARK 921   NORMALIZED FREE ENERGY PREDICTED BY IDOCK:   -5.89 KCAL/MOL
REMARK 922        TOTAL FREE ENERGY PREDICTED BY IDOCK:   -8.77 KCAL/MOL
REMARK 923 INTER-LIGAND FREE ENERGY PREDICTED BY IDOCK:   -7.74 KCAL/MOL
REMARK 924 INTRA-LIGAND FREE ENERGY PREDICTED BY IDOCK:   -1.03 KCAL/MOL
REMARK 927      BINDING AFFINITY PREDICTED BY RF-SCORE:    0.00 PKD
ROOT
HETATM    1  C   UNL     1     -10.377   7.596  66.882  1.00  0.00    -0.318 C  
HETATM    2  O   UNL     1     -10.136   8.830  66.218  1.00  0.00    -0.291 OA 
ENDROOT
BRANCH   2   3
HETATM    3  N   UNL     1      -9.733   9.783  67.164  1.00  0.00    -0.169 NA 
HETATM    4  H   UNL     1      -8.921   9.693  67.774  1.00  0.00     0.000 HD 
BRANCH   3   5
HETATM    5  C   UNL     1     -10.543  10.799  67.150  1.00  0.00    -0.256 C  
HETATM    6  C   UNL     1     -10.609  11.869  66.092  1.00  0.00    -0.258 C  
HETATM    7  N   UNL     1     -11.368  12.939  66.743  1.00  0.00    -0.305 NA 
HETATM    8  C   UNL     1     -11.951  12.484  68.019  1.00  0.00    -0.223 C  
HETATM    9  C   UNL     1     -11.596  11.000  68.205  1.00  0.00    -0.354 C  
BRANCH   7  10
HETATM   10  C   UNL     1     -10.840  14.225  66.678  1.00  0.00    -0.301 A  
HETATM   11  N   UNL     1      -9.944  14.589  67.629  1.00  0.00    -0.223 NA 
HETATM   12  O   UNL     1      -7.704  20.586  66.898  1.00  0.00    -0.309 OA 
HETATM   13  C   UNL     1      -9.398  15.829  67.633  1.00  0.00    -0.216 A  
HETATM   14  C   UNL     1      -9.735  16.765  66.658  1.00  0.00    -0.281 A  
HETATM   15  N   UNL     1      -8.449  16.182  68.633  1.00  0.00    -0.204 NA 
HETATM   16  C   UNL     1      -9.108  18.100  66.686  1.00  0.00    -0.282 C  
HETATM   17  O   UNL     1      -6.605  19.932  68.753  1.00  0.00    -0.294 OA 
HETATM   18  C   UNL     1     -10.627  16.412  65.651  1.00  0.00    -0.337 A  
HETATM   19  F   UNL     1     -12.020  14.798  64.677  1.00  0.00    -0.391 F  
HETATM   20  C   UNL     1      -8.139  18.414  67.759  1.00  0.00    -0.264 C  
HETATM   21  O   UNL     1      -9.375  18.945  65.832  1.00  0.00    -0.454 OA 
HETATM   22  C   UNL     1     -11.173  15.134  65.663  1.00  0.00    -0.296 A  
HETATM   23  C   UNL     1      -7.416  19.694  67.869  1.00  0.00    -0.286 C  
HETATM   24  C   UNL     1      -7.896  17.446  68.652  1.00  0.00    -0.274 C  
BRANCH  15  25
HETATM   25  C   UNL     1      -7.856  15.101  69.442  1.00  0.00    -0.208 C  
HETATM   26  C   UNL     1      -6.782  14.238  68.817  1.00  0.00    -0.095 C  
HETATM   27  C   UNL     1      -6.450  15.102  69.993  1.00  0.00    -0.156 C  
ENDBRANCH  15  25
ENDBRANCH   7  10
BRANCH   9  28
HETATM   28  C   UNL     1     -11.094  10.667  69.608  1.00  0.00    -0.284 C  
HETATM   29  H1  UNL     1     -11.008   9.047  70.904  1.00  0.00     0.000 HD 
HETATM   30  N   UNL     1     -11.343   9.270  69.967  1.00  0.00    -0.407 NA 
HETATM   31  H2  UNL     1     -10.948   8.635  69.272  1.00  0.00     0.000 HD 
ENDBRANCH   9  28
ENDBRANCH   3   5
ENDBRANCH   2   3
TORSDOF 5
ENDMDL
MODEL       37
REMARK 921   NORMALIZED FREE ENERGY PREDICTED BY IDOCK:   -5.88 KCAL/MOL
REMARK 922        TOTAL FREE ENERGY PREDICTED BY IDOCK:   -8.75 KCAL/MOL
REMARK 923 INTER-LIGAND FREE ENERGY PREDICTED BY IDOCK:   -7.71 KCAL/MOL
REMARK 924 INTRA-LIGAND FREE ENERGY PREDICTED BY IDOCK:   -1.04 KCAL/MOL
REMARK 927      BINDING AFFINITY PREDICTED BY RF-SCORE:    0.00 PKD
ROOT
HETATM    1  C   UNL     1     -12.649   6.784  71.828  1.00  0.00    -0.325 C  
HETATM    2  O   UNL     1     -11.637   7.776  71.710  1.00  0.00    -0.255 OA 
ENDROOT
BRANCH   2   3
HETATM    3  N   UNL     1     -10.626   7.295  70.866  1.00  0.00    -0.218 NA 
HETATM    4  H   UNL     1     -10.472   6.313  70.641  1.00  0.00     0.000 HD 
BRANCH   3   5
HETATM    5  C   UNL     1      -9.913   8.283  70.414  1.00  0.00    -0.188 C  
HETATM    6  C   UNL     1     -10.311   9.736  70.406  1.00  0.00    -0.293 C  
HETATM    7  N   UNL     1      -9.371  10.336  69.457  1.00  0.00    -0.206 NA 
HETATM    8  C   UNL     1      -8.304   9.388  69.084  1.00  0.00    -0.125 C  
HETATM    9  C   UNL     1      -8.522   8.088  69.875  1.00  0.00    -0.126 C  
BRANCH   7  10
HETATM   10  C   UNL     1      -9.903  11.155  68.466  1.00  0.00    -0.198 A  
HETATM   11  N   UNL     1      -9.554  12.465  68.475  1.00  0.00    -0.166 NA 
HETATM   12  O   UNL     1     -12.179  15.864  63.669  1.00  0.00    -0.681 OA 
HETATM   13  C   UNL     1     -10.043  13.323  67.545  1.00  0.00    -0.223 A  
HETATM   14  C   UNL     1     -10.913  12.883  66.551  1.00  0.00    -0.300 A  
HETATM   15  N   UNL     1      -9.650  14.690  67.567  1.00  0.00    -0.204 NA 
HETATM   16  C   UNL     1     -11.412  13.842  65.547  1.00  0.00    -0.316 C  
HETATM   17  O   UNL     1     -10.994  17.456  64.735  1.00  0.00    -0.964 OA 
HETATM   18  C   UNL     1     -11.265  11.539  66.495  1.00  0.00    -0.324 A  
HETATM   19  F   UNL     1     -11.083   9.378  67.383  1.00  0.00    -0.330 F  
HETATM   20  C   UNL     1     -10.979  15.255  65.629  1.00  0.00    -0.348 C  
HETATM   21  O   UNL     1     -12.171  13.483  64.648  1.00  0.00    -0.391 OA 
HETATM   22  C   UNL     1     -10.750  10.676  67.456  1.00  0.00    -0.272 A  
HETATM   23  C   UNL     1     -11.374  16.297  64.663  1.00  0.00    -0.232 C  
HETATM   24  C   UNL     1     -10.152  15.573  66.632  1.00  0.00    -0.267 C  
BRANCH  15  25
HETATM   25  C   UNL     1      -8.491  15.069  68.398  1.00  0.00    -0.153 C  
HETATM   26  C   UNL     1      -7.131  15.152  67.742  1.00  0.00    -0.185 C  
HETATM   27  C   UNL     1      -7.757  16.385  68.312  1.00  0.00    -0.162 C  
ENDBRANCH  15  25
ENDBRANCH   7  10
BRANCH   9  28
HETATM   28  C   UNL     1      -8.392   6.829  69.021  1.00  0.00    -0.124 C  
HETATM   29  H1  UNL     1      -9.512   5.729  67.663  1.00  0.00     0.000 HD 
HETATM   30  N   UNL     1      -9.598   6.570  68.233  1.00  0.00    -0.131 NA 
HETATM   31  H2  UNL     1      -9.847   7.378  67.663  1.00  0.00     0.000 HD 
ENDBRANCH   9  28
ENDBRANCH   3   5
ENDBRANCH   2   3
TORSDOF 5
ENDMDL
MODEL       38
REMARK 921   NORMALIZED FREE ENERGY PREDICTED BY IDOCK:   -5.85 KCAL/MOL
REMARK 922        TOTAL FREE ENERGY PREDICTED BY IDOCK:   -8.72 KCAL/MOL
REMARK 923 INTER-LIGAND FREE ENERGY PREDICTED BY IDOCK:   -7.56 KCAL/MOL
REMARK 924 INTRA-LIGAND FREE ENERGY PREDICTED BY IDOCK:   -1.16 KCAL/MOL
REMARK 927      BINDING AFFINITY PREDICTED BY RF-SCORE:    0.00 PKD
ROOT
HETATM    1  C   UNL     1     -10.446   5.220  67.114  1.00  0.00    -0.199 C  
HETATM    2  O   UNL     1     -10.704   6.615  67.210  1.00  0.00    -0.266 OA 
ENDROOT
BRANCH   2   3
HETATM    3  N   UNL     1     -10.096   7.266  66.127  1.00  0.00    -0.406 NA 
HETATM    4  H   UNL     1     -10.337   7.118  65.147  1.00  0.00     0.000 HD 
BRANCH   3   5
HETATM    5  C   UNL     1      -9.181   8.083  66.554  1.00  0.00    -0.188 C  
HETATM    6  C   UNL     1      -9.352   9.130  67.623  1.00  0.00    -0.135 C  
HETATM    7  N   UNL     1      -8.192  10.002  67.429  1.00  0.00    -0.117 NA 
HETATM    8  C   UNL     1      -7.230   9.414  66.476  1.00  0.00    -0.089 C  
HETATM    9  C   UNL     1      -7.765   8.038  66.046  1.00  0.00    -0.088 C  
BRANCH   7  10
HETATM   10  C   UNL     1      -8.428  11.372  67.368  1.00  0.00    -0.143 A  
HETATM   11  N   UNL     1      -9.181  11.839  66.343  1.00  0.00    -0.214 NA 
HETATM   12  O   UNL     1     -10.084  18.218  66.502  1.00  0.00    -0.343 OA 
HETATM   13  C   UNL     1      -9.442  13.163  66.216  1.00  0.00    -0.185 A  
HETATM   14  C   UNL     1      -8.949  14.083  67.138  1.00  0.00    -0.241 A  
HETATM   15  N   UNL     1     -10.249  13.626  65.139  1.00  0.00    -0.341 NA 
HETATM   16  C   UNL     1      -9.268  15.515  66.977  1.00  0.00    -0.225 C  
HETATM   17  O   UNL     1     -11.221  17.662  64.638  1.00  0.00    -0.857 OA 
HETATM   18  C   UNL     1      -8.199  13.633  68.219  1.00  0.00    -0.156 A  
HETATM   19  F   UNL     1      -7.235  11.844  69.388  1.00  0.00    -0.096 F  
HETATM   20  C   UNL     1     -10.099  15.938  65.828  1.00  0.00    -0.389 C  
HETATM   21  O   UNL     1      -8.858  16.351  67.781  1.00  0.00    -0.187 OA 
HETATM   22  C   UNL     1      -7.946  12.270  68.332  1.00  0.00    -0.152 A  
HETATM   23  C   UNL     1     -10.520  17.330  65.583  1.00  0.00    -0.181 C  
HETATM   24  C   UNL     1     -10.510  14.974  64.995  1.00  0.00    -0.386 C  
BRANCH  15  25
HETATM   25  C   UNL     1     -11.030  12.634  64.377  1.00  0.00    -0.351 C  
HETATM   26  C   UNL     1     -12.474  12.403  64.763  1.00  0.00    -0.480 C  
HETATM   27  C   UNL     1     -12.146  12.963  63.415  1.00  0.00    -0.610 C  
ENDBRANCH  15  25
ENDBRANCH   7  10
BRANCH   9  28
HETATM   28  C   UNL     1      -7.686   7.800  64.540  1.00  0.00    -0.122 C  
HETATM   29  H1  UNL     1      -8.494   8.557  62.785  1.00  0.00     0.000 HD 
HETATM   30  N   UNL     1      -8.546   8.717  63.791  1.00  0.00    -0.411 NA 
HETATM   31  H2  UNL     1      -8.338   9.689  64.022  1.00  0.00     0.000 HD 
ENDBRANCH   9  28
ENDBRANCH   3   5
ENDBRANCH   2   3
TORSDOF 5
ENDMDL
MODEL       39
REMARK 921   NORMALIZED FREE ENERGY PREDICTED BY IDOCK:   -5.84 KCAL/MOL
REMARK 922        TOTAL FREE ENERGY PREDICTED BY IDOCK:   -8.70 KCAL/MOL
REMARK 923 INTER-LIGAND FREE ENERGY PREDICTED BY IDOCK:   -7.48 KCAL/MOL
REMARK 924 INTRA-LIGAND FREE ENERGY PREDICTED BY IDOCK:   -1.22 KCAL/MOL
REMARK 927      BINDING AFFINITY PREDICTED BY RF-SCORE:    0.00 PKD
ROOT
HETATM    1  C   UNL     1      -8.210  17.043  66.109  1.00  0.00    -0.249 C  
HETATM    2  O   UNL     1      -9.542  16.659  65.792  1.00  0.00    -0.492 OA 
ENDROOT
BRANCH   2   3
HETATM    3  N   UNL     1      -9.517  15.402  65.171  1.00  0.00    -0.233 NA 
HETATM    4  H   UNL     1      -9.017  15.187  64.309  1.00  0.00     0.000 HD 
BRANCH   3   5
HETATM    5  C   UNL     1     -10.225  14.552  65.853  1.00  0.00    -0.322 C  
HETATM    6  C   UNL     1      -9.700  13.569  66.866  1.00  0.00    -0.261 C  
HETATM    7  N   UNL     1     -10.805  12.621  67.019  1.00  0.00    -0.249 NA 
HETATM    8  C   UNL     1     -12.025  13.104  66.345  1.00  0.00    -0.402 C  
HETATM    9  C   UNL     1     -11.724  14.488  65.746  1.00  0.00    -0.344 C  
BRANCH   7  10
HETATM   10  C   UNL     1     -10.498  11.266  66.937  1.00  0.00    -0.245 A  
HETATM   11  N   UNL     1      -9.666  10.866  65.944  1.00  0.00    -0.213 NA 
HETATM   12  O   UNL     1      -8.455   4.536  65.992  1.00  0.00    -0.113 OA 
HETATM   13  C   UNL     1      -9.332   9.560  65.799  1.00  0.00    -0.233 A  
HETATM   14  C   UNL     1      -9.829   8.592  66.668  1.00  0.00    -0.342 A  
HETATM   15  N   UNL     1      -8.445   9.167  64.758  1.00  0.00    -0.169 NA 
HETATM   16  C   UNL     1      -9.431   7.182  66.489  1.00  0.00    -0.156 C  
HETATM   17  O   UNL     1      -7.246   5.199  64.211  1.00  0.00    -0.052 OA 
HETATM   18  C   UNL     1     -10.659   8.975  67.716  1.00  0.00    -0.278 A  
HETATM   19  F   UNL     1     -11.774  10.680  68.874  1.00  0.00    -0.309 F  
HETATM   20  C   UNL     1      -8.517   6.832  65.379  1.00  0.00    -0.102 C  
HETATM   21  O   UNL     1      -9.841   6.305  67.248  1.00  0.00    -0.125 OA 
HETATM   22  C   UNL     1     -10.986  10.319  67.849  1.00  0.00    -0.292 A  
HETATM   23  C   UNL     1      -8.015   5.470  65.122  1.00  0.00    -0.110 C  
HETATM   24  C   UNL     1      -8.110   7.838  64.595  1.00  0.00    -0.123 C  
BRANCH  15  25
HETATM   25  C   UNL     1      -7.675  10.217  64.066  1.00  0.00    -0.136 C  
HETATM   26  C   UNL     1      -6.183  10.025  63.901  1.00  0.00    -0.132 C  
HETATM   27  C   UNL     1      -7.064  10.081  62.692  1.00  0.00    -0.127 C  
ENDBRANCH  15  25
ENDBRANCH   7  10
BRANCH   9  28
HETATM   28  C   UNL     1     -12.220  14.650  64.311  1.00  0.00    -0.408 C  
HETATM   29  H1  UNL     1     -12.468  16.145  62.893  1.00  0.00     0.000 HD 
HETATM   30  N   UNL     1     -12.137  16.036  63.851  1.00  0.00    -1.257 NA 
HETATM   31  H2  UNL     1     -11.192  16.405  63.959  1.00  0.00     0.000 HD 
ENDBRANCH   9  28
ENDBRANCH   3   5
ENDBRANCH   2   3
TORSDOF 5
ENDMDL
MODEL       40
REMARK 921   NORMALIZED FREE ENERGY PREDICTED BY IDOCK:   -5.79 KCAL/MOL
REMARK 922        TOTAL FREE ENERGY PREDICTED BY IDOCK:   -8.64 KCAL/MOL
REMARK 923 INTER-LIGAND FREE ENERGY PREDICTED BY IDOCK:   -8.26 KCAL/MOL
REMARK 924 INTRA-LIGAND FREE ENERGY PREDICTED BY IDOCK:   -0.38 KCAL/MOL
REMARK 927      BINDING AFFINITY PREDICTED BY RF-SCORE:    0.00 PKD
ROOT
HETATM    1  C   UNL     1     -13.610   9.384  72.314  1.00  0.00    -0.462 C  
HETATM    2  O   UNL     1     -13.064   8.073  72.387  1.00  0.00    -0.177 OA 
ENDROOT
BRANCH   2   3
HETATM    3  N   UNL     1     -11.795   8.142  72.980  1.00  0.00    -0.559 NA 
HETATM    4  H   UNL     1     -11.619   8.139  73.985  1.00  0.00     0.000 HD 
BRANCH   3   5
HETATM    5  C   UNL     1     -10.875   8.208  72.064  1.00  0.00    -0.284 C  
HETATM    6  C   UNL     1     -10.381   9.461  71.390  1.00  0.00    -0.256 C  
HETATM    7  N   UNL     1      -9.680   8.953  70.209  1.00  0.00    -0.175 NA 
HETATM    8  C   UNL     1      -9.527   7.487  70.264  1.00  0.00    -0.165 C  
HETATM    9  C   UNL     1     -10.123   6.993  71.592  1.00  0.00    -0.194 C  
BRANCH   7  10
HETATM   10  C   UNL     1      -9.986   9.541  68.985  1.00  0.00    -0.180 A  
HETATM   11  N   UNL     1     -10.575  10.762  69.000  1.00  0.00    -0.207 NA 
HETATM   12  O   UNL     1     -11.736  13.134  63.122  1.00  0.00    -0.382 OA 
HETATM   13  C   UNL     1     -10.910  11.388  67.845  1.00  0.00    -0.225 A  
HETATM   14  C   UNL     1     -10.653  10.799  66.610  1.00  0.00    -0.291 A  
HETATM   15  N   UNL     1     -11.513  12.676  67.887  1.00  0.00    -0.288 NA 
HETATM   16  C   UNL     1     -11.017  11.517  65.374  1.00  0.00    -0.226 C  
HETATM   17  O   UNL     1     -12.538  14.786  64.427  1.00  0.00    -0.626 OA 
HETATM   18  C   UNL     1     -10.022   9.561  66.560  1.00  0.00    -0.329 A  
HETATM   19  F   UNL     1      -9.059   7.751  67.696  1.00  0.00    -0.131 F  
HETATM   20  C   UNL     1     -11.656  12.848  65.481  1.00  0.00    -0.395 C  
HETATM   21  O   UNL     1     -10.793  11.030  64.266  1.00  0.00    -0.353 OA 
HETATM   22  C   UNL     1      -9.684   8.937  67.756  1.00  0.00    -0.160 A  
HETATM   23  C   UNL     1     -12.027  13.681  64.322  1.00  0.00    -0.445 C  
HETATM   24  C   UNL     1     -11.868  13.316  66.717  1.00  0.00    -0.394 C  
BRANCH  15  25
HETATM   25  C   UNL     1     -11.473  13.423  69.158  1.00  0.00    -0.300 C  
HETATM   26  C   UNL     1     -10.896  14.821  69.155  1.00  0.00    -0.267 C  
HETATM   27  C   UNL     1     -12.339  14.614  69.491  1.00  0.00    -0.232 C  
ENDBRANCH  15  25
ENDBRANCH   7  10
BRANCH   9  28
HETATM   28  C   UNL     1     -11.022   5.769  71.437  1.00  0.00    -0.237 C  
HETATM   29  H1  UNL     1     -12.136   4.476  72.618  1.00  0.00     0.000 HD 
HETATM   30  N   UNL     1     -11.537   5.294  72.722  1.00  0.00    -0.323 NA 
HETATM   31  H2  UNL     1     -12.014   6.042  73.226  1.00  0.00     0.000 HD 
ENDBRANCH   9  28
ENDBRANCH   3   5
ENDBRANCH   2   3
TORSDOF 5
ENDMDL
MODEL       41
REMARK 921   NORMALIZED FREE ENERGY PREDICTED BY IDOCK:   -5.79 KCAL/MOL
REMARK 922        TOTAL FREE ENERGY PREDICTED BY IDOCK:   -8.64 KCAL/MOL
REMARK 923 INTER-LIGAND FREE ENERGY PREDICTED BY IDOCK:   -7.54 KCAL/MOL
REMARK 924 INTRA-LIGAND FREE ENERGY PREDICTED BY IDOCK:   -1.10 KCAL/MOL
REMARK 927      BINDING AFFINITY PREDICTED BY RF-SCORE:    0.00 PKD
ROOT
HETATM    1  C   UNL     1      -8.633   7.737  74.136  1.00  0.00    -0.254 C  
HETATM    2  O   UNL     1      -9.965   7.308  73.888  1.00  0.00    -0.311 OA 
ENDROOT
BRANCH   2   3
HETATM    3  N   UNL     1     -10.508   8.085  72.854  1.00  0.00    -0.349 NA 
HETATM    4  H   UNL     1     -10.821   9.050  72.951  1.00  0.00     0.000 HD 
BRANCH   3   5
HETATM    5  C   UNL     1     -10.553   7.396  71.753  1.00  0.00    -0.201 C  
HETATM    6  C   UNL     1      -9.439   7.250  70.749  1.00  0.00    -0.164 C  
HETATM    7  N   UNL     1     -10.123   6.739  69.560  1.00  0.00    -0.175 NA 
HETATM    8  C   UNL     1     -11.514   6.354  69.863  1.00  0.00    -0.415 C  
HETATM    9  C   UNL     1     -11.756   6.580  71.365  1.00  0.00    -0.378 C  
BRANCH   7  10
HETATM   10  C   UNL     1      -9.863   7.378  68.351  1.00  0.00    -0.158 A  
HETATM   11  N   UNL     1     -10.424   8.595  68.146  1.00  0.00    -0.211 NA 
HETATM   12  O   UNL     1      -8.888  11.215  62.462  1.00  0.00    -0.302 OA 
HETATM   13  C   UNL     1     -10.221   9.269  66.987  1.00  0.00    -0.262 A  
HETATM   14  C   UNL     1      -9.426   8.735  65.976  1.00  0.00    -0.302 A  
HETATM   15  N   UNL     1     -10.809  10.552  66.803  1.00  0.00    -0.190 NA 
HETATM   16  C   UNL     1      -9.216   9.505  64.736  1.00  0.00    -0.205 C  
HETATM   17  O   UNL     1     -10.227  12.806  63.330  1.00  0.00    -0.314 OA 
HETATM   18  C   UNL     1      -8.811   7.502  66.169  1.00  0.00    -0.185 A  
HETATM   19  F   UNL     1      -8.417   5.649  67.547  1.00  0.00    -0.105 F  
HETATM   20  C   UNL     1      -9.865  10.827  64.595  1.00  0.00    -0.366 C  
HETATM   21  O   UNL     1      -8.509   9.067  63.828  1.00  0.00    -0.183 OA 
HETATM   22  C   UNL     1      -9.029   6.829  67.365  1.00  0.00    -0.115 A  
HETATM   23  C   UNL     1      -9.697  11.708  63.424  1.00  0.00    -0.348 C  
HETATM   24  C   UNL     1     -10.618  11.240  65.622  1.00  0.00    -0.244 C  
BRANCH  15  25
HETATM   25  C   UNL     1     -11.358  11.243  67.984  1.00  0.00    -0.304 C  
HETATM   26  C   UNL     1     -10.540  12.346  68.619  1.00  0.00    -0.243 C  
HETATM   27  C   UNL     1     -11.864  12.666  67.998  1.00  0.00    -0.376 C  
ENDBRANCH  15  25
ENDBRANCH   7  10
BRANCH   9  28
HETATM   28  C   UNL     1     -13.072   7.292  71.668  1.00  0.00    -0.369 C  
HETATM   29  H1  UNL     1     -13.949   9.155  71.403  1.00  0.00     0.000 HD 
HETATM   30  N   UNL     1     -13.070   8.679  71.201  1.00  0.00    -0.512 NA 
HETATM   31  H2  UNL     1     -12.841   8.733  70.208  1.00  0.00     0.000 HD 
ENDBRANCH   9  28
ENDBRANCH   3   5
ENDBRANCH   2   3
TORSDOF 5
ENDMDL
MODEL       42
REMARK 921   NORMALIZED FREE ENERGY PREDICTED BY IDOCK:   -5.78 KCAL/MOL
REMARK 922        TOTAL FREE ENERGY PREDICTED BY IDOCK:   -8.62 KCAL/MOL
REMARK 923 INTER-LIGAND FREE ENERGY PREDICTED BY IDOCK:   -7.71 KCAL/MOL
REMARK 924 INTRA-LIGAND FREE ENERGY PREDICTED BY IDOCK:   -0.91 KCAL/MOL
REMARK 927      BINDING AFFINITY PREDICTED BY RF-SCORE:    0.00 PKD
ROOT
HETATM    1  C   UNL     1      -9.816   4.576  70.441  1.00  0.00    -0.232 C  
HETATM    2  O   UNL     1     -10.719   5.636  70.729  1.00  0.00    -0.260 OA 
ENDROOT
BRANCH   2   3
HETATM    3  N   UNL     1     -10.264   6.326  71.862  1.00  0.00    -0.199 NA 
HETATM    4  H   UNL     1     -10.205   5.932  72.800  1.00  0.00     0.000 HD 
BRANCH   3   5
HETATM    5  C   UNL     1      -9.928   7.540  71.542  1.00  0.00    -0.177 C  
HETATM    6  C   UNL     1     -10.858   8.622  71.061  1.00  0.00    -0.247 C  
HETATM    7  N   UNL     1      -9.951   9.611  70.477  1.00  0.00    -0.271 NA 
HETATM    8  C   UNL     1      -8.543   9.297  70.786  1.00  0.00    -0.203 C  
HETATM    9  C   UNL     1      -8.516   8.043  71.675  1.00  0.00    -0.155 C  
BRANCH   7  10
HETATM   10  C   UNL     1     -10.258  10.085  69.205  1.00  0.00    -0.214 A  
HETATM   11  N   UNL     1     -10.735  11.350  69.101  1.00  0.00    -0.211 NA 
HETATM   12  O   UNL     1     -11.947  13.154  63.034  1.00  0.00    -0.411 OA 
HETATM   13  C   UNL     1     -11.066  11.873  67.894  1.00  0.00    -0.242 A  
HETATM   14  C   UNL     1     -10.919  11.129  66.726  1.00  0.00    -0.309 A  
HETATM   15  N   UNL     1     -11.550  13.208  67.809  1.00  0.00    -0.316 NA 
HETATM   16  C   UNL     1     -11.274  11.737  65.429  1.00  0.00    -0.251 C  
HETATM   17  O   UNL     1     -12.540  15.008  64.168  1.00  0.00    -0.770 OA 
HETATM   18  C   UNL     1     -10.403   9.839  66.796  1.00  0.00    -0.289 A  
HETATM   19  F   UNL     1      -9.554   8.085  68.098  1.00  0.00    -0.146 F  
HETATM   20  C   UNL     1     -11.786  13.125  65.405  1.00  0.00    -0.410 C  
HETATM   21  O   UNL     1     -11.144  11.111  64.378  1.00  0.00    -0.279 OA 
HETATM   22  C   UNL     1     -10.067   9.324  68.043  1.00  0.00    -0.193 A  
HETATM   23  C   UNL     1     -12.134  13.855  64.172  1.00  0.00    -0.425 C  
HETATM   24  C   UNL     1     -11.900  13.744  66.587  1.00  0.00    -0.412 C  
BRANCH  15  25
HETATM   25  C   UNL     1     -11.386  14.084  68.984  1.00  0.00    -0.281 C  
HETATM   26  C   UNL     1     -11.877  15.512  68.892  1.00  0.00    -0.357 C  
HETATM   27  C   UNL     1     -12.511  14.570  69.866  1.00  0.00    -0.300 C  
ENDBRANCH  15  25
ENDBRANCH   7  10
BRANCH   9  28
HETATM   28  C   UNL     1      -7.479   7.011  71.240  1.00  0.00    -0.081 C  
HETATM   29  H1  UNL     1      -6.183   5.630  72.088  1.00  0.00     0.000 HD 
HETATM   30  N   UNL     1      -6.876   6.319  72.379  1.00  0.00    -0.069 NA 
HETATM   31  H2  UNL     1      -7.590   5.897  72.974  1.00  0.00     0.000 HD 
ENDBRANCH   9  28
ENDBRANCH   3   5
ENDBRANCH   2   3
TORSDOF 5
ENDMDL
MODEL       43
REMARK 921   NORMALIZED FREE ENERGY PREDICTED BY IDOCK:   -5.76 KCAL/MOL
REMARK 922        TOTAL FREE ENERGY PREDICTED BY IDOCK:   -8.60 KCAL/MOL
REMARK 923 INTER-LIGAND FREE ENERGY PREDICTED BY IDOCK:   -7.92 KCAL/MOL
REMARK 924 INTRA-LIGAND FREE ENERGY PREDICTED BY IDOCK:   -0.68 KCAL/MOL
REMARK 927      BINDING AFFINITY PREDICTED BY RF-SCORE:    0.00 PKD
ROOT
HETATM    1  C   UNL     1     -12.340  14.804  64.342  1.00  0.00    -0.368 C  
HETATM    2  O   UNL     1     -13.201  14.090  65.220  1.00  0.00    -0.782 OA 
ENDROOT
BRANCH   2   3
HETATM    3  N   UNL     1     -12.611  14.035  66.491  1.00  0.00    -0.503 NA 
HETATM    4  H   UNL     1     -12.986  14.480  67.328  1.00  0.00     0.000 HD 
BRANCH   3   5
HETATM    5  C   UNL     1     -11.517  13.335  66.446  1.00  0.00    -0.329 C  
HETATM    6  C   UNL     1     -11.375  11.942  65.891  1.00  0.00    -0.308 C  
HETATM    7  N   UNL     1     -10.094  11.491  66.439  1.00  0.00    -0.210 NA 
HETATM    8  C   UNL     1      -9.366  12.599  67.086  1.00  0.00    -0.210 C  
HETATM    9  C   UNL     1     -10.195  13.882  66.913  1.00  0.00    -0.257 C  
BRANCH   7  10
HETATM   10  C   UNL     1     -10.067  10.239  67.046  1.00  0.00    -0.218 A  
HETATM   11  N   UNL     1     -10.413  10.164  68.355  1.00  0.00    -0.196 NA 
HETATM   12  O   UNL     1     -10.225   4.176  70.730  1.00  0.00    -0.107 OA 
HETATM   13  C   UNL     1     -10.399   8.978  69.012  1.00  0.00    -0.219 A  
HETATM   14  C   UNL     1     -10.035   7.802  68.362  1.00  0.00    -0.195 A  
HETATM   15  N   UNL     1     -10.781   8.923  70.382  1.00  0.00    -0.219 NA 
HETATM   16  C   UNL     1     -10.047   6.528  69.106  1.00  0.00    -0.168 C  
HETATM   17  O   UNL     1     -10.873   5.346  72.543  1.00  0.00    -0.227 OA 
HETATM   18  C   UNL     1      -9.705   7.840  67.011  1.00  0.00    -0.259 A  
HETATM   19  F   UNL     1      -9.426   9.090  65.048  1.00  0.00    -0.261 F  
HETATM   20  C   UNL     1     -10.439   6.535  70.533  1.00  0.00    -0.251 C  
HETATM   21  O   UNL     1      -9.743   5.469  68.557  1.00  0.00    -0.121 OA 
HETATM   22  C   UNL     1      -9.729   9.066  66.355  1.00  0.00    -0.268 A  
HETATM   23  C   UNL     1     -10.531   5.325  71.370  1.00  0.00    -0.203 C  
HETATM   24  C   UNL     1     -10.758   7.723  71.062  1.00  0.00    -0.228 C  
BRANCH  15  25
HETATM   25  C   UNL     1     -11.474  10.090  70.959  1.00  0.00    -0.383 C  
HETATM   26  C   UNL     1     -12.814  10.490  70.382  1.00  0.00    -0.274 C  
HETATM   27  C   UNL     1     -12.726  10.025  71.801  1.00  0.00    -0.526 C  
ENDBRANCH  15  25
ENDBRANCH   7  10
BRANCH   9  28
HETATM   28  C   UNL     1     -10.317  14.703  68.194  1.00  0.00    -0.230 C  
HETATM   29  H1  UNL     1     -10.937  14.466  70.161  1.00  0.00     0.000 HD 
HETATM   30  N   UNL     1     -10.855  13.917  69.305  1.00  0.00    -0.399 NA 
HETATM   31  H2  UNL     1     -10.305  13.072  69.459  1.00  0.00     0.000 HD 
ENDBRANCH   9  28
ENDBRANCH   3   5
ENDBRANCH   2   3
TORSDOF 5
ENDMDL
MODEL       44
REMARK 921   NORMALIZED FREE ENERGY PREDICTED BY IDOCK:   -5.76 KCAL/MOL
REMARK 922        TOTAL FREE ENERGY PREDICTED BY IDOCK:   -8.60 KCAL/MOL
REMARK 923 INTER-LIGAND FREE ENERGY PREDICTED BY IDOCK:   -7.59 KCAL/MOL
REMARK 924 INTRA-LIGAND FREE ENERGY PREDICTED BY IDOCK:   -1.02 KCAL/MOL
REMARK 927      BINDING AFFINITY PREDICTED BY RF-SCORE:    0.00 PKD
ROOT
HETATM    1  C   UNL     1      -6.179   9.973  67.175  1.00  0.00    -0.066 C  
HETATM    2  O   UNL     1      -7.311   9.892  66.317  1.00  0.00    -0.097 OA 
ENDROOT
BRANCH   2   3
HETATM    3  N   UNL     1      -8.403   9.407  67.051  1.00  0.00    -0.126 NA 
HETATM    4  H   UNL     1      -8.360   8.646  67.728  1.00  0.00     0.000 HD 
BRANCH   3   5
HETATM    5  C   UNL     1      -9.478  10.069  66.743  1.00  0.00    -0.168 C  
HETATM    6  C   UNL     1      -9.632  11.031  65.594  1.00  0.00    -0.226 C  
HETATM    7  N   UNL     1     -10.848  11.771  65.936  1.00  0.00    -0.283 NA 
HETATM    8  C   UNL     1     -11.548  11.157  67.081  1.00  0.00     0.053 C  
HETATM    9  C   UNL     1     -10.769   9.898  67.497  1.00  0.00    -0.333 C  
BRANCH   7  10
HETATM   10  C   UNL     1     -10.791  13.159  65.864  1.00  0.00    -0.273 A  
HETATM   11  N   UNL     1     -10.142  13.817  66.856  1.00  0.00    -0.256 NA 
HETATM   12  O   UNL     1     -10.053  20.213  66.078  1.00  0.00    -0.460 OA 
HETATM   13  C   UNL     1     -10.056  15.170  66.855  1.00  0.00    -0.255 A  
HETATM   14  C   UNL     1     -10.627  15.924  65.833  1.00  0.00    -0.348 A  
HETATM   15  N   UNL     1      -9.356  15.836  67.900  1.00  0.00    -0.199 NA 
HETATM   16  C   UNL     1     -10.500  17.394  65.858  1.00  0.00    -0.252 C  
HETATM   17  O   UNL     1      -8.924  19.993  68.016  1.00  0.00    -0.309 OA 
HETATM   18  C   UNL     1     -11.273  15.278  64.784  1.00  0.00    -0.405 A  
HETATM   19  F   UNL     1     -11.957  13.275  63.778  1.00  0.00    -0.444 F  
HETATM   20  C   UNL     1      -9.772  18.031  66.978  1.00  0.00    -0.303 C  
HETATM   21  O   UNL     1     -10.982  18.088  64.963  1.00  0.00    -0.748 OA 
HETATM   22  C   UNL     1     -11.346  13.889  64.803  1.00  0.00    -0.363 A  
HETATM   23  C   UNL     1      -9.542  19.483  67.092  1.00  0.00    -0.331 C  
HETATM   24  C   UNL     1      -9.274  17.214  67.914  1.00  0.00    -0.241 C  
BRANCH  15  25
HETATM   25  C   UNL     1      -8.485  15.032  68.777  1.00  0.00    -0.180 C  
HETATM   26  C   UNL     1      -7.070  14.748  68.323  1.00  0.00    -0.113 C  
HETATM   27  C   UNL     1      -7.305  15.567  69.553  1.00  0.00    -0.203 C  
ENDBRANCH  15  25
ENDBRANCH   7  10
BRANCH   9  28
HETATM   28  C   UNL     1     -10.559   9.784  69.005  1.00  0.00    -0.219 C  
HETATM   29  H1  UNL     1     -10.066  10.992  70.619  1.00  0.00     0.000 HD 
HETATM   30  N   UNL     1     -10.206  11.068  69.612  1.00  0.00    -0.438 NA 
HETATM   31  H2  UNL     1     -10.898  11.784  69.388  1.00  0.00     0.000 HD 
ENDBRANCH   9  28
ENDBRANCH   3   5
ENDBRANCH   2   3
TORSDOF 5
ENDMDL
MODEL       45
REMARK 921   NORMALIZED FREE ENERGY PREDICTED BY IDOCK:   -5.76 KCAL/MOL
REMARK 922        TOTAL FREE ENERGY PREDICTED BY IDOCK:   -8.60 KCAL/MOL
REMARK 923 INTER-LIGAND FREE ENERGY PREDICTED BY IDOCK:   -7.56 KCAL/MOL
REMARK 924 INTRA-LIGAND FREE ENERGY PREDICTED BY IDOCK:   -1.04 KCAL/MOL
REMARK 927      BINDING AFFINITY PREDICTED BY RF-SCORE:    0.00 PKD
ROOT
HETATM    1  C   UNL     1      -6.062  20.319  64.673  1.00  0.00    -0.272 C  
HETATM    2  O   UNL     1      -7.011  19.355  65.114  1.00  0.00    -0.426 OA 
ENDROOT
BRANCH   2   3
HETATM    3  N   UNL     1      -8.113  20.023  65.667  1.00  0.00    -0.503 NA 
HETATM    4  H   UNL     1      -8.468  20.926  65.351  1.00  0.00     0.000 HD 
BRANCH   3   5
HETATM    5  C   UNL     1      -8.619  19.324  66.638  1.00  0.00    -0.322 C  
HETATM    6  C   UNL     1      -7.861  18.403  67.558  1.00  0.00    -0.231 C  
HETATM    7  N   UNL     1      -8.918  17.593  68.168  1.00  0.00    -0.261 NA 
HETATM    8  C   UNL     1     -10.256  18.126  67.849  1.00  0.00    -0.379 C  
HETATM    9  C   UNL     1     -10.074  19.403  67.011  1.00  0.00    -0.492 C  
BRANCH   7  10
HETATM   10  C   UNL     1      -8.740  16.213  68.172  1.00  0.00    -0.175 A  
HETATM   11  N   UNL     1      -9.519  15.473  67.346  1.00  0.00    -0.210 NA 
HETATM   12  O   UNL     1      -8.305   9.151  67.633  1.00  0.00    -0.115 OA 
HETATM   13  C   UNL     1      -9.408  14.122  67.306  1.00  0.00    -0.225 A  
HETATM   14  C   UNL     1      -8.485  13.456  68.108  1.00  0.00    -0.172 A  
HETATM   15  N   UNL     1     -10.226  13.370  66.418  1.00  0.00    -0.287 NA 
HETATM   16  C   UNL     1      -8.381  11.986  68.026  1.00  0.00    -0.162 C  
HETATM   17  O   UNL     1      -9.961   9.209  66.106  1.00  0.00    -0.286 OA 
HETATM   18  C   UNL     1      -7.650  14.188  68.944  1.00  0.00    -0.098 A  
HETATM   19  F   UNL     1      -6.956  16.271  69.765  1.00  0.00    -0.216 F  
HETATM   20  C   UNL     1      -9.269  11.256  67.095  1.00  0.00    -0.169 C  
HETATM   21  O   UNL     1      -7.568  11.368  68.712  1.00  0.00    -0.122 OA 
HETATM   22  C   UNL     1      -7.779  15.572  68.967  1.00  0.00    -0.192 A  
HETATM   23  C   UNL     1      -9.231   9.796  66.892  1.00  0.00    -0.147 C  
HETATM   24  C   UNL     1     -10.128  11.994  66.380  1.00  0.00    -0.218 C  
BRANCH  15  25
HETATM   25  C   UNL     1     -10.945  14.092  65.352  1.00  0.00    -0.321 C  
HETATM   26  C   UNL     1     -11.808  13.296  64.398  1.00  0.00    -0.448 C  
HETATM   27  C   UNL     1     -12.439  14.305  65.305  1.00  0.00    -0.428 C  
ENDBRANCH  15  25
ENDBRANCH   7  10
BRANCH   9  28
HETATM   28  C   UNL     1     -10.992  19.465  65.792  1.00  0.00    -0.141 C  
HETATM   29  H1  UNL     1     -11.637  18.240  64.247  1.00  0.00     0.000 HD 
HETATM   30  N   UNL     1     -11.025  18.198  65.061  1.00  0.00    -0.540 NA 
HETATM   31  H2  UNL     1     -11.279  17.424  65.676  1.00  0.00     0.000 HD 
ENDBRANCH   9  28
ENDBRANCH   3   5
ENDBRANCH   2   3
TORSDOF 5
ENDMDL
MODEL       46
REMARK 921   NORMALIZED FREE ENERGY PREDICTED BY IDOCK:   -5.74 KCAL/MOL
REMARK 922        TOTAL FREE ENERGY PREDICTED BY IDOCK:   -8.58 KCAL/MOL
REMARK 923 INTER-LIGAND FREE ENERGY PREDICTED BY IDOCK:   -7.43 KCAL/MOL
REMARK 924 INTRA-LIGAND FREE ENERGY PREDICTED BY IDOCK:   -1.15 KCAL/MOL
REMARK 927      BINDING AFFINITY PREDICTED BY RF-SCORE:    0.00 PKD
ROOT
HETATM    1  C   UNL     1      -9.517  18.582  66.501  1.00  0.00    -0.320 C  
HETATM    2  O   UNL     1     -10.488  17.698  67.047  1.00  0.00    -0.336 OA 
ENDROOT
BRANCH   2   3
HETATM    3  N   UNL     1      -9.926  16.418  67.161  1.00  0.00    -0.254 NA 
HETATM    4  H   UNL     1      -8.929  16.211  67.095  1.00  0.00     0.000 HD 
BRANCH   3   5
HETATM    5  C   UNL     1     -10.858  15.536  67.362  1.00  0.00    -0.312 C  
HETATM    6  C   UNL     1     -11.221  14.913  68.685  1.00  0.00    -0.275 C  
HETATM    7  N   UNL     1     -12.012  13.743  68.299  1.00  0.00    -0.370 NA 
HETATM    8  C   UNL     1     -12.335  13.763  66.859  1.00  0.00    -0.285 C  
HETATM    9  C   UNL     1     -11.761  15.057  66.259  1.00  0.00    -0.096 C  
BRANCH   7  10
HETATM   10  C   UNL     1     -11.676  12.525  68.884  1.00  0.00    -0.322 A  
HETATM   11  N   UNL     1     -10.808  11.724  68.219  1.00  0.00    -0.208 NA 
HETATM   12  O   UNL     1      -9.475   6.236  71.324  1.00  0.00    -0.159 OA 
HETATM   13  C   UNL     1     -10.444  10.519  68.725  1.00  0.00    -0.196 A  
HETATM   14  C   UNL     1     -10.947  10.073  69.945  1.00  0.00    -0.339 A  
HETATM   15  N   UNL     1      -9.519   9.703  68.016  1.00  0.00    -0.132 NA 
HETATM   16  C   UNL     1     -10.517   8.764  70.471  1.00  0.00    -0.209 C  
HETATM   17  O   UNL     1      -8.227   6.000  69.464  1.00  0.00    -0.111 OA 
HETATM   18  C   UNL     1     -11.815  10.886  70.666  1.00  0.00    -0.453 A  
HETATM   19  F   UNL     1     -12.997  12.902  70.842  1.00  0.00    -0.329 F  
HETATM   20  C   UNL     1      -9.564   7.952  69.682  1.00  0.00    -0.164 C  
HETATM   21  O   UNL     1     -10.932   8.346  71.552  1.00  0.00    -0.237 OA 
HETATM   22  C   UNL     1     -12.172  12.118  70.130  1.00  0.00    -0.231 A  
HETATM   23  C   UNL     1      -9.027   6.651  70.120  1.00  0.00    -0.152 C  
HETATM   24  C   UNL     1      -9.153   8.470  68.518  1.00  0.00    -0.135 C  
BRANCH  15  25
HETATM   25  C   UNL     1      -8.749  10.315  66.918  1.00  0.00    -0.126 C  
HETATM   26  C   UNL     1      -7.382  10.886  67.226  1.00  0.00    -0.103 C  
HETATM   27  C   UNL     1      -7.509   9.723  66.293  1.00  0.00    -0.100 C  
ENDBRANCH  15  25
ENDBRANCH   7  10
BRANCH   9  28
HETATM   28  C   UNL     1     -11.018  14.838  64.943  1.00  0.00    -0.412 C  
HETATM   29  H1  UNL     1     -10.556  15.879  63.207  1.00  0.00     0.000 HD 
HETATM   30  N   UNL     1     -11.052  16.024  64.086  1.00  0.00    -1.068 NA 
HETATM   31  H2  UNL     1     -10.698  16.845  64.579  1.00  0.00     0.000 HD 
ENDBRANCH   9  28
ENDBRANCH   3   5
ENDBRANCH   2   3
TORSDOF 5
ENDMDL
MODEL       47
REMARK 921   NORMALIZED FREE ENERGY PREDICTED BY IDOCK:   -5.73 KCAL/MOL
REMARK 922        TOTAL FREE ENERGY PREDICTED BY IDOCK:   -8.55 KCAL/MOL
REMARK 923 INTER-LIGAND FREE ENERGY PREDICTED BY IDOCK:   -7.72 KCAL/MOL
REMARK 924 INTRA-LIGAND FREE ENERGY PREDICTED BY IDOCK:   -0.83 KCAL/MOL
REMARK 927      BINDING AFFINITY PREDICTED BY RF-SCORE:    0.00 PKD
ROOT
HETATM    1  C   UNL     1     -10.594   7.273  69.442  1.00  0.00    -0.229 C  
HETATM    2  O   UNL     1     -10.226   7.539  68.095  1.00  0.00    -0.177 OA 
ENDROOT
BRANCH   2   3
HETATM    3  N   UNL     1     -10.851   8.724  67.678  1.00  0.00    -0.489 NA 
HETATM    4  H   UNL     1     -11.843   8.815  67.460  1.00  0.00     0.000 HD 
BRANCH   3   5
HETATM    5  C   UNL     1      -9.983   9.688  67.611  1.00  0.00    -0.174 C  
HETATM    6  C   UNL     1     -10.114  11.048  68.244  1.00  0.00    -0.177 C  
HETATM    7  N   UNL     1      -9.102  11.843  67.545  1.00  0.00    -0.173 NA 
HETATM    8  C   UNL     1      -8.230  10.993  66.713  1.00  0.00    -0.149 C  
HETATM    9  C   UNL     1      -8.660   9.530  66.910  1.00  0.00    -0.132 C  
BRANCH   7  10
HETATM   10  C   UNL     1      -9.500  13.077  67.039  1.00  0.00    -0.237 A  
HETATM   11  N   UNL     1      -9.109  14.190  67.708  1.00  0.00    -0.182 NA 
HETATM   12  O   UNL     1     -11.101  19.674  64.971  1.00  0.00    -0.276 OA 
HETATM   13  C   UNL     1      -9.468  15.424  67.277  1.00  0.00    -0.210 A  
HETATM   14  C   UNL     1     -10.245  15.586  66.132  1.00  0.00    -0.322 A  
HETATM   15  N   UNL     1      -9.032  16.577  67.988  1.00  0.00    -0.201 NA 
HETATM   16  C   UNL     1     -10.603  16.946  65.685  1.00  0.00    -0.221 C  
HETATM   17  O   UNL     1      -9.979  20.460  66.760  1.00  0.00    -0.450 OA 
HETATM   18  C   UNL     1     -10.636  14.466  65.406  1.00  0.00    -0.380 A  
HETATM   19  F   UNL     1     -10.621  12.137  65.147  1.00  0.00    -0.280 F  
HETATM   20  C   UNL     1     -10.133  18.106  66.474  1.00  0.00    -0.389 C  
HETATM   21  O   UNL     1     -11.277  17.124  64.671  1.00  0.00    -1.003 OA 
HETATM   22  C   UNL     1     -10.253  13.210  65.864  1.00  0.00    -0.291 A  
HETATM   23  C   UNL     1     -10.389  19.511  66.107  1.00  0.00    -0.520 C  
HETATM   24  C   UNL     1      -9.403  17.837  67.563  1.00  0.00    -0.245 C  
BRANCH  15  25
HETATM   25  C   UNL     1      -7.954  16.417  68.981  1.00  0.00    -0.227 C  
HETATM   26  C   UNL     1      -6.523  16.604  68.528  1.00  0.00    -0.139 C  
HETATM   27  C   UNL     1      -7.112  17.541  69.535  1.00  0.00     0.073 C  
ENDBRANCH  15  25
ENDBRANCH   7  10
BRANCH   9  28
HETATM   28  C   UNL     1      -8.777   8.750  65.603  1.00  0.00    -0.184 C  
HETATM   29  H1  UNL     1      -9.825   8.829  63.813  1.00  0.00     0.000 HD 
HETATM   30  N   UNL     1      -9.747   9.350  64.686  1.00  0.00    -0.337 NA 
HETATM   31  H2  UNL     1      -9.532  10.332  64.513  1.00  0.00     0.000 HD 
ENDBRANCH   9  28
ENDBRANCH   3   5
ENDBRANCH   2   3
TORSDOF 5
ENDMDL
MODEL       48
REMARK 921   NORMALIZED FREE ENERGY PREDICTED BY IDOCK:   -5.72 KCAL/MOL
REMARK 922        TOTAL FREE ENERGY PREDICTED BY IDOCK:   -8.55 KCAL/MOL
REMARK 923 INTER-LIGAND FREE ENERGY PREDICTED BY IDOCK:   -7.33 KCAL/MOL
REMARK 924 INTRA-LIGAND FREE ENERGY PREDICTED BY IDOCK:   -1.21 KCAL/MOL
REMARK 927      BINDING AFFINITY PREDICTED BY RF-SCORE:    0.00 PKD
ROOT
HETATM    1  C   UNL     1      -7.379   8.370  70.243  1.00  0.00    -0.055 C  
HETATM    2  O   UNL     1      -8.653   8.775  69.759  1.00  0.00    -0.124 OA 
ENDROOT
BRANCH   2   3
HETATM    3  N   UNL     1      -8.706  10.176  69.738  1.00  0.00    -0.341 NA 
HETATM    4  H   UNL     1      -8.169  10.791  70.350  1.00  0.00     0.000 HD 
BRANCH   3   5
HETATM    5  C   UNL     1      -9.539  10.579  68.826  1.00  0.00    -0.179 C  
HETATM    6  C   UNL     1      -9.183  11.296  67.550  1.00  0.00    -0.158 C  
HETATM    7  N   UNL     1     -10.461  11.857  67.110  1.00  0.00    -0.217 NA 
HETATM    8  C   UNL     1     -11.584  11.329  67.909  1.00  0.00    -0.256 C  
HETATM    9  C   UNL     1     -11.018  10.312  68.915  1.00  0.00    -0.279 C  
BRANCH   7  10
HETATM   10  C   UNL     1     -10.478  13.203  66.756  1.00  0.00    -0.261 A  
HETATM   11  N   UNL     1      -9.610  14.033  67.386  1.00  0.00    -0.222 NA 
HETATM   12  O   UNL     1      -9.976  20.146  65.381  1.00  0.00    -0.242 OA 
HETATM   13  C   UNL     1      -9.579  15.357  67.098  1.00  0.00    -0.212 A  
HETATM   14  C   UNL     1     -10.433  15.903  66.143  1.00  0.00    -0.336 A  
HETATM   15  N   UNL     1      -8.649  16.205  67.762  1.00  0.00    -0.166 NA 
HETATM   16  C   UNL     1     -10.360  17.347  65.845  1.00  0.00    -0.269 C  
HETATM   17  O   UNL     1      -8.359  20.294  66.943  1.00  0.00    -0.313 OA 
HETATM   18  C   UNL     1     -11.313  15.074  65.457  1.00  0.00    -0.312 A  
HETATM   19  F   UNL     1     -12.168  12.923  65.085  1.00  0.00    -0.394 F  
HETATM   20  C   UNL     1      -9.381  18.180  66.578  1.00  0.00    -0.301 C  
HETATM   21  O   UNL     1     -11.091  17.858  64.998  1.00  0.00    -0.705 OA 
HETATM   22  C   UNL     1     -11.327  13.718  65.765  1.00  0.00    -0.304 A  
HETATM   23  C   UNL     1      -9.184  19.622  66.340  1.00  0.00    -0.381 C  
HETATM   24  C   UNL     1      -8.618  17.556  67.484  1.00  0.00    -0.221 C  
BRANCH  15  25
HETATM   25  C   UNL     1      -7.543  15.576  68.508  1.00  0.00    -0.127 C  
HETATM   26  C   UNL     1      -6.294  15.182  67.750  1.00  0.00    -0.181 C  
HETATM   27  C   UNL     1      -6.218  16.233  68.812  1.00  0.00    -0.122 C  
ENDBRANCH  15  25
ENDBRANCH   7  10
BRANCH   9  28
HETATM   28  C   UNL     1     -11.563  10.489  70.330  1.00  0.00    -0.332 C  
HETATM   29  H1  UNL     1     -11.622   9.461  72.132  1.00  0.00     0.000 HD 
HETATM   30  N   UNL     1     -11.257   9.343  71.187  1.00  0.00    -0.325 NA 
HETATM   31  H2  UNL     1     -10.256   9.148  71.199  1.00  0.00     0.000 HD 
ENDBRANCH   9  28
ENDBRANCH   3   5
ENDBRANCH   2   3
TORSDOF 5
ENDMDL
MODEL       49
REMARK 921   NORMALIZED FREE ENERGY PREDICTED BY IDOCK:   -5.70 KCAL/MOL
REMARK 922        TOTAL FREE ENERGY PREDICTED BY IDOCK:   -8.53 KCAL/MOL
REMARK 923 INTER-LIGAND FREE ENERGY PREDICTED BY IDOCK:   -7.93 KCAL/MOL
REMARK 924 INTRA-LIGAND FREE ENERGY PREDICTED BY IDOCK:   -0.59 KCAL/MOL
REMARK 927      BINDING AFFINITY PREDICTED BY RF-SCORE:    0.00 PKD
ROOT
HETATM    1  C   UNL     1     -13.929  13.148  72.209  1.00  0.00    -0.394 C  
HETATM    2  O   UNL     1     -14.180  14.267  73.049  1.00  0.00    -0.272 OA 
ENDROOT
BRANCH   2   3
HETATM    3  N   UNL     1     -14.372  15.402  72.248  1.00  0.00    -0.551 NA 
HETATM    4  H   UNL     1     -15.171  16.033  72.311  1.00  0.00     0.000 HD 
BRANCH   3   5
HETATM    5  C   UNL     1     -13.385  15.534  71.413  1.00  0.00    -0.511 C  
HETATM    6  C   UNL     1     -13.390  15.138  69.960  1.00  0.00     0.403 C  
HETATM    7  N   UNL     1     -11.968  15.118  69.612  1.00  0.00    -0.323 NA 
HETATM    8  C   UNL     1     -11.143  15.699  70.688  1.00  0.00    -0.359 C  
HETATM    9  C   UNL     1     -12.083  16.179  71.805  1.00  0.00    -0.517 C  
BRANCH   7  10
HETATM   10  C   UNL     1     -11.490  13.993  68.946  1.00  0.00    -0.294 A  
HETATM   11  N   UNL     1     -11.468  12.820  69.625  1.00  0.00    -0.228 NA 
HETATM   12  O   UNL     1      -9.262   7.869  66.140  1.00  0.00    -0.187 OA 
HETATM   13  C   UNL     1     -11.006  11.686  69.042  1.00  0.00    -0.233 A  
HETATM   14  C   UNL     1     -10.546  11.692  67.728  1.00  0.00    -0.227 A  
HETATM   15  N   UNL     1     -11.008  10.464  69.770  1.00  0.00    -0.273 NA 
HETATM   16  C   UNL     1     -10.065  10.436  67.121  1.00  0.00    -0.208 C  
HETATM   17  O   UNL     1      -9.695   6.860  68.107  1.00  0.00    -0.130 OA 
HETATM   18  C   UNL     1     -10.585  12.873  66.994  1.00  0.00    -0.261 A  
HETATM   19  F   UNL     1     -11.115  15.154  66.888  1.00  0.00    -0.310 F  
HETATM   20  C   UNL     1     -10.077   9.199  67.933  1.00  0.00    -0.246 C  
HETATM   21  O   UNL     1      -9.665  10.404  65.958  1.00  0.00    -0.189 OA 
HETATM   22  C   UNL     1     -11.066  14.023  67.610  1.00  0.00    -0.282 A  
HETATM   23  C   UNL     1      -9.663   7.877  67.428  1.00  0.00    -0.161 C  
HETATM   24  C   UNL     1     -10.528   9.308  69.189  1.00  0.00    -0.217 C  
BRANCH  15  25
HETATM   25  C   UNL     1     -11.792  10.397  71.017  1.00  0.00    -0.361 C  
HETATM   26  C   UNL     1     -13.130   9.692  70.990  1.00  0.00    -0.310 C  
HETATM   27  C   UNL     1     -12.020   9.146  71.832  1.00  0.00    -0.443 C  
ENDBRANCH  15  25
ENDBRANCH   7  10
BRANCH   9  28
HETATM   28  C   UNL     1     -11.623  15.774  73.204  1.00  0.00    -0.119 C  
HETATM   29  H1  UNL     1     -12.176  16.055  75.184  1.00  0.00     0.000 HD 
HETATM   30  N   UNL     1     -12.484  16.325  74.250  1.00  0.00    -0.728 NA 
HETATM   31  H2  UNL     1     -13.460  16.074  74.096  1.00  0.00     0.000 HD 
ENDBRANCH   9  28
ENDBRANCH   3   5
ENDBRANCH   2   3
TORSDOF 5
ENDMDL
MODEL       50
REMARK 921   NORMALIZED FREE ENERGY PREDICTED BY IDOCK:   -5.69 KCAL/MOL
REMARK 922        TOTAL FREE ENERGY PREDICTED BY IDOCK:   -8.51 KCAL/MOL
REMARK 923 INTER-LIGAND FREE ENERGY PREDICTED BY IDOCK:   -7.87 KCAL/MOL
REMARK 924 INTRA-LIGAND FREE ENERGY PREDICTED BY IDOCK:   -0.64 KCAL/MOL
REMARK 927      BINDING AFFINITY PREDICTED BY RF-SCORE:    0.00 PKD
ROOT
HETATM    1  C   UNL     1     -10.552   5.851  68.150  1.00  0.00    -0.244 C  
HETATM    2  O   UNL     1     -10.320   6.175  69.515  1.00  0.00    -0.183 OA 
ENDROOT
BRANCH   2   3
HETATM    3  N   UNL     1      -9.796   7.474  69.591  1.00  0.00    -0.178 NA 
HETATM    4  H   UNL     1      -8.823   7.722  69.412  1.00  0.00     0.000 HD 
BRANCH   3   5
HETATM    5  C   UNL     1     -10.730   8.314  69.922  1.00  0.00    -0.234 C  
HETATM    6  C   UNL     1     -11.426   9.280  68.999  1.00  0.00     0.440 C  
HETATM    7  N   UNL     1     -12.058  10.228  69.918  1.00  0.00    -0.163 NA 
HETATM    8  C   UNL     1     -11.978   9.758  71.314  1.00  0.00    -0.386 C  
HETATM    9  C   UNL     1     -11.289   8.383  71.317  1.00  0.00    -0.314 C  
BRANCH   7  10
HETATM   10  C   UNL     1     -11.869  11.583  69.665  1.00  0.00    -0.354 A  
HETATM   11  N   UNL     1     -11.376  11.937  68.453  1.00  0.00    -0.250 NA 
HETATM   12  O   UNL     1     -10.738  18.303  67.687  1.00  0.00    -0.419 OA 
HETATM   13  C   UNL     1     -11.156  13.238  68.142  1.00  0.00    -0.259 A  
HETATM   14  C   UNL     1     -11.437  14.250  69.057  1.00  0.00    -0.318 A  
HETATM   15  N   UNL     1     -10.653  13.584  66.857  1.00  0.00    -0.269 NA 
HETATM   16  C   UNL     1     -11.200  15.657  68.677  1.00  0.00    -0.338 C  
HETATM   17  O   UNL     1      -9.992  17.547  65.700  1.00  0.00    -0.561 OA 
HETATM   18  C   UNL     1     -11.973  13.923  70.297  1.00  0.00    -0.401 A  
HETATM   19  F   UNL     1     -12.726  12.278  71.788  1.00  0.00    -0.409 F  
HETATM   20  C   UNL     1     -10.661  15.954  67.332  1.00  0.00    -0.313 C  
HETATM   21  O   UNL     1     -11.449  16.575  69.457  1.00  0.00    -0.188 OA 
HETATM   22  C   UNL     1     -12.193  12.583  70.594  1.00  0.00    -0.276 A  
HETATM   23  C   UNL     1     -10.422  17.317  66.822  1.00  0.00    -0.261 C  
HETATM   24  C   UNL     1     -10.415  14.906  66.537  1.00  0.00    -0.297 C  
BRANCH  15  25
HETATM   25  C   UNL     1     -10.677  12.557  65.800  1.00  0.00    -0.269 C  
HETATM   26  C   UNL     1     -11.661  12.718  64.661  1.00  0.00    -0.405 C  
HETATM   27  C   UNL     1     -10.192  12.759  64.384  1.00  0.00    -0.344 C  
ENDBRANCH  15  25
ENDBRANCH   7  10
BRANCH   9  28
HETATM   28  C   UNL     1     -10.212   8.246  72.391  1.00  0.00    -0.327 C  
HETATM   29  H1  UNL     1      -8.276   8.892  72.767  1.00  0.00     0.000 HD 
HETATM   30  N   UNL     1      -8.996   8.984  72.050  1.00  0.00    -0.351 NA 
HETATM   31  H2  UNL     1      -9.201   9.964  71.856  1.00  0.00     0.000 HD 
ENDBRANCH   9  28
ENDBRANCH   3   5
ENDBRANCH   2   3
TORSDOF 5
ENDMDL
MODEL       51
REMARK 921   NORMALIZED FREE ENERGY PREDICTED BY IDOCK:   -5.67 KCAL/MOL
REMARK 922        TOTAL FREE ENERGY PREDICTED BY IDOCK:   -8.48 KCAL/MOL
REMARK 923 INTER-LIGAND FREE ENERGY PREDICTED BY IDOCK:   -7.64 KCAL/MOL
REMARK 924 INTRA-LIGAND FREE ENERGY PREDICTED BY IDOCK:   -0.84 KCAL/MOL
REMARK 927      BINDING AFFINITY PREDICTED BY RF-SCORE:    0.00 PKD
ROOT
HETATM    1  C   UNL     1     -11.838  15.935  72.282  1.00  0.00    -0.516 C  
HETATM    2  O   UNL     1     -12.249  15.708  70.940  1.00  0.00    -0.361 OA 
ENDROOT
BRANCH   2   3
HETATM    3  N   UNL     1     -11.281  14.924  70.295  1.00  0.00    -0.355 NA 
HETATM    4  H   UNL     1     -10.571  14.367  70.769  1.00  0.00     0.000 HD 
BRANCH   3   5
HETATM    5  C   UNL     1     -11.422  15.010  69.006  1.00  0.00    -0.304 C  
HETATM    6  C   UNL     1     -12.065  13.983  68.111  1.00  0.00    -0.272 C  
HETATM    7  N   UNL     1     -11.609  14.369  66.774  1.00  0.00    -0.371 NA 
HETATM    8  C   UNL     1     -10.936  15.682  66.794  1.00  0.00    -0.230 C  
HETATM    9  C   UNL     1     -10.991  16.226  68.231  1.00  0.00    -0.348 C  
BRANCH   7  10
HETATM   10  C   UNL     1     -11.079  13.367  65.968  1.00  0.00    -0.283 A  
HETATM   11  N   UNL     1     -10.413  12.354  66.575  1.00  0.00    -0.228 NA 
HETATM   12  O   UNL     1      -8.202   7.902  62.473  1.00  0.00    -0.170 OA 
HETATM   13  C   UNL     1      -9.862  11.349  65.850  1.00  0.00    -0.226 A  
HETATM   14  C   UNL     1      -9.968  11.325  64.462  1.00  0.00    -0.334 A  
HETATM   15  N   UNL     1      -9.182  10.289  66.512  1.00  0.00    -0.151 NA 
HETATM   16  C   UNL     1      -9.369  10.207  63.707  1.00  0.00    -0.288 C  
HETATM   17  O   UNL     1      -7.492   7.072  64.444  1.00  0.00    -0.085 OA 
HETATM   18  C   UNL     1     -10.672  12.333  63.811  1.00  0.00    -0.494 A  
HETATM   19  F   UNL     1     -11.924  14.310  63.938  1.00  0.00    -0.431 F  
HETATM   20  C   UNL     1      -8.661   9.140  64.450  1.00  0.00    -0.184 C  
HETATM   21  O   UNL     1      -9.457  10.149  62.481  1.00  0.00    -0.301 OA 
HETATM   22  C   UNL     1     -11.232  13.352  64.574  1.00  0.00    -0.372 A  
HETATM   23  C   UNL     1      -8.059   7.953  63.815  1.00  0.00    -0.079 C  
HETATM   24  C   UNL     1      -8.607   9.268  65.781  1.00  0.00    -0.152 C  
BRANCH  15  25
HETATM   25  C   UNL     1      -9.361  10.148  67.968  1.00  0.00    -0.141 C  
HETATM   26  C   UNL     1     -10.462   9.243  68.475  1.00  0.00    -0.240 C  
HETATM   27  C   UNL     1      -9.034   8.909  68.766  1.00  0.00    -0.134 C  
ENDBRANCH  15  25
ENDBRANCH   7  10
BRANCH   9  28
HETATM   28  C   UNL     1      -9.659  16.792  68.718  1.00  0.00    -0.260 C  
HETATM   29  H1  UNL     1      -8.659  18.609  68.797  1.00  0.00     0.000 HD 
HETATM   30  N   UNL     1      -9.548  18.230  68.473  1.00  0.00    -0.329 NA 
HETATM   31  H2  UNL     1     -10.335  18.736  68.880  1.00  0.00     0.000 HD 
ENDBRANCH   9  28
ENDBRANCH   3   5
ENDBRANCH   2   3
TORSDOF 5
ENDMDL
MODEL       52
REMARK 921   NORMALIZED FREE ENERGY PREDICTED BY IDOCK:   -5.65 KCAL/MOL
REMARK 922        TOTAL FREE ENERGY PREDICTED BY IDOCK:   -8.46 KCAL/MOL
REMARK 923 INTER-LIGAND FREE ENERGY PREDICTED BY IDOCK:   -7.63 KCAL/MOL
REMARK 924 INTRA-LIGAND FREE ENERGY PREDICTED BY IDOCK:   -0.82 KCAL/MOL
REMARK 927      BINDING AFFINITY PREDICTED BY RF-SCORE:    0.00 PKD
ROOT
HETATM    1  C   UNL     1     -12.510  15.649  74.384  1.00  0.00    -0.634 C  
HETATM    2  O   UNL     1     -13.166  15.095  73.251  1.00  0.00    -0.478 OA 
ENDROOT
BRANCH   2   3
HETATM    3  N   UNL     1     -12.288  15.127  72.157  1.00  0.00    -0.336 NA 
HETATM    4  H   UNL     1     -11.594  15.854  71.986  1.00  0.00     0.000 HD 
BRANCH   3   5
HETATM    5  C   UNL     1     -12.487  14.095  71.393  1.00  0.00    -0.359 C  
HETATM    6  C   UNL     1     -13.106  12.786  71.810  1.00  0.00    -0.356 C  
HETATM    7  N   UNL     1     -12.730  11.876  70.726  1.00  0.00    -0.211 NA 
HETATM    8  C   UNL     1     -12.135  12.608  69.592  1.00  0.00    -0.213 C  
HETATM    9  C   UNL     1     -12.162  14.109  69.924  1.00  0.00    -0.416 C  
BRANCH   7  10
HETATM   10  C   UNL     1     -12.176  10.651  71.086  1.00  0.00    -0.374 A  
HETATM   11  N   UNL     1     -10.963  10.331  70.572  1.00  0.00    -0.307 NA 
HETATM   12  O   UNL     1      -8.746   4.617  72.563  1.00  0.00    -0.113 OA 
HETATM   13  C   UNL     1     -10.369   9.150  70.871  1.00  0.00    -0.280 A  
HETATM   14  C   UNL     1     -10.984   8.233  71.720  1.00  0.00    -0.342 A  
HETATM   15  N   UNL     1      -9.088   8.844  70.331  1.00  0.00    -0.173 NA 
HETATM   16  C   UNL     1     -10.299   6.964  72.035  1.00  0.00    -0.199 C  
HETATM   17  O   UNL     1      -7.074   5.287  71.209  1.00  0.00    -0.060 OA 
HETATM   18  C   UNL     1     -12.214   8.545  72.288  1.00  0.00    -0.454 A  
HETATM   19  F   UNL     1     -13.983  10.061  72.538  1.00  0.00    -0.361 F  
HETATM   20  C   UNL     1      -8.975   6.696  71.432  1.00  0.00    -0.139 C  
HETATM   21  O   UNL     1     -10.810   6.139  72.792  1.00  0.00    -0.226 OA 
HETATM   22  C   UNL     1     -12.804   9.763  71.970  1.00  0.00    -0.401 A  
HETATM   23  C   UNL     1      -8.175   5.487  71.703  1.00  0.00    -0.119 C  
HETATM   24  C   UNL     1      -8.481   7.639  70.621  1.00  0.00    -0.127 C  
BRANCH  15  25
HETATM   25  C   UNL     1      -8.311   9.938  69.719  1.00  0.00    -0.183 C  
HETATM   26  C   UNL     1      -6.960  10.279  70.308  1.00  0.00    -0.136 C  
HETATM   27  C   UNL     1      -7.050   9.758  68.909  1.00  0.00    -0.067 C  
ENDBRANCH  15  25
ENDBRANCH   7  10
BRANCH   9  28
HETATM   28  C   UNL     1     -10.847  14.822  69.620  1.00  0.00    -0.226 C  
HETATM   29  H1  UNL     1     -10.086  16.752  69.542  1.00  0.00     0.000 HD 
HETATM   30  N   UNL     1     -10.964  16.275  69.746  1.00  0.00    -0.343 NA 
HETATM   31  H2  UNL     1     -11.323  16.538  70.664  1.00  0.00     0.000 HD 
ENDBRANCH   9  28
ENDBRANCH   3   5
ENDBRANCH   2   3
TORSDOF 5
ENDMDL
MODEL       53
REMARK 921   NORMALIZED FREE ENERGY PREDICTED BY IDOCK:   -5.63 KCAL/MOL
REMARK 922        TOTAL FREE ENERGY PREDICTED BY IDOCK:   -8.43 KCAL/MOL
REMARK 923 INTER-LIGAND FREE ENERGY PREDICTED BY IDOCK:   -8.26 KCAL/MOL
REMARK 924 INTRA-LIGAND FREE ENERGY PREDICTED BY IDOCK:   -0.17 KCAL/MOL
REMARK 927      BINDING AFFINITY PREDICTED BY RF-SCORE:    0.00 PKD
ROOT
HETATM    1  C   UNL     1      -9.461  15.657  69.093  1.00  0.00    -0.256 C  
HETATM    2  O   UNL     1      -9.798  15.527  67.718  1.00  0.00    -0.212 OA 
ENDROOT
BRANCH   2   3
HETATM    3  N   UNL     1     -11.194  15.531  67.590  1.00  0.00    -0.316 NA 
HETATM    4  H   UNL     1     -11.808  16.281  67.907  1.00  0.00     0.000 HD 
BRANCH   3   5
HETATM    5  C   UNL     1     -11.594  14.440  67.008  1.00  0.00    -0.384 C  
HETATM    6  C   UNL     1     -11.812  13.106  67.674  1.00  0.00    -0.359 C  
HETATM    7  N   UNL     1     -11.855  12.171  66.548  1.00  0.00    -0.615 NA 
HETATM    8  C   UNL     1     -11.910  12.885  65.258  1.00  0.00    -0.392 C  
HETATM    9  C   UNL     1     -11.956  14.395  65.548  1.00  0.00    -0.358 C  
BRANCH   7  10
HETATM   10  C   UNL     1     -11.066  11.029  66.638  1.00  0.00    -0.133 A  
HETATM   11  N   UNL     1     -10.837  10.515  67.871  1.00  0.00    -0.260 NA 
HETATM   12  O   UNL     1      -7.206   5.191  67.810  1.00  0.00    -0.065 OA 
HETATM   13  C   UNL     1     -10.068   9.410  68.034  1.00  0.00    -0.191 A  
HETATM   14  C   UNL     1      -9.496   8.767  66.939  1.00  0.00    -0.231 A  
HETATM   15  N   UNL     1      -9.856   8.880  69.337  1.00  0.00    -0.179 NA 
HETATM   16  C   UNL     1      -8.678   7.558  67.153  1.00  0.00    -0.121 C  
HETATM   17  O   UNL     1      -7.582   5.438  70.018  1.00  0.00    -0.067 OA 
HETATM   18  C   UNL     1      -9.737   9.252  65.658  1.00  0.00    -0.302 A  
HETATM   19  F   UNL     1     -10.771  10.833  64.271  1.00  0.00    -0.434 F  
HETATM   20  C   UNL     1      -8.481   7.062  68.534  1.00  0.00    -0.121 C  
HETATM   21  O   UNL     1      -8.169   6.959  66.207  1.00  0.00    -0.107 OA 
HETATM   22  C   UNL     1     -10.531  10.384  65.513  1.00  0.00    -0.122 A  
HETATM   23  C   UNL     1      -7.722   5.844  68.873  1.00  0.00    -0.091 C  
HETATM   24  C   UNL     1      -9.065   7.763  69.514  1.00  0.00    -0.146 C  
BRANCH  15  25
HETATM   25  C   UNL     1     -10.722   9.356  70.432  1.00  0.00    -0.263 C  
HETATM   26  C   UNL     1     -11.705   8.385  71.048  1.00  0.00    -0.296 C  
HETATM   27  C   UNL     1     -10.594   8.945  71.879  1.00  0.00    -0.419 C  
ENDBRANCH  15  25
ENDBRANCH   7  10
BRANCH   9  28
HETATM   28  C   UNL     1     -11.000  15.209  64.680  1.00  0.00    -0.303 C  
HETATM   29  H1  UNL     1     -11.058  16.788  63.333  1.00  0.00     0.000 HD 
HETATM   30  N   UNL     1     -11.696  16.244  63.914  1.00  0.00    -1.518 NA 
HETATM   31  H2  UNL     1     -12.246  16.848  64.525  1.00  0.00     0.000 HD 
ENDBRANCH   9  28
ENDBRANCH   3   5
ENDBRANCH   2   3
TORSDOF 5
ENDMDL
MODEL       54
REMARK 921   NORMALIZED FREE ENERGY PREDICTED BY IDOCK:   -5.58 KCAL/MOL
REMARK 922        TOTAL FREE ENERGY PREDICTED BY IDOCK:   -8.37 KCAL/MOL
REMARK 923 INTER-LIGAND FREE ENERGY PREDICTED BY IDOCK:   -7.30 KCAL/MOL
REMARK 924 INTRA-LIGAND FREE ENERGY PREDICTED BY IDOCK:   -1.07 KCAL/MOL
REMARK 927      BINDING AFFINITY PREDICTED BY RF-SCORE:    0.00 PKD
ROOT
HETATM    1  C   UNL     1     -11.282   6.375  68.628  1.00  0.00    -0.248 C  
HETATM    2  O   UNL     1     -10.922   7.067  69.817  1.00  0.00    -0.245 OA 
ENDROOT
BRANCH   2   3
HETATM    3  N   UNL     1      -9.537   6.953  70.007  1.00  0.00    -0.158 NA 
HETATM    4  H   UNL     1      -9.072   6.168  70.462  1.00  0.00     0.000 HD 
BRANCH   3   5
HETATM    5  C   UNL     1      -8.931   7.993  69.517  1.00  0.00    -0.148 C  
HETATM    6  C   UNL     1      -9.337   9.431  69.711  1.00  0.00    -0.203 C  
HETATM    7  N   UNL     1      -8.598  10.133  68.660  1.00  0.00    -0.118 NA 
HETATM    8  C   UNL     1      -7.611   9.248  68.013  1.00  0.00    -0.084 C  
HETATM    9  C   UNL     1      -7.664   7.880  68.713  1.00  0.00    -0.112 C  
BRANCH   7  10
HETATM   10  C   UNL     1      -9.315  11.020  67.861  1.00  0.00    -0.158 A  
HETATM   11  N   UNL     1      -8.888  12.305  67.805  1.00  0.00    -0.165 NA 
HETATM   12  O   UNL     1     -12.445  16.032  63.934  1.00  0.00    -0.806 OA 
HETATM   13  C   UNL     1      -9.545  13.225  67.055  1.00  0.00    -0.243 A  
HETATM   14  C   UNL     1     -10.672  12.875  66.317  1.00  0.00    -0.292 A  
HETATM   15  N   UNL     1      -9.068  14.564  67.000  1.00  0.00    -0.227 NA 
HETATM   16  C   UNL     1     -11.351  13.900  65.500  1.00  0.00    -0.308 C  
HETATM   17  O   UNL     1     -10.918  17.510  64.681  1.00  0.00    -0.892 OA 
HETATM   18  C   UNL     1     -11.117  11.557  66.329  1.00  0.00    -0.321 A  
HETATM   19  F   UNL     1     -10.854   9.357  67.093  1.00  0.00    -0.328 F  
HETATM   20  C   UNL     1     -10.818  15.280  65.494  1.00  0.00    -0.382 C  
HETATM   21  O   UNL     1     -12.342  13.621  64.827  1.00  0.00    -0.429 OA 
HETATM   22  C   UNL     1     -10.427  10.630  67.102  1.00  0.00    -0.245 A  
HETATM   23  C   UNL     1     -11.381  16.379  64.688  1.00  0.00    -0.161 C  
HETATM   24  C   UNL     1      -9.736  15.510  66.249  1.00  0.00    -0.302 C  
BRANCH  15  25
HETATM   25  C   UNL     1      -7.709  14.842  67.503  1.00  0.00    -0.194 C  
HETATM   26  C   UNL     1      -7.160  16.244  67.359  1.00  0.00    -0.200 C  
HETATM   27  C   UNL     1      -7.389  15.672  68.722  1.00  0.00    -0.144 C  
ENDBRANCH  15  25
ENDBRANCH   7  10
BRANCH   9  28
HETATM   28  C   UNL     1      -7.687   6.702  67.743  1.00  0.00    -0.107 C  
HETATM   29  H1  UNL     1      -7.606   4.628  67.786  1.00  0.00     0.000 HD 
HETATM   30  N   UNL     1      -7.591   5.415  68.434  1.00  0.00    -0.079 NA 
HETATM   31  H2  UNL     1      -8.318   5.323  69.144  1.00  0.00     0.000 HD 
ENDBRANCH   9  28
ENDBRANCH   3   5
ENDBRANCH   2   3
TORSDOF 5
ENDMDL
MODEL       55
REMARK 921   NORMALIZED FREE ENERGY PREDICTED BY IDOCK:   -5.56 KCAL/MOL
REMARK 922        TOTAL FREE ENERGY PREDICTED BY IDOCK:   -8.34 KCAL/MOL
REMARK 923 INTER-LIGAND FREE ENERGY PREDICTED BY IDOCK:   -7.10 KCAL/MOL
REMARK 924 INTRA-LIGAND FREE ENERGY PREDICTED BY IDOCK:   -1.24 KCAL/MOL
REMARK 927      BINDING AFFINITY PREDICTED BY RF-SCORE:    0.00 PKD
ROOT
HETATM    1  C   UNL     1      -7.967   7.749  66.928  1.00  0.00    -0.112 C  
HETATM    2  O   UNL     1      -8.615   8.889  67.477  1.00  0.00    -0.119 OA 
ENDROOT
BRANCH   2   3
HETATM    3  N   UNL     1      -9.891   8.516  67.926  1.00  0.00    -0.162 NA 
HETATM    4  H   UNL     1     -10.164   7.568  68.183  1.00  0.00     0.000 HD 
BRANCH   3   5
HETATM    5  C   UNL     1     -10.673   9.553  67.965  1.00  0.00    -0.212 C  
HETATM    6  C   UNL     1     -10.972  10.485  66.821  1.00  0.00    -0.080 C  
HETATM    7  N   UNL     1     -11.549  11.656  67.483  1.00  0.00    -0.531 NA 
HETATM    8  C   UNL     1     -11.825  11.387  68.907  1.00  0.00    -0.347 C  
HETATM    9  C   UNL     1     -11.451   9.924  69.198  1.00  0.00    -0.017 C  
BRANCH   7  10
HETATM   10  C   UNL     1     -11.038  12.902  67.133  1.00  0.00    -0.275 A  
HETATM   11  N   UNL     1      -9.735  13.152  67.411  1.00  0.00    -0.215 NA 
HETATM   12  O   UNL     1      -7.777  19.002  65.549  1.00  0.00    -0.436 OA 
HETATM   13  C   UNL     1      -9.174  14.348  67.107  1.00  0.00    -0.222 A  
HETATM   14  C   UNL     1      -9.918  15.354  66.495  1.00  0.00    -0.282 A  
HETATM   15  N   UNL     1      -7.800  14.580  67.394  1.00  0.00    -0.193 NA 
HETATM   16  C   UNL     1      -9.270  16.638  66.165  1.00  0.00    -0.277 C  
HETATM   17  O   UNL     1      -5.887  18.177  66.455  1.00  0.00    -0.144 OA 
HETATM   18  C   UNL     1     -11.250  15.118  66.169  1.00  0.00    -0.271 A  
HETATM   19  F   UNL     1     -13.085  13.660  66.152  1.00  0.00    -0.344 F  
HETATM   20  C   UNL     1      -7.841  16.825  66.502  1.00  0.00    -0.338 C  
HETATM   21  O   UNL     1      -9.896  17.542  65.613  1.00  0.00    -0.543 OA 
HETATM   22  C   UNL     1     -11.804  13.884  66.486  1.00  0.00    -0.414 A  
HETATM   23  C   UNL     1      -7.072  18.043  66.185  1.00  0.00    -0.295 C  
HETATM   24  C   UNL     1      -7.224  15.799  67.099  1.00  0.00    -0.206 C  
BRANCH  15  25
HETATM   25  C   UNL     1      -6.952  13.419  67.725  1.00  0.00    -0.156 C  
HETATM   26  C   UNL     1      -5.494  13.660  68.046  1.00  0.00    -0.116 C  
HETATM   27  C   UNL     1      -6.405  13.109  69.097  1.00  0.00    -0.104 C  
ENDBRANCH  15  25
ENDBRANCH   7  10
BRANCH   9  28
HETATM   28  C   UNL     1     -10.640   9.749  70.481  1.00  0.00    -0.312 C  
HETATM   29  H1  UNL     1      -8.666   9.829  71.116  1.00  0.00     0.000 HD 
HETATM   30  N   UNL     1      -9.207   9.947  70.260  1.00  0.00    -0.375 NA 
HETATM   31  H2  UNL     1      -9.022  10.852  69.827  1.00  0.00     0.000 HD 
ENDBRANCH   9  28
ENDBRANCH   3   5
ENDBRANCH   2   3
TORSDOF 5
ENDMDL
MODEL       56
REMARK 921   NORMALIZED FREE ENERGY PREDICTED BY IDOCK:   -5.53 KCAL/MOL
REMARK 922        TOTAL FREE ENERGY PREDICTED BY IDOCK:   -8.30 KCAL/MOL
REMARK 923 INTER-LIGAND FREE ENERGY PREDICTED BY IDOCK:   -7.42 KCAL/MOL
REMARK 924 INTRA-LIGAND FREE ENERGY PREDICTED BY IDOCK:   -0.88 KCAL/MOL
REMARK 927      BINDING AFFINITY PREDICTED BY RF-SCORE:    0.00 PKD
ROOT
HETATM    1  C   UNL     1     -10.290  17.191  67.419  1.00  0.00    -0.333 C  
HETATM    2  O   UNL     1     -10.621  15.949  66.810  1.00  0.00    -0.314 OA 
ENDROOT
BRANCH   2   3
HETATM    3  N   UNL     1     -10.078  14.908  67.578  1.00  0.00    -0.228 NA 
HETATM    4  H   UNL     1      -9.166  14.933  68.034  1.00  0.00     0.000 HD 
BRANCH   3   5
HETATM    5  C   UNL     1     -10.905  13.907  67.624  1.00  0.00    -0.254 C  
HETATM    6  C   UNL     1     -11.630  13.409  68.846  1.00  0.00    -0.314 C  
HETATM    7  N   UNL     1     -12.085  12.076  68.447  1.00  0.00    -0.397 NA 
HETATM    8  C   UNL     1     -11.881  11.847  67.004  1.00  0.00    -0.113 C  
HETATM    9  C   UNL     1     -11.297  13.133  66.395  1.00  0.00    -0.349 C  
BRANCH   7  10
HETATM   10  C   UNL     1     -11.829  11.026  69.325  1.00  0.00    -0.340 A  
HETATM   11  N   UNL     1     -11.281   9.896  68.815  1.00  0.00    -0.130 NA 
HETATM   12  O   UNL     1     -10.194   5.337  73.239  1.00  0.00    -0.171 OA 
HETATM   13  C   UNL     1     -11.015   8.830  69.610  1.00  0.00    -0.105 A  
HETATM   14  C   UNL     1     -11.290   8.868  70.975  1.00  0.00    -0.350 A  
HETATM   15  N   UNL     1     -10.426   7.661  69.054  1.00  0.00    -0.214 NA 
HETATM   16  C   UNL     1     -10.972   7.695  71.812  1.00  0.00    -0.239 C  
HETATM   17  O   UNL     1      -9.464   4.315  71.369  1.00  0.00    -0.137 OA 
HETATM   18  C   UNL     1     -11.823  10.024  71.534  1.00  0.00    -0.406 A  
HETATM   19  F   UNL     1     -12.583  12.224  71.254  1.00  0.00    -0.440 F  
HETATM   20  C   UNL     1     -10.374   6.501  71.174  1.00  0.00    -0.237 C  
HETATM   21  O   UNL     1     -11.191   7.700  73.023  1.00  0.00    -0.384 OA 
HETATM   22  C   UNL     1     -12.085  11.106  70.701  1.00  0.00    -0.379 A  
HETATM   23  C   UNL     1      -9.973   5.287  71.908  1.00  0.00    -0.187 C  
HETATM   24  C   UNL     1     -10.163   6.567  69.853  1.00  0.00    -0.184 C  
BRANCH  15  25
HETATM   25  C   UNL     1      -9.839   7.751  67.704  1.00  0.00    -0.163 C  
HETATM   26  C   UNL     1      -8.658   6.866  67.371  1.00  0.00    -0.121 C  
HETATM   27  C   UNL     1      -9.950   6.688  66.638  1.00  0.00    -0.203 C  
ENDBRANCH  15  25
ENDBRANCH   7  10
BRANCH   9  28
HETATM   28  C   UNL     1     -10.118  12.879  65.458  1.00  0.00    -0.257 C  
HETATM   29  H1  UNL     1      -8.882  13.933  64.166  1.00  0.00     0.000 HD 
HETATM   30  N   UNL     1      -9.669  14.102  64.792  1.00  0.00    -0.470 NA 
HETATM   31  H2  UNL     1      -9.452  14.834  65.470  1.00  0.00     0.000 HD 
ENDBRANCH   9  28
ENDBRANCH   3   5
ENDBRANCH   2   3
TORSDOF 5
ENDMDL
MODEL       57
REMARK 921   NORMALIZED FREE ENERGY PREDICTED BY IDOCK:   -5.52 KCAL/MOL
REMARK 922        TOTAL FREE ENERGY PREDICTED BY IDOCK:   -8.29 KCAL/MOL
REMARK 923 INTER-LIGAND FREE ENERGY PREDICTED BY IDOCK:   -7.40 KCAL/MOL
REMARK 924 INTRA-LIGAND FREE ENERGY PREDICTED BY IDOCK:   -0.90 KCAL/MOL
REMARK 927      BINDING AFFINITY PREDICTED BY RF-SCORE:    0.00 PKD
ROOT
HETATM    1  C   UNL     1      -6.779   8.508  72.217  1.00  0.00    -0.082 C  
HETATM    2  O   UNL     1      -8.160   8.262  72.449  1.00  0.00    -0.134 OA 
ENDROOT
BRANCH   2   3
HETATM    3  N   UNL     1      -8.909   9.303  71.882  1.00  0.00    -0.180 NA 
HETATM    4  H   UNL     1      -9.311  10.083  72.402  1.00  0.00     0.000 HD 
BRANCH   3   5
HETATM    5  C   UNL     1      -9.015   9.131  70.598  1.00  0.00    -0.244 C  
HETATM    6  C   UNL     1      -8.330   9.945  69.532  1.00  0.00    -0.168 C  
HETATM    7  N   UNL     1      -9.083   9.614  68.321  1.00  0.00    -0.123 NA 
HETATM    8  C   UNL     1     -10.010   8.490  68.554  1.00  0.00    -0.184 C  
HETATM    9  C   UNL     1      -9.826   8.012  70.004  1.00  0.00    -0.185 C  
BRANCH   7  10
HETATM   10  C   UNL     1      -9.515  10.674  67.530  1.00  0.00    -0.153 A  
HETATM   11  N   UNL     1      -9.262  11.932  67.967  1.00  0.00    -0.184 NA 
HETATM   12  O   UNL     1     -11.363  16.522  63.960  1.00  0.00    -1.064 OA 
HETATM   13  C   UNL     1      -9.664  13.012  67.252  1.00  0.00    -0.225 A  
HETATM   14  C   UNL     1     -10.342  12.861  66.045  1.00  0.00    -0.294 A  
HETATM   15  N   UNL     1      -9.373  14.322  67.724  1.00  0.00    -0.193 NA 
HETATM   16  C   UNL     1     -10.749  14.059  65.287  1.00  0.00    -0.358 C  
HETATM   17  O   UNL     1     -10.464  17.762  65.613  1.00  0.00    -0.613 OA 
HETATM   18  C   UNL     1     -10.589  11.583  65.554  1.00  0.00    -0.334 A  
HETATM   19  F   UNL     1     -10.393   9.262  65.810  1.00  0.00    -0.348 F  
HETATM   20  C   UNL     1     -10.432  15.396  65.836  1.00  0.00    -0.354 C  
HETATM   21  O   UNL     1     -11.339  13.960  64.211  1.00  0.00    -0.365 OA 
HETATM   22  C   UNL     1     -10.166  10.490  66.301  1.00  0.00    -0.235 A  
HETATM   23  C   UNL     1     -10.748  16.665  65.154  1.00  0.00    -0.189 C  
HETATM   24  C   UNL     1      -9.789  15.427  67.009  1.00  0.00    -0.232 C  
BRANCH  15  25
HETATM   25  C   UNL     1      -8.382  14.469  68.806  1.00  0.00    -0.149 C  
HETATM   26  C   UNL     1      -6.993  14.950  68.451  1.00  0.00    -0.110 C  
HETATM   27  C   UNL     1      -7.864  15.784  69.335  1.00  0.00    -0.210 C  
ENDBRANCH  15  25
ENDBRANCH   7  10
BRANCH   9  28
HETATM   28  C   UNL     1     -11.144   7.784  70.740  1.00  0.00    -0.257 C  
HETATM   29  H1  UNL     1     -11.825   7.018  72.545  1.00  0.00     0.000 HD 
HETATM   30  N   UNL     1     -10.945   7.171  72.053  1.00  0.00    -0.230 NA 
HETATM   31  H2  UNL     1     -10.294   7.715  72.620  1.00  0.00     0.000 HD 
ENDBRANCH   9  28
ENDBRANCH   3   5
ENDBRANCH   2   3
TORSDOF 5
ENDMDL
MODEL       58
REMARK 921   NORMALIZED FREE ENERGY PREDICTED BY IDOCK:   -5.51 KCAL/MOL
REMARK 922        TOTAL FREE ENERGY PREDICTED BY IDOCK:   -8.28 KCAL/MOL
REMARK 923 INTER-LIGAND FREE ENERGY PREDICTED BY IDOCK:   -7.41 KCAL/MOL
REMARK 924 INTRA-LIGAND FREE ENERGY PREDICTED BY IDOCK:   -0.87 KCAL/MOL
REMARK 927      BINDING AFFINITY PREDICTED BY RF-SCORE:    0.00 PKD
ROOT
HETATM    1  C   UNL     1      -8.225   6.956  69.357  1.00  0.00    -0.131 C  
HETATM    2  O   UNL     1      -9.590   6.565  69.440  1.00  0.00    -0.144 OA 
ENDROOT
BRANCH   2   3
HETATM    3  N   UNL     1      -9.938   6.415  70.790  1.00  0.00    -0.184 NA 
HETATM    4  H   UNL     1      -9.532   5.728  71.425  1.00  0.00     0.000 HD 
BRANCH   3   5
HETATM    5  C   UNL     1     -10.853   7.277  71.115  1.00  0.00    -0.242 C  
HETATM    6  C   UNL     1     -11.687   8.092  70.161  1.00  0.00     0.183 C  
HETATM    7  N   UNL     1     -12.237   9.148  71.012  1.00  0.00    -0.276 NA 
HETATM    8  C   UNL     1     -11.976   8.880  72.439  1.00  0.00    -0.250 C  
HETATM    9  C   UNL     1     -11.245   7.531  72.546  1.00  0.00    -0.381 C  
BRANCH   7  10
HETATM   10  C   UNL     1     -12.125  10.458  70.554  1.00  0.00    -0.332 A  
HETATM   11  N   UNL     1     -11.529  10.659  69.354  1.00  0.00    -0.269 NA 
HETATM   12  O   UNL     1     -11.301  16.854  67.594  1.00  0.00    -0.049 OA 
HETATM   13  C   UNL     1     -11.377  11.909  68.851  1.00  0.00    -0.278 A  
HETATM   14  C   UNL     1     -11.834  13.023  69.551  1.00  0.00    -0.385 A  
HETATM   15  N   UNL     1     -10.761  12.092  67.582  1.00  0.00    -0.214 NA 
HETATM   16  C   UNL     1     -11.665  14.367  68.965  1.00  0.00    -0.310 C  
HETATM   17  O   UNL     1     -10.282  15.865  65.845  1.00  0.00    -0.306 OA 
HETATM   18  C   UNL     1     -12.479  12.848  70.771  1.00  0.00    -0.370 A  
HETATM   19  F   UNL     1     -13.265  11.398  72.436  1.00  0.00    -0.578 F  
HETATM   20  C   UNL     1     -11.004  14.496  67.648  1.00  0.00    -0.293 C  
HETATM   21  O   UNL     1     -12.070  15.370  69.551  1.00  0.00    -0.333 OA 
HETATM   22  C   UNL     1     -12.627  11.558  71.266  1.00  0.00    -0.347 A  
HETATM   23  C   UNL     1     -10.815  15.777  66.941  1.00  0.00    -0.265 C  
HETATM   24  C   UNL     1     -10.592  13.362  67.068  1.00  0.00    -0.264 C  
BRANCH  15  25
HETATM   25  C   UNL     1     -10.589  10.912  66.714  1.00  0.00    -0.259 C  
HETATM   26  C   UNL     1     -10.053  11.118  65.315  1.00  0.00    -0.329 C  
HETATM   27  C   UNL     1      -9.260  10.325  66.304  1.00  0.00    -0.191 C  
ENDBRANCH  15  25
ENDBRANCH   7  10
BRANCH   9  28
HETATM   28  C   UNL     1     -10.044   7.564  73.488  1.00  0.00    -0.323 C  
HETATM   29  H1  UNL     1      -8.143   8.392  73.583  1.00  0.00     0.000 HD 
HETATM   30  N   UNL     1      -8.946   8.370  72.954  1.00  0.00    -0.293 NA 
HETATM   31  H2  UNL     1      -9.259   9.313  72.722  1.00  0.00     0.000 HD 
ENDBRANCH   9  28
ENDBRANCH   3   5
ENDBRANCH   2   3
TORSDOF 5
ENDMDL
MODEL       59
REMARK 921   NORMALIZED FREE ENERGY PREDICTED BY IDOCK:   -5.45 KCAL/MOL
REMARK 922        TOTAL FREE ENERGY PREDICTED BY IDOCK:   -8.20 KCAL/MOL
REMARK 923 INTER-LIGAND FREE ENERGY PREDICTED BY IDOCK:   -7.20 KCAL/MOL
REMARK 924 INTRA-LIGAND FREE ENERGY PREDICTED BY IDOCK:   -1.00 KCAL/MOL
REMARK 927      BINDING AFFINITY PREDICTED BY RF-SCORE:    0.00 PKD
ROOT
HETATM    1  C   UNL     1      -7.117   4.345  66.517  1.00  0.00    -0.071 C  
HETATM    2  O   UNL     1      -7.709   4.450  67.806  1.00  0.00    -0.079 OA 
ENDROOT
BRANCH   2   3
HETATM    3  N   UNL     1      -7.782   5.804  68.164  1.00  0.00    -0.095 NA 
HETATM    4  H   UNL     1      -7.086   6.299  68.722  1.00  0.00     0.000 HD 
BRANCH   3   5
HETATM    5  C   UNL     1      -8.864   6.337  67.681  1.00  0.00    -0.111 C  
HETATM    6  C   UNL     1      -8.931   7.469  66.689  1.00  0.00    -0.153 C  
HETATM    7  N   UNL     1     -10.317   7.929  66.797  1.00  0.00    -0.316 NA 
HETATM    8  C   UNL     1     -11.129   7.003  67.609  1.00  0.00    -0.119 C  
HETATM    9  C   UNL     1     -10.235   5.824  68.027  1.00  0.00    -0.231 C  
BRANCH   7  10
HETATM   10  C   UNL     1     -10.523   9.297  66.950  1.00  0.00    -0.214 A  
HETATM   11  N   UNL     1     -11.023   9.732  68.132  1.00  0.00    -0.216 NA 
HETATM   12  O   UNL     1     -11.742  16.129  68.428  1.00  0.00    -0.320 OA 
HETATM   13  C   UNL     1     -11.259  11.050  68.346  1.00  0.00    -0.274 A  
HETATM   14  C   UNL     1     -10.990  11.996  67.361  1.00  0.00    -0.311 A  
HETATM   15  N   UNL     1     -11.770  11.483  69.602  1.00  0.00    -0.322 NA 
HETATM   16  C   UNL     1     -11.245  13.423  67.635  1.00  0.00    -0.276 C  
HETATM   17  O   UNL     1     -12.483  15.512  70.464  1.00  0.00    -0.399 OA 
HETATM   18  C   UNL     1     -10.447  11.585  66.148  1.00  0.00    -0.296 A  
HETATM   19  F   UNL     1      -9.669   9.845  64.783  1.00  0.00    -0.332 F  
HETATM   20  C   UNL     1     -11.790  13.812  68.955  1.00  0.00    -0.396 C  
HETATM   21  O   UNL     1     -11.005  14.285  66.791  1.00  0.00    -0.295 OA 
HETATM   22  C   UNL     1     -10.210  10.229  65.951  1.00  0.00    -0.223 A  
HETATM   23  C   UNL     1     -12.047  15.205  69.363  1.00  0.00    -0.260 C  
HETATM   24  C   UNL     1     -12.025  12.821  69.824  1.00  0.00    -0.292 C  
BRANCH  15  25
HETATM   25  C   UNL     1     -11.735  10.537  70.732  1.00  0.00    -0.356 C  
HETATM   26  C   UNL     1     -12.766  10.686  71.829  1.00  0.00    -0.489 C  
HETATM   27  C   UNL     1     -12.753   9.451  70.985  1.00  0.00    -0.270 C  
ENDBRANCH  15  25
ENDBRANCH   7  10
BRANCH   9  28
HETATM   28  C   UNL     1     -10.369   5.453  69.502  1.00  0.00    -0.280 C  
HETATM   29  H1  UNL     1      -9.900   3.885  70.778  1.00  0.00     0.000 HD 
HETATM   30  N   UNL     1      -9.810   4.133  69.793  1.00  0.00    -0.206 NA 
HETATM   31  H2  UNL     1      -8.841   4.066  69.482  1.00  0.00     0.000 HD 
ENDBRANCH   9  28
ENDBRANCH   3   5
ENDBRANCH   2   3
TORSDOF 5
ENDMDL
MODEL       60
REMARK 921   NORMALIZED FREE ENERGY PREDICTED BY IDOCK:   -5.44 KCAL/MOL
REMARK 922        TOTAL FREE ENERGY PREDICTED BY IDOCK:   -8.18 KCAL/MOL
REMARK 923 INTER-LIGAND FREE ENERGY PREDICTED BY IDOCK:   -7.09 KCAL/MOL
REMARK 924 INTRA-LIGAND FREE ENERGY PREDICTED BY IDOCK:   -1.10 KCAL/MOL
REMARK 927      BINDING AFFINITY PREDICTED BY RF-SCORE:    0.00 PKD
ROOT
HETATM    1  C   UNL     1      -8.591   5.196  67.300  1.00  0.00    -0.104 C  
HETATM    2  O   UNL     1      -9.863   5.042  67.917  1.00  0.00    -0.147 OA 
ENDROOT
BRANCH   2   3
HETATM    3  N   UNL     1      -9.687   4.478  69.188  1.00  0.00    -0.184 NA 
HETATM    4  H   UNL     1      -9.309   3.547  69.367  1.00  0.00     0.000 HD 
BRANCH   3   5
HETATM    5  C   UNL     1     -10.074   5.312  70.106  1.00  0.00    -0.263 C  
HETATM    6  C   UNL     1     -11.314   6.167  70.064  1.00  0.00    -0.373 C  
HETATM    7  N   UNL     1     -11.065   7.170  71.101  1.00  0.00    -0.248 NA 
HETATM    8  C   UNL     1      -9.876   6.829  71.906  1.00  0.00    -0.165 C  
HETATM    9  C   UNL     1      -9.327   5.484  71.401  1.00  0.00    -0.174 C  
BRANCH   7  10
HETATM   10  C   UNL     1     -11.271   8.504  70.760  1.00  0.00    -0.257 A  
HETATM   11  N   UNL     1     -10.740   8.947  69.595  1.00  0.00    -0.233 NA 
HETATM   12  O   UNL     1     -12.007  15.147  68.378  1.00  0.00    -0.299 OA 
HETATM   13  C   UNL     1     -10.892  10.237  69.205  1.00  0.00    -0.233 A  
HETATM   14  C   UNL     1     -11.604  11.142  69.987  1.00  0.00    -0.421 A  
HETATM   15  N   UNL     1     -10.338  10.673  67.969  1.00  0.00    -0.170 NA 
HETATM   16  C   UNL     1     -11.764  12.534  69.523  1.00  0.00    -0.309 C  
HETATM   17  O   UNL     1     -10.779  14.589  66.573  1.00  0.00    -0.302 OA 
HETATM   18  C   UNL     1     -12.189  10.711  71.173  1.00  0.00    -0.479 A  
HETATM   19  F   UNL     1     -12.604   8.974  72.690  1.00  0.00    -0.434 F  
HETATM   20  C   UNL     1     -11.152  12.933  68.236  1.00  0.00    -0.294 C  
HETATM   21  O   UNL     1     -12.398  13.355  70.184  1.00  0.00    -0.306 OA 
HETATM   22  C   UNL     1     -12.022   9.384  71.553  1.00  0.00    -0.382 A  
HETATM   23  C   UNL     1     -11.276  14.279  67.646  1.00  0.00    -0.304 C  
HETATM   24  C   UNL     1     -10.478  11.987  67.570  1.00  0.00    -0.212 C  
BRANCH  15  25
HETATM   25  C   UNL     1      -9.887   9.650  67.008  1.00  0.00    -0.195 C  
HETATM   26  C   UNL     1     -10.090   9.909  65.531  1.00  0.00    -0.297 C  
HETATM   27  C   UNL     1      -8.704   9.794  66.081  1.00  0.00    -0.150 C  
ENDBRANCH  15  25
ENDBRANCH   7  10
BRANCH   9  28
HETATM   28  C   UNL     1      -7.812   5.479  71.211  1.00  0.00    -0.110 C  
HETATM   29  H1  UNL     1      -6.302   4.168  70.657  1.00  0.00     0.000 HD 
HETATM   30  N   UNL     1      -7.313   4.172  70.784  1.00  0.00    -0.040 NA 
HETATM   31  H2  UNL     1      -7.792   3.852  69.941  1.00  0.00     0.000 HD 
ENDBRANCH   9  28
ENDBRANCH   3   5
ENDBRANCH   2   3
TORSDOF 5
ENDMDL
MODEL       61
REMARK 921   NORMALIZED FREE ENERGY PREDICTED BY IDOCK:   -5.42 KCAL/MOL
REMARK 922        TOTAL FREE ENERGY PREDICTED BY IDOCK:   -8.16 KCAL/MOL
REMARK 923 INTER-LIGAND FREE ENERGY PREDICTED BY IDOCK:   -7.07 KCAL/MOL
REMARK 924 INTRA-LIGAND FREE ENERGY PREDICTED BY IDOCK:   -1.09 KCAL/MOL
REMARK 927      BINDING AFFINITY PREDICTED BY RF-SCORE:    0.00 PKD
ROOT
HETATM    1  C   UNL     1     -11.028   6.859  67.226  1.00  0.00    -0.336 C  
HETATM    2  O   UNL     1      -9.847   7.298  66.568  1.00  0.00    -0.193 OA 
ENDROOT
BRANCH   2   3
HETATM    3  N   UNL     1     -10.033   8.618  66.131  1.00  0.00    -0.453 NA 
HETATM    4  H   UNL     1     -10.809   8.937  65.551  1.00  0.00     0.000 HD 
BRANCH   3   5
HETATM    5  C   UNL     1      -9.075   9.375  66.574  1.00  0.00    -0.153 C  
HETATM    6  C   UNL     1      -9.167  10.347  67.721  1.00  0.00    -0.142 C  
HETATM    7  N   UNL     1      -7.988  11.196  67.538  1.00  0.00    -0.115 NA 
HETATM    8  C   UNL     1      -7.087  10.650  66.505  1.00  0.00    -0.133 C  
HETATM    9  C   UNL     1      -7.684   9.325  66.003  1.00  0.00    -0.096 C  
BRANCH   7  10
HETATM   10  C   UNL     1      -8.182  12.573  67.585  1.00  0.00    -0.172 A  
HETATM   11  N   UNL     1      -9.011  13.127  66.666  1.00  0.00    -0.177 NA 
HETATM   12  O   UNL     1      -9.675  19.505  67.304  1.00  0.00    -0.317 OA 
HETATM   13  C   UNL     1      -9.237  14.463  66.647  1.00  0.00    -0.261 A  
HETATM   14  C   UNL     1      -8.629  15.306  67.574  1.00  0.00    -0.190 A  
HETATM   15  N   UNL     1     -10.123  15.018  65.682  1.00  0.00    -0.336 NA 
HETATM   16  C   UNL     1      -8.912  16.754  67.532  1.00  0.00    -0.205 C  
HETATM   17  O   UNL     1     -10.999  19.103  65.526  1.00  0.00    -0.395 OA 
HETATM   18  C   UNL     1      -7.798  14.766  68.549  1.00  0.00    -0.130 A  
HETATM   19  F   UNL     1      -6.792  12.879  69.508  1.00  0.00    -0.098 F  
HETATM   20  C   UNL     1      -9.831  17.275  66.496  1.00  0.00    -0.306 C  
HETATM   21  O   UNL     1      -8.401  17.525  68.344  1.00  0.00    -0.261 OA 
HETATM   22  C   UNL     1      -7.582  13.393  68.553  1.00  0.00    -0.127 A  
HETATM   23  C   UNL     1     -10.224  18.691  66.378  1.00  0.00    -0.425 C  
HETATM   24  C   UNL     1     -10.350  16.379  65.647  1.00  0.00    -0.350 C  
BRANCH  15  25
HETATM   25  C   UNL     1     -11.005  14.100  64.937  1.00  0.00    -0.397 C  
HETATM   26  C   UNL     1     -12.367  13.782  65.513  1.00  0.00    -0.507 C  
HETATM   27  C   UNL     1     -12.263  14.507  64.208  1.00  0.00    -0.441 C  
ENDBRANCH  15  25
ENDBRANCH   7  10
BRANCH   9  28
HETATM   28  C   UNL     1      -7.676   9.193  64.482  1.00  0.00    -0.114 C  
HETATM   29  H1  UNL     1      -8.205  10.297  62.806  1.00  0.00     0.000 HD 
HETATM   30  N   UNL     1      -8.210  10.385  63.822  1.00  0.00    -0.242 NA 
HETATM   31  H2  UNL     1      -7.716  11.226  64.122  1.00  0.00     0.000 HD 
ENDBRANCH   9  28
ENDBRANCH   3   5
ENDBRANCH   2   3
TORSDOF 5
ENDMDL
MODEL       62
REMARK 921   NORMALIZED FREE ENERGY PREDICTED BY IDOCK:   -5.38 KCAL/MOL
REMARK 922        TOTAL FREE ENERGY PREDICTED BY IDOCK:   -8.11 KCAL/MOL
REMARK 923 INTER-LIGAND FREE ENERGY PREDICTED BY IDOCK:   -7.96 KCAL/MOL
REMARK 924 INTRA-LIGAND FREE ENERGY PREDICTED BY IDOCK:   -0.15 KCAL/MOL
REMARK 927      BINDING AFFINITY PREDICTED BY RF-SCORE:    0.00 PKD
ROOT
HETATM    1  C   UNL     1     -13.046  15.963  73.343  1.00  0.00    -0.587 C  
HETATM    2  O   UNL     1     -13.377  15.607  72.007  1.00  0.00    -0.441 OA 
ENDROOT
BRANCH   2   3
HETATM    3  N   UNL     1     -12.362  16.057  71.151  1.00  0.00    -0.562 NA 
HETATM    4  H   UNL     1     -11.825  16.914  71.283  1.00  0.00     0.000 HD 
BRANCH   3   5
HETATM    5  C   UNL     1     -12.204  15.225  70.166  1.00  0.00    -0.364 C  
HETATM    6  C   UNL     1     -12.680  13.796  70.125  1.00  0.00    -0.091 C  
HETATM    7  N   UNL     1     -11.916  13.219  69.017  1.00  0.00    -0.311 NA 
HETATM    8  C   UNL     1     -11.199  14.261  68.258  1.00  0.00    -0.276 C  
HETATM    9  C   UNL     1     -11.549  15.627  68.872  1.00  0.00    -0.392 C  
BRANCH   7  10
HETATM   10  C   UNL     1     -11.269  12.009  69.251  1.00  0.00    -0.229 A  
HETATM   11  N   UNL     1     -11.905  11.092  70.020  1.00  0.00    -0.322 NA 
HETATM   12  O   UNL     1      -8.587   5.619  70.774  1.00  0.00    -0.124 OA 
HETATM   13  C   UNL     1     -11.329   9.896  70.297  1.00  0.00    -0.291 A  
HETATM   14  C   UNL     1     -10.071   9.573  69.797  1.00  0.00    -0.238 A  
HETATM   15  N   UNL     1     -12.024   8.943  71.094  1.00  0.00    -0.294 NA 
HETATM   16  C   UNL     1      -9.482   8.256  70.107  1.00  0.00    -0.167 C  
HETATM   17  O   UNL     1     -10.437   5.179  71.984  1.00  0.00    -0.211 OA 
HETATM   18  C   UNL     1      -9.405  10.481  68.980  1.00  0.00    -0.205 A  
HETATM   19  F   UNL     1      -9.372  12.561  67.901  1.00  0.00    -0.173 F  
HETATM   20  C   UNL     1     -10.246   7.312  70.953  1.00  0.00    -0.203 C  
HETATM   21  O   UNL     1      -8.378   7.934  69.670  1.00  0.00    -0.127 OA 
HETATM   22  C   UNL     1     -10.015  11.699  68.705  1.00  0.00    -0.184 A  
HETATM   23  C   UNL     1      -9.786   5.954  71.297  1.00  0.00    -0.173 C  
HETATM   24  C   UNL     1     -11.441   7.728  71.391  1.00  0.00    -0.260 C  
BRANCH  15  25
HETATM   25  C   UNL     1     -13.464   9.153  71.333  1.00  0.00    -0.298 C  
HETATM   26  C   UNL     1     -14.301   7.972  71.774  1.00  0.00    -0.583 C  
HETATM   27  C   UNL     1     -14.128   9.144  72.689  1.00  0.00    -0.303 C  
ENDBRANCH  15  25
ENDBRANCH   7  10
BRANCH   9  28
HETATM   28  C   UNL     1     -10.334  16.527  69.083  1.00  0.00    -0.316 C  
HETATM   29  H1  UNL     1      -8.760  17.325  67.990  1.00  0.00     0.000 HD 
HETATM   30  N   UNL     1      -9.572  16.723  67.849  1.00  0.00    -0.233 NA 
HETATM   31  H2  UNL     1     -10.167  17.076  67.100  1.00  0.00     0.000 HD 
ENDBRANCH   9  28
ENDBRANCH   3   5
ENDBRANCH   2   3
TORSDOF 5
ENDMDL
MODEL       63
REMARK 921   NORMALIZED FREE ENERGY PREDICTED BY IDOCK:   -5.38 KCAL/MOL
REMARK 922        TOTAL FREE ENERGY PREDICTED BY IDOCK:   -8.10 KCAL/MOL
REMARK 923 INTER-LIGAND FREE ENERGY PREDICTED BY IDOCK:   -7.01 KCAL/MOL
REMARK 924 INTRA-LIGAND FREE ENERGY PREDICTED BY IDOCK:   -1.09 KCAL/MOL
REMARK 927      BINDING AFFINITY PREDICTED BY RF-SCORE:    0.00 PKD
ROOT
HETATM    1  C   UNL     1      -9.795   3.539  64.144  1.00  0.00    -0.177 C  
HETATM    2  O   UNL     1     -10.371   4.435  65.086  1.00  0.00    -0.225 OA 
ENDROOT
BRANCH   2   3
HETATM    3  N   UNL     1     -10.123   3.955  66.380  1.00  0.00    -0.393 NA 
HETATM    4  H   UNL     1     -10.122   2.970  66.647  1.00  0.00     0.000 HD 
BRANCH   3   5
HETATM    5  C   UNL     1      -9.895   4.945  67.189  1.00  0.00    -0.190 C  
HETATM    6  C   UNL     1     -10.859   6.049  67.537  1.00  0.00    -0.302 C  
HETATM    7  N   UNL     1      -9.998   7.072  68.133  1.00  0.00    -0.147 NA 
HETATM    8  C   UNL     1      -8.636   6.557  68.371  1.00  0.00    -0.119 C  
HETATM    9  C   UNL     1      -8.604   5.078  67.951  1.00  0.00    -0.103 C  
BRANCH   7  10
HETATM   10  C   UNL     1     -10.138   8.375  67.664  1.00  0.00    -0.209 A  
HETATM   11  N   UNL     1     -10.713   9.285  68.488  1.00  0.00    -0.183 NA 
HETATM   12  O   UNL     1     -11.088  15.194  65.944  1.00  0.00    -0.339 OA 
HETATM   13  C   UNL     1     -10.891  10.569  68.093  1.00  0.00    -0.253 A  
HETATM   14  C   UNL     1     -10.484  10.994  66.830  1.00  0.00    -0.293 A  
HETATM   15  N   UNL     1     -11.482  11.509  68.983  1.00  0.00    -0.262 NA 
HETATM   16  C   UNL     1     -10.680  12.403  66.441  1.00  0.00    -0.247 C  
HETATM   17  O   UNL     1     -12.035  15.525  67.961  1.00  0.00    -0.195 OA 
HETATM   18  C   UNL     1      -9.863  10.092  65.972  1.00  0.00    -0.308 A  
HETATM   19  F   UNL     1      -9.072   7.923  65.570  1.00  0.00    -0.168 F  
HETATM   20  C   UNL     1     -11.314  13.331  67.404  1.00  0.00    -0.337 C  
HETATM   21  O   UNL     1     -10.320  12.813  65.338  1.00  0.00    -0.285 OA 
HETATM   22  C   UNL     1      -9.687   8.781  66.399  1.00  0.00    -0.265 A  
HETATM   23  C   UNL     1     -11.525  14.768  67.149  1.00  0.00    -0.364 C  
HETATM   24  C   UNL     1     -11.678  12.816  68.584  1.00  0.00    -0.324 C  
BRANCH  15  25
HETATM   25  C   UNL     1     -11.598  11.142  70.406  1.00  0.00    -0.259 C  
HETATM   26  C   UNL     1     -12.715  11.758  71.221  1.00  0.00    -0.420 C  
HETATM   27  C   UNL     1     -12.690  10.279  70.993  1.00  0.00    -0.491 C  
ENDBRANCH  15  25
ENDBRANCH   7  10
BRANCH   9  28
HETATM   28  C   UNL     1      -7.384   4.712  67.110  1.00  0.00    -0.077 C  
HETATM   29  H1  UNL     1      -6.643   5.023  65.196  1.00  0.00     0.000 HD 
HETATM   30  N   UNL     1      -7.458   5.268  65.758  1.00  0.00    -0.080 NA 
HETATM   31  H2  UNL     1      -7.600   6.278  65.782  1.00  0.00     0.000 HD 
ENDBRANCH   9  28
ENDBRANCH   3   5
ENDBRANCH   2   3
TORSDOF 5
ENDMDL
MODEL       64
REMARK 921   NORMALIZED FREE ENERGY PREDICTED BY IDOCK:   -5.34 KCAL/MOL
REMARK 922        TOTAL FREE ENERGY PREDICTED BY IDOCK:   -8.06 KCAL/MOL
REMARK 923 INTER-LIGAND FREE ENERGY PREDICTED BY IDOCK:   -6.67 KCAL/MOL
REMARK 924 INTRA-LIGAND FREE ENERGY PREDICTED BY IDOCK:   -1.39 KCAL/MOL
REMARK 927      BINDING AFFINITY PREDICTED BY RF-SCORE:    0.00 PKD
ROOT
HETATM    1  C   UNL     1      -7.825   9.452  64.182  1.00  0.00    -0.124 C  
HETATM    2  O   UNL     1      -8.224   9.612  65.537  1.00  0.00    -0.119 OA 
ENDROOT
BRANCH   2   3
HETATM    3  N   UNL     1      -9.447   8.954  65.731  1.00  0.00    -0.379 NA 
HETATM    4  H   UNL     1      -9.649   7.998  65.439  1.00  0.00     0.000 HD 
BRANCH   3   5
HETATM    5  C   UNL     1     -10.287   9.739  66.337  1.00  0.00    -0.177 C  
HETATM    6  C   UNL     1     -10.907  10.988  65.766  1.00  0.00    -0.097 C  
HETATM    7  N   UNL     1     -11.422  11.679  66.949  1.00  0.00    -0.491 NA 
HETATM    8  C   UNL     1     -11.356  10.818  68.146  1.00  0.00    -0.308 C  
HETATM    9  C   UNL     1     -10.804   9.448  67.719  1.00  0.00    -0.223 C  
BRANCH   7  10
HETATM   10  C   UNL     1     -11.108  13.027  67.086  1.00  0.00    -0.273 A  
HETATM   11  N   UNL     1      -9.959  13.346  67.731  1.00  0.00    -0.227 NA 
HETATM   12  O   UNL     1      -8.865  19.688  68.066  1.00  0.00    -0.310 OA 
HETATM   13  C   UNL     1      -9.596  14.640  67.910  1.00  0.00    -0.212 A  
HETATM   14  C   UNL     1     -10.390  15.680  67.432  1.00  0.00    -0.275 A  
HETATM   15  N   UNL     1      -8.377  14.948  68.577  1.00  0.00    -0.153 NA 
HETATM   16  C   UNL     1      -9.954  17.075  67.632  1.00  0.00    -0.280 C  
HETATM   17  O   UNL     1      -7.063  18.875  69.147  1.00  0.00    -0.308 OA 
HETATM   18  C   UNL     1     -11.559  15.386  66.739  1.00  0.00     0.044 A  
HETATM   19  F   UNL     1     -13.032  13.779  65.878  1.00  0.00    -0.490 F  
HETATM   20  C   UNL     1      -8.684  17.334  68.346  1.00  0.00    -0.261 C  
HETATM   21  O   UNL     1     -10.626  18.017  67.211  1.00  0.00    -0.380 OA 
HETATM   22  C   UNL     1     -11.911  14.052  66.564  1.00  0.00    -0.417 A  
HETATM   23  C   UNL     1      -8.123  18.679  68.570  1.00  0.00    -0.341 C  
HETATM   24  C   UNL     1      -8.006  16.262  68.774  1.00  0.00    -0.221 C  
BRANCH  15  25
HETATM   25  C   UNL     1      -7.399  13.863  68.777  1.00  0.00    -0.118 C  
HETATM   26  C   UNL     1      -6.473  13.508  67.635  1.00  0.00    -0.169 C  
HETATM   27  C   UNL     1      -5.907  14.054  68.908  1.00  0.00    -0.083 C  
ENDBRANCH  15  25
ENDBRANCH   7  10
BRANCH   9  28
HETATM   28  C   UNL     1      -9.721   8.912  68.652  1.00  0.00    -0.161 C  
HETATM   29  H1  UNL     1      -7.803   9.399  69.277  1.00  0.00     0.000 HD 
HETATM   30  N   UNL     1      -8.526   9.757  68.654  1.00  0.00    -0.113 NA 
HETATM   31  H2  UNL     1      -8.759  10.725  68.876  1.00  0.00     0.000 HD 
ENDBRANCH   9  28
ENDBRANCH   3   5
ENDBRANCH   2   3
TORSDOF 5
ENDMDL
MODEL       65
REMARK 921   NORMALIZED FREE ENERGY PREDICTED BY IDOCK:   -5.33 KCAL/MOL
REMARK 922        TOTAL FREE ENERGY PREDICTED BY IDOCK:   -8.04 KCAL/MOL
REMARK 923 INTER-LIGAND FREE ENERGY PREDICTED BY IDOCK:   -6.92 KCAL/MOL
REMARK 924 INTRA-LIGAND FREE ENERGY PREDICTED BY IDOCK:   -1.12 KCAL/MOL
REMARK 927      BINDING AFFINITY PREDICTED BY RF-SCORE:    0.00 PKD
ROOT
HETATM    1  C   UNL     1     -12.012  10.228  70.644  1.00  0.00    -0.342 C  
HETATM    2  O   UNL     1     -10.753   9.729  71.077  1.00  0.00    -0.324 OA 
ENDROOT
BRANCH   2   3
HETATM    3  N   UNL     1     -10.346   8.707  70.207  1.00  0.00    -0.193 NA 
HETATM    4  H   UNL     1     -10.676   7.742  70.244  1.00  0.00     0.000 HD 
BRANCH   3   5
HETATM    5  C   UNL     1      -9.487   9.166  69.347  1.00  0.00    -0.161 C  
HETATM    6  C   UNL     1      -8.466  10.244  69.600  1.00  0.00    -0.115 C  
HETATM    7  N   UNL     1      -8.061  10.646  68.252  1.00  0.00    -0.113 NA 
HETATM    8  C   UNL     1      -8.597   9.725  67.232  1.00  0.00    -0.128 C  
HETATM    9  C   UNL     1      -9.370   8.609  67.954  1.00  0.00    -0.155 C  
BRANCH   7  10
HETATM   10  C   UNL     1      -8.048  12.009  67.970  1.00  0.00    -0.153 A  
HETATM   11  N   UNL     1      -9.162  12.551  67.419  1.00  0.00    -0.179 NA 
HETATM   12  O   UNL     1      -8.694  18.890  66.362  1.00  0.00    -0.309 OA 
HETATM   13  C   UNL     1      -9.216  13.870  67.109  1.00  0.00    -0.239 A  
HETATM   14  C   UNL     1      -8.132  14.708  67.354  1.00  0.00    -0.216 A  
HETATM   15  N   UNL     1     -10.402  14.417  66.545  1.00  0.00    -0.276 NA 
HETATM   16  C   UNL     1      -8.233  16.142  67.019  1.00  0.00    -0.216 C  
HETATM   17  O   UNL     1     -10.774  18.473  65.603  1.00  0.00    -0.549 OA 
HETATM   18  C   UNL     1      -6.986  14.190  67.948  1.00  0.00    -0.173 A  
HETATM   19  F   UNL     1      -5.849  12.349  68.848  1.00  0.00    -0.060 F  
HETATM   20  C   UNL     1      -9.487  16.650  66.420  1.00  0.00    -0.305 C  
HETATM   21  O   UNL     1      -7.298  16.912  67.234  1.00  0.00    -0.149 OA 
HETATM   22  C   UNL     1      -6.953  12.835  68.260  1.00  0.00    -0.097 A  
HETATM   23  C   UNL     1      -9.725  18.065  66.081  1.00  0.00    -0.212 C  
HETATM   24  C   UNL     1     -10.462  15.756  66.216  1.00  0.00    -0.309 C  
BRANCH  15  25
HETATM   25  C   UNL     1     -11.636  13.611  66.601  1.00  0.00    -0.364 C  
HETATM   26  C   UNL     1     -12.883  14.154  65.938  1.00  0.00    -0.294 C  
HETATM   27  C   UNL     1     -12.258  12.895  65.426  1.00  0.00    -0.528 C  
ENDBRANCH  15  25
ENDBRANCH   7  10
BRANCH   9  28
HETATM   28  C   UNL     1     -10.728   8.306  67.326  1.00  0.00    -0.171 C  
HETATM   29  H1  UNL     1     -12.093   6.747  67.211  1.00  0.00     0.000 HD 
HETATM   30  N   UNL     1     -11.187   6.950  67.631  1.00  0.00    -0.586 NA 
HETATM   31  H2  UNL     1     -11.200   6.783  68.637  1.00  0.00     0.000 HD 
ENDBRANCH   9  28
ENDBRANCH   3   5
ENDBRANCH   2   3
TORSDOF 5
ENDMDL
MODEL       66
REMARK 921   NORMALIZED FREE ENERGY PREDICTED BY IDOCK:   -5.32 KCAL/MOL
REMARK 922        TOTAL FREE ENERGY PREDICTED BY IDOCK:   -8.03 KCAL/MOL
REMARK 923 INTER-LIGAND FREE ENERGY PREDICTED BY IDOCK:   -7.16 KCAL/MOL
REMARK 924 INTRA-LIGAND FREE ENERGY PREDICTED BY IDOCK:   -0.87 KCAL/MOL
REMARK 927      BINDING AFFINITY PREDICTED BY RF-SCORE:    0.00 PKD
ROOT
HETATM    1  C   UNL     1     -11.877   8.050  72.009  1.00  0.00    -0.326 C  
HETATM    2  O   UNL     1     -11.321   7.545  70.802  1.00  0.00    -0.273 OA 
ENDROOT
BRANCH   2   3
HETATM    3  N   UNL     1     -11.523   8.485  69.780  1.00  0.00    -0.432 NA 
HETATM    4  H   UNL     1     -12.434   8.809  69.456  1.00  0.00     0.000 HD 
BRANCH   3   5
HETATM    5  C   UNL     1     -10.380   8.884  69.307  1.00  0.00    -0.213 C  
HETATM    6  C   UNL     1      -9.577  10.060  69.796  1.00  0.00    -0.216 C  
HETATM    7  N   UNL     1      -8.632  10.300  68.703  1.00  0.00    -0.121 NA 
HETATM    8  C   UNL     1      -8.668   9.208  67.712  1.00  0.00    -0.121 C  
HETATM    9  C   UNL     1      -9.668   8.149  68.204  1.00  0.00    -0.180 C  
BRANCH   7  10
HETATM   10  C   UNL     1      -8.511  11.608  68.242  1.00  0.00    -0.160 A  
HETATM   11  N   UNL     1      -9.621  12.385  68.246  1.00  0.00    -0.216 NA 
HETATM   12  O   UNL     1      -8.582  18.375  66.108  1.00  0.00    -0.456 OA 
HETATM   13  C   UNL     1      -9.578  13.665  67.801  1.00  0.00    -0.224 A  
HETATM   14  C   UNL     1      -8.390  14.221  67.332  1.00  0.00    -0.212 A  
HETATM   15  N   UNL     1     -10.754  14.465  67.830  1.00  0.00    -0.242 NA 
HETATM   16  C   UNL     1      -8.378  15.622  66.870  1.00  0.00    -0.252 C  
HETATM   17  O   UNL     1     -10.785  18.452  66.573  1.00  0.00    -0.342 OA 
HETATM   18  C   UNL     1      -7.226  13.459  67.344  1.00  0.00    -0.116 A  
HETATM   19  F   UNL     1      -6.160  11.430  67.831  1.00  0.00    -0.048 F  
HETATM   20  C   UNL     1      -9.636  16.401  66.911  1.00  0.00    -0.255 C  
HETATM   21  O   UNL     1      -7.342  16.147  66.462  1.00  0.00    -0.187 OA 
HETATM   22  C   UNL     1      -7.293  12.150  67.807  1.00  0.00    -0.114 A  
HETATM   23  C   UNL     1      -9.742  17.818  66.518  1.00  0.00    -0.320 C  
HETATM   24  C   UNL     1     -10.722  15.765  67.368  1.00  0.00    -0.317 C  
BRANCH  15  25
HETATM   25  C   UNL     1     -11.901  13.989  68.625  1.00  0.00    -0.361 C  
HETATM   26  C   UNL     1     -11.695  13.719  70.099  1.00  0.00    -0.303 C  
HETATM   27  C   UNL     1     -12.632  14.802  69.666  1.00  0.00    -0.097 C  
ENDBRANCH  15  25
ENDBRANCH   7  10
BRANCH   9  28
HETATM   28  C   UNL     1     -10.619   7.658  67.114  1.00  0.00    -0.340 C  
HETATM   29  H1  UNL     1     -12.097   6.227  66.845  1.00  0.00     0.000 HD 
HETATM   30  N   UNL     1     -11.463   6.554  67.573  1.00  0.00    -0.714 NA 
HETATM   31  H2  UNL     1     -11.971   6.807  68.421  1.00  0.00     0.000 HD 
ENDBRANCH   9  28
ENDBRANCH   3   5
ENDBRANCH   2   3
TORSDOF 5
ENDMDL
MODEL       67
REMARK 921   NORMALIZED FREE ENERGY PREDICTED BY IDOCK:   -5.32 KCAL/MOL
REMARK 922        TOTAL FREE ENERGY PREDICTED BY IDOCK:   -8.03 KCAL/MOL
REMARK 923 INTER-LIGAND FREE ENERGY PREDICTED BY IDOCK:   -7.54 KCAL/MOL
REMARK 924 INTRA-LIGAND FREE ENERGY PREDICTED BY IDOCK:   -0.49 KCAL/MOL
REMARK 927      BINDING AFFINITY PREDICTED BY RF-SCORE:    0.00 PKD
ROOT
HETATM    1  C   UNL     1     -10.523  19.495  66.650  1.00  0.00    -0.488 C  
HETATM    2  O   UNL     1     -10.969  18.194  66.288  1.00  0.00    -0.050 OA 
ENDROOT
BRANCH   2   3
HETATM    3  N   UNL     1     -10.690  17.309  67.339  1.00  0.00    -0.297 NA 
HETATM    4  H   UNL     1     -10.541  17.584  68.310  1.00  0.00     0.000 HD 
BRANCH   3   5
HETATM    5  C   UNL     1     -10.648  16.088  66.898  1.00  0.00    -0.300 C  
HETATM    6  C   UNL     1     -11.685  15.021  67.132  1.00  0.00    -0.215 C  
HETATM    7  N   UNL     1     -10.981  13.785  66.786  1.00  0.00    -0.301 NA 
HETATM    8  C   UNL     1      -9.683  14.067  66.145  1.00  0.00    -0.280 C  
HETATM    9  C   UNL     1      -9.536  15.592  66.013  1.00  0.00    -0.387 C  
BRANCH   7  10
HETATM   10  C   UNL     1     -11.056  12.734  67.695  1.00  0.00    -0.258 A  
HETATM   11  N   UNL     1     -10.750  11.491  67.249  1.00  0.00    -0.231 NA 
HETATM   12  O   UNL     1     -11.148   6.951  71.805  1.00  0.00    -0.234 OA 
HETATM   13  C   UNL     1     -10.811  10.419  68.077  1.00  0.00    -0.270 A  
HETATM   14  C   UNL     1     -11.184  10.564  69.411  1.00  0.00    -0.327 A  
HETATM   15  N   UNL     1     -10.470   9.126  67.589  1.00  0.00    -0.255 NA 
HETATM   16  C   UNL     1     -11.223   9.377  70.287  1.00  0.00    -0.246 C  
HETATM   17  O   UNL     1     -10.526   5.725  70.020  1.00  0.00    -0.231 OA 
HETATM   18  C   UNL     1     -11.473  11.831  69.907  1.00  0.00    -0.285 A  
HETATM   19  F   UNL     1     -11.665  14.137  69.534  1.00  0.00    -0.270 F  
HETATM   20  C   UNL     1     -10.873   8.056  69.719  1.00  0.00    -0.194 C  
HETATM   21  O   UNL     1     -11.536   9.473  71.473  1.00  0.00    -0.368 OA 
HETATM   22  C   UNL     1     -11.401  12.917  69.042  1.00  0.00    -0.290 A  
HETATM   23  C   UNL     1     -10.834   6.806  70.500  1.00  0.00    -0.258 C  
HETATM   24  C   UNL     1     -10.541   8.028  68.422  1.00  0.00    -0.102 C  
BRANCH  15  25
HETATM   25  C   UNL     1      -9.767   9.033  66.297  1.00  0.00    -0.275 C  
HETATM   26  C   UNL     1      -8.287   9.341  66.258  1.00  0.00    -0.124 C  
HETATM   27  C   UNL     1      -8.767   7.963  65.929  1.00  0.00    -0.180 C  
ENDBRANCH  15  25
ENDBRANCH   7  10
BRANCH   9  28
HETATM   28  C   UNL     1      -8.166  16.110  66.444  1.00  0.00    -0.301 C  
HETATM   29  H1  UNL     1      -7.005  17.821  66.266  1.00  0.00     0.000 HD 
HETATM   30  N   UNL     1      -7.920  17.475  65.979  1.00  0.00    -0.525 NA 
HETATM   31  H2  UNL     1      -8.664  18.106  66.278  1.00  0.00     0.000 HD 
ENDBRANCH   9  28
ENDBRANCH   3   5
ENDBRANCH   2   3
TORSDOF 5
ENDMDL
MODEL       68
REMARK 921   NORMALIZED FREE ENERGY PREDICTED BY IDOCK:   -5.29 KCAL/MOL
REMARK 922        TOTAL FREE ENERGY PREDICTED BY IDOCK:   -7.99 KCAL/MOL
REMARK 923 INTER-LIGAND FREE ENERGY PREDICTED BY IDOCK:   -6.94 KCAL/MOL
REMARK 924 INTRA-LIGAND FREE ENERGY PREDICTED BY IDOCK:   -1.05 KCAL/MOL
REMARK 927      BINDING AFFINITY PREDICTED BY RF-SCORE:    0.00 PKD
ROOT
HETATM    1  C   UNL     1     -13.890  14.790  72.132  1.00  0.00    -0.475 C  
HETATM    2  O   UNL     1     -13.003  15.160  71.084  1.00  0.00    -0.354 OA 
ENDROOT
BRANCH   2   3
HETATM    3  N   UNL     1     -11.931  14.256  71.056  1.00  0.00    -0.426 NA 
HETATM    4  H   UNL     1     -11.257  14.125  71.811  1.00  0.00     0.000 HD 
BRANCH   3   5
HETATM    5  C   UNL     1     -11.921  13.608  69.930  1.00  0.00    -0.348 C  
HETATM    6  C   UNL     1     -12.371  12.187  69.717  1.00  0.00    -0.026 C  
HETATM    7  N   UNL     1     -11.788  11.839  68.420  1.00  0.00    -0.447 NA 
HETATM    8  C   UNL     1     -11.224  13.026  67.749  1.00  0.00    -0.279 C  
HETATM    9  C   UNL     1     -11.493  14.251  68.638  1.00  0.00    -0.328 C  
BRANCH   7  10
HETATM   10  C   UNL     1     -11.090  10.638  68.336  1.00  0.00    -0.272 A  
HETATM   11  N   UNL     1     -10.869   9.955  69.486  1.00  0.00    -0.236 NA 
HETATM   12  O   UNL     1      -7.677   4.423  68.623  1.00  0.00    -0.070 OA 
HETATM   13  C   UNL     1     -10.187   8.783  69.480  1.00  0.00    -0.208 A  
HETATM   14  C   UNL     1      -9.698   8.244  68.293  1.00  0.00    -0.173 A  
HETATM   15  N   UNL     1      -9.981   8.077  70.698  1.00  0.00    -0.189 NA 
HETATM   16  C   UNL     1      -8.974   6.959  68.323  1.00  0.00    -0.124 C  
HETATM   17  O   UNL     1      -7.971   4.415  70.857  1.00  0.00    -0.066 OA 
HETATM   18  C   UNL     1      -9.935   8.905  67.092  1.00  0.00    -0.289 A  
HETATM   19  F   UNL     1     -10.878  10.725  65.955  1.00  0.00    -0.281 F  
HETATM   20  C   UNL     1      -8.778   6.278  69.623  1.00  0.00    -0.136 C  
HETATM   21  O   UNL     1      -8.540   6.449  67.291  1.00  0.00    -0.111 OA 
HETATM   22  C   UNL     1     -10.639  10.104  67.121  1.00  0.00    -0.246 A  
HETATM   23  C   UNL     1      -8.110   4.973  69.778  1.00  0.00    -0.074 C  
HETATM   24  C   UNL     1      -9.278   6.890  70.704  1.00  0.00    -0.158 C  
BRANCH  15  25
HETATM   25  C   UNL     1     -10.776   8.474  71.876  1.00  0.00    -0.324 C  
HETATM   26  C   UNL     1     -12.106   7.792  72.111  1.00  0.00    -0.346 C  
HETATM   27  C   UNL     1     -10.997   7.618  73.100  1.00  0.00    -0.411 C  
ENDBRANCH  15  25
ENDBRANCH   7  10
BRANCH   9  28
HETATM   28  C   UNL     1     -10.277  15.158  68.807  1.00  0.00    -0.235 C  
HETATM   29  H1  UNL     1      -9.772  16.960  69.706  1.00  0.00     0.000 HD 
HETATM   30  N   UNL     1     -10.584  16.354  69.593  1.00  0.00    -0.312 NA 
HETATM   31  H2  UNL     1     -10.989  16.107  70.496  1.00  0.00     0.000 HD 
ENDBRANCH   9  28
ENDBRANCH   3   5
ENDBRANCH   2   3
TORSDOF 5
ENDMDL
MODEL       69
REMARK 921   NORMALIZED FREE ENERGY PREDICTED BY IDOCK:   -5.28 KCAL/MOL
REMARK 922        TOTAL FREE ENERGY PREDICTED BY IDOCK:   -7.98 KCAL/MOL
REMARK 923 INTER-LIGAND FREE ENERGY PREDICTED BY IDOCK:   -7.71 KCAL/MOL
REMARK 924 INTRA-LIGAND FREE ENERGY PREDICTED BY IDOCK:   -0.26 KCAL/MOL
REMARK 927      BINDING AFFINITY PREDICTED BY RF-SCORE:    0.00 PKD
ROOT
HETATM    1  C   UNL     1     -13.149  12.337  64.286  1.00  0.00     0.031 C  
HETATM    2  O   UNL     1     -12.353  11.867  63.205  1.00  0.00    -0.545 OA 
ENDROOT
BRANCH   2   3
HETATM    3  N   UNL     1     -11.230  12.697  63.074  1.00  0.00    -0.655 NA 
HETATM    4  H   UNL     1     -11.054  13.320  62.285  1.00  0.00     0.000 HD 
BRANCH   3   5
HETATM    5  C   UNL     1     -10.447  12.558  64.101  1.00  0.00    -0.403 C  
HETATM    6  C   UNL     1      -9.859  11.266  64.602  1.00  0.00    -0.268 C  
HETATM    7  N   UNL     1      -9.417  11.600  65.957  1.00  0.00    -0.226 NA 
HETATM    8  C   UNL     1      -9.492  13.053  66.204  1.00  0.00    -0.150 C  
HETATM    9  C   UNL     1      -9.970  13.733  64.911  1.00  0.00    -0.178 C  
BRANCH   7  10
HETATM   10  C   UNL     1      -9.792  10.735  66.981  1.00  0.00    -0.187 A  
HETATM   11  N   UNL     1     -10.540  11.240  67.993  1.00  0.00    -0.186 NA 
HETATM   12  O   UNL     1     -12.112   6.875  72.465  1.00  0.00    -0.140 OA 
HETATM   13  C   UNL     1     -10.932  10.458  69.028  1.00  0.00    -0.238 A  
HETATM   14  C   UNL     1     -10.583   9.111  69.080  1.00  0.00    -0.224 A  
HETATM   15  N   UNL     1     -11.730  11.008  70.070  1.00  0.00    -0.324 NA 
HETATM   16  C   UNL     1     -11.041   8.286  70.215  1.00  0.00    -0.219 C  
HETATM   17  O   UNL     1     -13.094   8.725  73.295  1.00  0.00    -0.026 OA 
HETATM   18  C   UNL     1      -9.843   8.554  68.043  1.00  0.00    -0.202 A  
HETATM   19  F   UNL     1      -8.754   8.824  65.984  1.00  0.00    -0.134 F  
HETATM   20  C   UNL     1     -11.856   8.918  71.276  1.00  0.00    -0.371 C  
HETATM   21  O   UNL     1     -10.761   7.090  70.285  1.00  0.00    -0.225 OA 
HETATM   22  C   UNL     1      -9.454   9.374  66.989  1.00  0.00    -0.155 A  
HETATM   23  C   UNL     1     -12.407   8.192  72.435  1.00  0.00    -0.294 C  
HETATM   24  C   UNL     1     -12.123  10.222  71.134  1.00  0.00    -0.395 C  
BRANCH  15  25
HETATM   25  C   UNL     1     -12.365  12.319  69.842  1.00  0.00    -0.052 C  
HETATM   26  C   UNL     1     -12.464  13.284  71.004  1.00  0.00    -0.422 C  
HETATM   27  C   UNL     1     -11.636  13.641  69.810  1.00  0.00    -0.322 C  
ENDBRANCH  15  25
ENDBRANCH   7  10
BRANCH   9  28
HETATM   28  C   UNL     1     -11.064  14.773  65.141  1.00  0.00    -0.384 C  
HETATM   29  H1  UNL     1     -11.393  16.801  64.843  1.00  0.00     0.000 HD 
HETATM   30  N   UNL     1     -10.662  16.106  64.690  1.00  0.00    -0.821 NA 
HETATM   31  H2  UNL     1     -10.365  16.091  63.714  1.00  0.00     0.000 HD 
ENDBRANCH   9  28
ENDBRANCH   3   5
ENDBRANCH   2   3
TORSDOF 5
ENDMDL
MODEL       70
REMARK 921   NORMALIZED FREE ENERGY PREDICTED BY IDOCK:   -5.27 KCAL/MOL
REMARK 922        TOTAL FREE ENERGY PREDICTED BY IDOCK:   -7.97 KCAL/MOL
REMARK 923 INTER-LIGAND FREE ENERGY PREDICTED BY IDOCK:   -7.03 KCAL/MOL
REMARK 924 INTRA-LIGAND FREE ENERGY PREDICTED BY IDOCK:   -0.94 KCAL/MOL
REMARK 927      BINDING AFFINITY PREDICTED BY RF-SCORE:    0.00 PKD
ROOT
HETATM    1  C   UNL     1      -8.679   9.227  65.036  1.00  0.00    -0.190 C  
HETATM    2  O   UNL     1      -9.934   9.893  65.068  1.00  0.00    -0.316 OA 
ENDROOT
BRANCH   2   3
HETATM    3  N   UNL     1     -10.363   9.992  66.399  1.00  0.00    -0.209 NA 
HETATM    4  H   UNL     1     -10.401   9.215  67.060  1.00  0.00     0.000 HD 
BRANCH   3   5
HETATM    5  C   UNL     1     -10.706  11.215  66.670  1.00  0.00    -0.269 C  
HETATM    6  C   UNL     1     -10.048  12.461  66.138  1.00  0.00    -0.248 C  
HETATM    7  N   UNL     1     -10.534  13.509  67.038  1.00  0.00    -0.264 NA 
HETATM    8  C   UNL     1     -11.609  13.008  67.915  1.00  0.00    -0.342 C  
HETATM    9  C   UNL     1     -11.890  11.544  67.539  1.00  0.00    -0.157 C  
BRANCH   7  10
HETATM   10  C   UNL     1      -9.587  14.372  67.581  1.00  0.00    -0.214 A  
HETATM   11  N   UNL     1      -9.718  15.697  67.322  1.00  0.00    -0.218 NA 
HETATM   12  O   UNL     1      -5.170  19.325  70.093  1.00  0.00    -0.190 OA 
HETATM   13  C   UNL     1      -8.825  16.593  67.810  1.00  0.00    -0.206 A  
HETATM   14  C   UNL     1      -7.752  16.182  68.595  1.00  0.00    -0.186 A  
HETATM   15  N   UNL     1      -8.994  17.980  67.537  1.00  0.00    -0.248 NA 
HETATM   16  C   UNL     1      -6.810  17.188  69.122  1.00  0.00    -0.236 C  
HETATM   17  O   UNL     1      -6.387  20.891  69.024  1.00  0.00    -0.195 OA 
HETATM   18  C   UNL     1      -7.607  14.834  68.905  1.00  0.00    -0.144 A  
HETATM   19  F   UNL     1      -8.396  12.635  68.716  1.00  0.00    -0.116 F  
HETATM   20  C   UNL     1      -7.028  18.614  68.792  1.00  0.00    -0.311 C  
HETATM   21  O   UNL     1      -5.859  16.859  69.829  1.00  0.00    -0.196 OA 
HETATM   22  C   UNL     1      -8.535  13.931  68.397  1.00  0.00    -0.159 A  
HETATM   23  C   UNL     1      -6.183  19.715  69.292  1.00  0.00    -0.302 C  
HETATM   24  C   UNL     1      -8.084  18.899  68.019  1.00  0.00    -0.292 C  
BRANCH  15  25
HETATM   25  C   UNL     1     -10.291  18.432  67.001  1.00  0.00    -0.393 C  
HETATM   26  C   UNL     1     -10.765  19.828  67.342  1.00  0.00    -0.515 C  
HETATM   27  C   UNL     1     -10.467  19.471  65.920  1.00  0.00    -0.585 C  
ENDBRANCH  15  25
ENDBRANCH   7  10
BRANCH   9  28
HETATM   28  C   UNL     1     -12.007  10.618  68.748  1.00  0.00     0.001 C  
HETATM   29  H1  UNL     1     -11.002  10.209  70.518  1.00  0.00     0.000 HD 
HETATM   30  N   UNL     1     -10.924  10.827  69.710  1.00  0.00    -0.326 NA 
HETATM   31  H2  UNL     1     -10.869  11.804  69.998  1.00  0.00     0.000 HD 
ENDBRANCH   9  28
ENDBRANCH   3   5
ENDBRANCH   2   3
TORSDOF 5
ENDMDL
MODEL       71
REMARK 921   NORMALIZED FREE ENERGY PREDICTED BY IDOCK:   -5.27 KCAL/MOL
REMARK 922        TOTAL FREE ENERGY PREDICTED BY IDOCK:   -7.96 KCAL/MOL
REMARK 923 INTER-LIGAND FREE ENERGY PREDICTED BY IDOCK:   -7.17 KCAL/MOL
REMARK 924 INTRA-LIGAND FREE ENERGY PREDICTED BY IDOCK:   -0.79 KCAL/MOL
REMARK 927      BINDING AFFINITY PREDICTED BY RF-SCORE:    0.00 PKD
ROOT
HETATM    1  C   UNL     1      -7.511   9.517  64.019  1.00  0.00    -0.122 C  
HETATM    2  O   UNL     1      -8.487   8.500  64.206  1.00  0.00    -0.144 OA 
ENDROOT
BRANCH   2   3
HETATM    3  N   UNL     1      -7.947   7.497  65.024  1.00  0.00    -0.127 NA 
HETATM    4  H   UNL     1      -7.282   6.788  64.717  1.00  0.00     0.000 HD 
BRANCH   3   5
HETATM    5  C   UNL     1      -8.418   7.603  66.231  1.00  0.00    -0.139 C  
HETATM    6  C   UNL     1      -9.805   8.053  66.608  1.00  0.00    -0.252 C  
HETATM    7  N   UNL     1      -9.680   8.372  68.031  1.00  0.00    -0.154 NA 
HETATM    8  C   UNL     1      -8.382   7.923  68.571  1.00  0.00    -0.128 C  
HETATM    9  C   UNL     1      -7.614   7.215  67.443  1.00  0.00    -0.109 C  
BRANCH   7  10
HETATM   10  C   UNL     1     -10.184   9.598  68.456  1.00  0.00    -0.193 A  
HETATM   11  N   UNL     1     -11.023   9.602  69.521  1.00  0.00    -0.229 NA 
HETATM   12  O   UNL     1     -13.045  15.489  71.188  1.00  0.00    -0.472 OA 
HETATM   13  C   UNL     1     -11.559  10.759  69.981  1.00  0.00    -0.334 A  
HETATM   14  C   UNL     1     -11.260  11.977  69.379  1.00  0.00    -0.263 A  
HETATM   15  N   UNL     1     -12.425  10.737  71.110  1.00  0.00    -0.389 NA 
HETATM   16  C   UNL     1     -11.850  13.218  69.918  1.00  0.00    -0.310 C  
HETATM   17  O   UNL     1     -14.104  14.214  72.714  1.00  0.00    -0.610 OA 
HETATM   18  C   UNL     1     -10.377  12.011  68.304  1.00  0.00    -0.211 A  
HETATM   19  F   UNL     1      -8.973  10.860  66.822  1.00  0.00    -0.143 F  
HETATM   20  C   UNL     1     -12.755  13.132  71.085  1.00  0.00    -0.386 C  
HETATM   21  O   UNL     1     -11.595  14.312  69.416  1.00  0.00    -0.269 OA 
HETATM   22  C   UNL     1      -9.836  10.814  67.849  1.00  0.00    -0.167 A  
HETATM   23  C   UNL     1     -13.371  14.300  71.740  1.00  0.00    -0.371 C  
HETATM   24  C   UNL     1     -12.985  11.909  71.579  1.00  0.00    -0.323 C  
BRANCH  15  25
HETATM   25  C   UNL     1     -12.468   9.514  71.932  1.00  0.00    -0.384 C  
HETATM   26  C   UNL     1     -13.808   9.042  72.452  1.00  0.00    -0.540 C  
HETATM   27  C   UNL     1     -13.043   8.191  71.488  1.00  0.00    -0.309 C  
ENDBRANCH  15  25
ENDBRANCH   7  10
BRANCH   9  28
HETATM   28  C   UNL     1      -6.152   7.644  67.341  1.00  0.00    -0.049 C  
HETATM   29  H1  UNL     1      -5.033   9.382  67.154  1.00  0.00     0.000 HD 
HETATM   30  N   UNL     1      -6.009   9.095  67.222  1.00  0.00    -0.049 NA 
HETATM   31  H2  UNL     1      -6.483   9.577  67.987  1.00  0.00     0.000 HD 
ENDBRANCH   9  28
ENDBRANCH   3   5
ENDBRANCH   2   3
TORSDOF 5
ENDMDL
MODEL       72
REMARK 921   NORMALIZED FREE ENERGY PREDICTED BY IDOCK:   -5.24 KCAL/MOL
REMARK 922        TOTAL FREE ENERGY PREDICTED BY IDOCK:   -7.92 KCAL/MOL
REMARK 923 INTER-LIGAND FREE ENERGY PREDICTED BY IDOCK:   -6.99 KCAL/MOL
REMARK 924 INTRA-LIGAND FREE ENERGY PREDICTED BY IDOCK:   -0.93 KCAL/MOL
REMARK 927      BINDING AFFINITY PREDICTED BY RF-SCORE:    0.00 PKD
ROOT
HETATM    1  C   UNL     1     -10.396   4.841  65.491  1.00  0.00    -0.133 C  
HETATM    2  O   UNL     1     -10.577   5.395  66.788  1.00  0.00    -0.270 OA 
ENDROOT
BRANCH   2   3
HETATM    3  N   UNL     1      -9.905   4.593  67.722  1.00  0.00    -0.151 NA 
HETATM    4  H   UNL     1      -9.520   3.669  67.529  1.00  0.00     0.000 HD 
BRANCH   3   5
HETATM    5  C   UNL     1      -9.846   5.198  68.871  1.00  0.00    -0.172 C  
HETATM    6  C   UNL     1     -11.014   5.738  69.653  1.00  0.00    -0.315 C  
HETATM    7  N   UNL     1     -10.384   6.641  70.618  1.00  0.00    -0.200 NA 
HETATM    8  C   UNL     1      -8.916   6.495  70.613  1.00  0.00    -0.148 C  
HETATM    9  C   UNL     1      -8.550   5.387  69.612  1.00  0.00    -0.103 C  
BRANCH   7  10
HETATM   10  C   UNL     1     -10.921   7.920  70.738  1.00  0.00    -0.252 A  
HETATM   11  N   UNL     1     -10.497   8.867  69.865  1.00  0.00    -0.209 NA 
HETATM   12  O   UNL     1     -13.298  14.606  70.732  1.00  0.00    -0.351 OA 
HETATM   13  C   UNL     1     -10.970  10.136  69.931  1.00  0.00    -0.293 A  
HETATM   14  C   UNL     1     -11.909  10.503  70.892  1.00  0.00    -0.455 A  
HETATM   15  N   UNL     1     -10.521  11.108  68.994  1.00  0.00    -0.213 NA 
HETATM   16  C   UNL     1     -12.412  11.889  70.922  1.00  0.00    -0.300 C  
HETATM   17  O   UNL     1     -11.929  15.044  68.997  1.00  0.00    -0.305 OA 
HETATM   18  C   UNL     1     -12.387   9.547  71.781  1.00  0.00    -0.474 A  
HETATM   19  F   UNL     1     -12.372   7.331  72.547  1.00  0.00    -0.221 F  
HETATM   20  C   UNL     1     -11.897  12.860  69.931  1.00  0.00    -0.373 C  
HETATM   21  O   UNL     1     -13.251  12.242  71.750  1.00  0.00    -0.445 OA 
HETATM   22  C   UNL     1     -11.891   8.251  71.695  1.00  0.00    -0.299 A  
HETATM   23  C   UNL     1     -12.353  14.259  69.833  1.00  0.00    -0.324 C  
HETATM   24  C   UNL     1     -10.988  12.405  69.060  1.00  0.00    -0.197 C  
BRANCH  15  25
HETATM   25  C   UNL     1      -9.800  10.640  67.796  1.00  0.00    -0.165 C  
HETATM   26  C   UNL     1     -10.499  10.719  66.456  1.00  0.00    -0.299 C  
HETATM   27  C   UNL     1      -9.268  11.532  66.700  1.00  0.00    -0.194 C  
ENDBRANCH  15  25
ENDBRANCH   7  10
BRANCH   9  28
HETATM   28  C   UNL     1      -7.392   5.760  68.689  1.00  0.00    -0.084 C  
HETATM   29  H1  UNL     1      -5.946   7.237  68.499  1.00  0.00     0.000 HD 
HETATM   30  N   UNL     1      -6.719   6.987  69.116  1.00  0.00    -0.048 NA 
HETATM   31  H2  UNL     1      -6.411   6.921  70.086  1.00  0.00     0.000 HD 
ENDBRANCH   9  28
ENDBRANCH   3   5
ENDBRANCH   2   3
TORSDOF 5
ENDMDL
MODEL       73
REMARK 921   NORMALIZED FREE ENERGY PREDICTED BY IDOCK:   -5.16 KCAL/MOL
REMARK 922        TOTAL FREE ENERGY PREDICTED BY IDOCK:   -7.83 KCAL/MOL
REMARK 923 INTER-LIGAND FREE ENERGY PREDICTED BY IDOCK:   -6.67 KCAL/MOL
REMARK 924 INTRA-LIGAND FREE ENERGY PREDICTED BY IDOCK:   -1.16 KCAL/MOL
REMARK 927      BINDING AFFINITY PREDICTED BY RF-SCORE:    0.00 PKD
ROOT
HETATM    1  C   UNL     1     -11.672  12.045  68.986  1.00  0.00    -0.325 C  
HETATM    2  O   UNL     1     -12.347  10.924  69.542  1.00  0.00    -0.321 OA 
ENDROOT
BRANCH   2   3
HETATM    3  N   UNL     1     -12.208  10.956  70.937  1.00  0.00    -0.364 NA 
HETATM    4  H   UNL     1     -12.443  11.753  71.529  1.00  0.00     0.000 HD 
BRANCH   3   5
HETATM    5  C   UNL     1     -11.738   9.824  71.366  1.00  0.00    -0.398 C  
HETATM    6  C   UNL     1     -10.447   9.178  70.937  1.00  0.00    -0.278 C  
HETATM    7  N   UNL     1     -10.596   7.794  71.392  1.00  0.00    -0.213 NA 
HETATM    8  C   UNL     1     -11.778   7.638  72.261  1.00  0.00    -0.324 C  
HETATM    9  C   UNL     1     -12.430   9.020  72.433  1.00  0.00    -0.375 C  
BRANCH   7  10
HETATM   10  C   UNL     1     -10.313   6.787  70.474  1.00  0.00    -0.201 A  
HETATM   11  N   UNL     1     -10.123   7.147  69.181  1.00  0.00    -0.178 NA 
HETATM   12  O   UNL     1      -8.761   2.187  65.299  1.00  0.00    -0.107 OA 
HETATM   13  C   UNL     1      -9.855   6.218  68.231  1.00  0.00    -0.126 A  
HETATM   14  C   UNL     1      -9.759   4.867  68.556  1.00  0.00    -0.218 A  
HETATM   15  N   UNL     1      -9.645   6.622  66.883  1.00  0.00    -0.151 NA 
HETATM   16  C   UNL     1      -9.449   3.886  67.498  1.00  0.00    -0.190 C  
HETATM   17  O   UNL     1      -8.728   3.904  63.841  1.00  0.00    -0.099 OA 
HETATM   18  C   UNL     1      -9.917   4.469  69.879  1.00  0.00    -0.273 A  
HETATM   19  F   UNL     1     -10.322   5.046  72.114  1.00  0.00    -0.235 F  
HETATM   20  C   UNL     1      -9.256   4.365  66.112  1.00  0.00    -0.141 C  
HETATM   21  O   UNL     1      -9.346   2.687  67.755  1.00  0.00    -0.192 OA 
HETATM   22  C   UNL     1     -10.189   5.439  70.838  1.00  0.00    -0.234 A  
HETATM   23  C   UNL     1      -8.902   3.491  64.979  1.00  0.00    -0.124 C  
HETATM   24  C   UNL     1      -9.382   5.682  65.907  1.00  0.00    -0.103 C  
BRANCH  15  25
HETATM   25  C   UNL     1      -9.417   8.054  66.613  1.00  0.00    -0.212 C  
HETATM   26  C   UNL     1      -8.012   8.598  66.743  1.00  0.00    -0.094 C  
HETATM   27  C   UNL     1      -8.691   8.605  65.409  1.00  0.00    -0.208 C  
ENDBRANCH  15  25
ENDBRANCH   7  10
BRANCH   9  28
HETATM   28  C   UNL     1     -13.947   9.000  72.264  1.00  0.00    -0.455 C  
HETATM   29  H1  UNL     1     -15.358   8.732  70.765  1.00  0.00     0.000 HD 
HETATM   30  N   UNL     1     -14.345   8.744  70.879  1.00  0.00    -0.529 NA 
HETATM   31  H2  UNL     1     -13.923   7.885  70.527  1.00  0.00     0.000 HD 
ENDBRANCH   9  28
ENDBRANCH   3   5
ENDBRANCH   2   3
TORSDOF 5
ENDMDL
MODEL       74
REMARK 921   NORMALIZED FREE ENERGY PREDICTED BY IDOCK:   -5.15 KCAL/MOL
REMARK 922        TOTAL FREE ENERGY PREDICTED BY IDOCK:   -7.82 KCAL/MOL
REMARK 923 INTER-LIGAND FREE ENERGY PREDICTED BY IDOCK:   -7.77 KCAL/MOL
REMARK 924 INTRA-LIGAND FREE ENERGY PREDICTED BY IDOCK:   -0.05 KCAL/MOL
REMARK 927      BINDING AFFINITY PREDICTED BY RF-SCORE:    0.00 PKD
ROOT
HETATM    1  C   UNL     1     -12.177  15.980  72.536  1.00  0.00    -0.519 C  
HETATM    2  O   UNL     1     -12.392  15.951  71.131  1.00  0.00    -0.425 OA 
ENDROOT
BRANCH   2   3
HETATM    3  N   UNL     1     -11.307  16.569  70.492  1.00  0.00    -0.496 NA 
HETATM    4  H   UNL     1     -10.646  17.200  70.944  1.00  0.00     0.000 HD 
BRANCH   3   5
HETATM    5  C   UNL     1     -11.267  16.222  69.241  1.00  0.00    -0.312 C  
HETATM    6  C   UNL     1     -11.635  14.873  68.680  1.00  0.00    -0.318 C  
HETATM    7  N   UNL     1     -11.041  14.892  67.342  1.00  0.00    -0.315 NA 
HETATM    8  C   UNL     1     -10.553  16.238  66.989  1.00  0.00    -0.284 C  
HETATM    9  C   UNL     1     -10.887  17.188  68.152  1.00  0.00    -0.316 C  
BRANCH   7  10
HETATM   10  C   UNL     1     -10.275  13.792  66.970  1.00  0.00    -0.254 A  
HETATM   11  N   UNL     1     -10.624  13.132  65.839  1.00  0.00    -0.276 NA 
HETATM   12  O   UNL     1      -6.760   8.164  64.454  1.00  0.00    -0.064 OA 
HETATM   13  C   UNL     1      -9.928  12.045  65.422  1.00  0.00    -0.253 A  
HETATM   14  C   UNL     1      -8.830  11.579  66.140  1.00  0.00    -0.167 A  
HETATM   15  N   UNL     1     -10.306  11.379  64.223  1.00  0.00    -0.299 NA 
HETATM   16  C   UNL     1      -8.087  10.403  65.648  1.00  0.00    -0.156 C  
HETATM   17  O   UNL     1      -8.228   8.065  62.748  1.00  0.00    -0.167 OA 
HETATM   18  C   UNL     1      -8.427  12.253  67.288  1.00  0.00    -0.181 A  
HETATM   19  F   UNL     1      -8.744  14.020  68.795  1.00  0.00    -0.169 F  
HETATM   20  C   UNL     1      -8.536   9.743  64.402  1.00  0.00    -0.202 C  
HETATM   21  O   UNL     1      -7.105   9.974  66.251  1.00  0.00    -0.096 OA 
HETATM   22  C   UNL     1      -9.152  13.366  67.695  1.00  0.00    -0.203 A  
HETATM   23  C   UNL     1      -7.854   8.589  63.787  1.00  0.00    -0.150 C  
HETATM   24  C   UNL     1      -9.611  10.265  63.798  1.00  0.00    -0.284 C  
BRANCH  15  25
HETATM   25  C   UNL     1     -11.239  12.064  63.309  1.00  0.00    -0.318 C  
HETATM   26  C   UNL     1     -12.714  11.746  63.413  1.00  0.00    -0.395 C  
HETATM   27  C   UNL     1     -12.229  13.128  63.719  1.00  0.00    -0.528 C  
ENDBRANCH  15  25
ENDBRANCH   7  10
BRANCH   9  28
HETATM   28  C   UNL     1      -9.725  18.095  68.548  1.00  0.00    -0.362 C  
HETATM   29  H1  UNL     1      -7.712  17.949  69.036  1.00  0.00     0.000 HD 
HETATM   30  N   UNL     1      -8.489  17.343  68.771  1.00  0.00    -0.259 NA 
HETATM   31  H2  UNL     1      -8.252  16.774  67.958  1.00  0.00     0.000 HD 
ENDBRANCH   9  28
ENDBRANCH   3   5
ENDBRANCH   2   3
TORSDOF 5
ENDMDL
MODEL       75
REMARK 921   NORMALIZED FREE ENERGY PREDICTED BY IDOCK:   -5.12 KCAL/MOL
REMARK 922        TOTAL FREE ENERGY PREDICTED BY IDOCK:   -7.77 KCAL/MOL
REMARK 923 INTER-LIGAND FREE ENERGY PREDICTED BY IDOCK:   -6.64 KCAL/MOL
REMARK 924 INTRA-LIGAND FREE ENERGY PREDICTED BY IDOCK:   -1.12 KCAL/MOL
REMARK 927      BINDING AFFINITY PREDICTED BY RF-SCORE:    0.00 PKD
ROOT
HETATM    1  C   UNL     1     -12.019  16.132  72.446  1.00  0.00    -0.554 C  
HETATM    2  O   UNL     1     -12.056  15.673  71.101  1.00  0.00    -0.336 OA 
ENDROOT
BRANCH   2   3
HETATM    3  N   UNL     1     -11.331  16.563  70.296  1.00  0.00    -0.463 NA 
HETATM    4  H   UNL     1     -10.825  17.380  70.639  1.00  0.00     0.000 HD 
BRANCH   3   5
HETATM    5  C   UNL     1     -11.396  16.197  69.052  1.00  0.00    -0.340 C  
HETATM    6  C   UNL     1     -12.008  14.923  68.531  1.00  0.00    -0.241 C  
HETATM    7  N   UNL     1     -11.469  14.822  67.173  1.00  0.00    -0.364 NA 
HETATM    8  C   UNL     1     -10.772  16.060  66.777  1.00  0.00    -0.259 C  
HETATM    9  C   UNL     1     -10.898  17.069  67.931  1.00  0.00    -0.302 C  
BRANCH   7  10
HETATM   10  C   UNL     1     -10.914  13.602  66.797  1.00  0.00    -0.292 A  
HETATM   11  N   UNL     1      -9.685  13.292  67.278  1.00  0.00    -0.226 NA 
HETATM   12  O   UNL     1      -7.542   7.528  65.350  1.00  0.00    -0.084 OA 
HETATM   13  C   UNL     1      -9.080  12.126  66.944  1.00  0.00    -0.203 A  
HETATM   14  C   UNL     1      -9.706  11.209  66.103  1.00  0.00    -0.253 A  
HETATM   15  N   UNL     1      -7.796  11.817  67.474  1.00  0.00    -0.139 NA 
HETATM   16  C   UNL     1      -9.023   9.942  65.775  1.00  0.00    -0.156 C  
HETATM   17  O   UNL     1      -5.818   8.234  66.617  1.00  0.00    -0.042 OA 
HETATM   18  C   UNL     1     -10.980  11.483  65.619  1.00  0.00    -0.296 A  
HETATM   19  F   UNL     1     -12.821  12.930  65.517  1.00  0.00    -0.521 F  
HETATM   20  C   UNL     1      -7.682   9.683  66.345  1.00  0.00    -0.101 C  
HETATM   21  O   UNL     1      -9.554   9.105  65.046  1.00  0.00    -0.098 OA 
HETATM   22  C   UNL     1     -11.584  12.683  65.976  1.00  0.00    -0.393 A  
HETATM   23  C   UNL     1      -6.919   8.441  66.126  1.00  0.00    -0.072 C  
HETATM   24  C   UNL     1      -7.168  10.637  67.130  1.00  0.00    -0.097 C  
BRANCH  15  25
HETATM   25  C   UNL     1      -7.298  12.620  68.606  1.00  0.00    -0.101 C  
HETATM   26  C   UNL     1      -5.855  12.453  69.029  1.00  0.00    -0.070 C  
HETATM   27  C   UNL     1      -6.324  13.768  68.491  1.00  0.00    -0.092 C  
ENDBRANCH  15  25
ENDBRANCH   7  10
BRANCH   9  28
HETATM   28  C   UNL     1      -9.584  17.770  68.270  1.00  0.00    -0.312 C  
HETATM   29  H1  UNL     1      -7.623  17.288  68.750  1.00  0.00     0.000 HD 
HETATM   30  N   UNL     1      -8.500  16.820  68.523  1.00  0.00    -0.234 NA 
HETATM   31  H2  UNL     1      -8.384  16.176  67.740  1.00  0.00     0.000 HD 
ENDBRANCH   9  28
ENDBRANCH   3   5
ENDBRANCH   2   3
TORSDOF 5
ENDMDL
MODEL       76
REMARK 921   NORMALIZED FREE ENERGY PREDICTED BY IDOCK:   -5.04 KCAL/MOL
REMARK 922        TOTAL FREE ENERGY PREDICTED BY IDOCK:   -7.68 KCAL/MOL
REMARK 923 INTER-LIGAND FREE ENERGY PREDICTED BY IDOCK:   -6.73 KCAL/MOL
REMARK 924 INTRA-LIGAND FREE ENERGY PREDICTED BY IDOCK:   -0.94 KCAL/MOL
REMARK 927      BINDING AFFINITY PREDICTED BY RF-SCORE:    0.00 PKD
ROOT
HETATM    1  C   UNL     1      -9.183   2.977  68.382  1.00  0.00    -0.185 C  
HETATM    2  O   UNL     1      -7.915   3.620  68.418  1.00  0.00    -0.070 OA 
ENDROOT
BRANCH   2   3
HETATM    3  N   UNL     1      -7.750   4.368  67.243  1.00  0.00    -0.088 NA 
HETATM    4  H   UNL     1      -7.715   3.976  66.302  1.00  0.00     0.000 HD 
BRANCH   3   5
HETATM    5  C   UNL     1      -7.649   5.631  67.528  1.00  0.00    -0.089 C  
HETATM    6  C   UNL     1      -8.790   6.574  67.807  1.00  0.00    -0.113 C  
HETATM    7  N   UNL     1      -8.176   7.896  67.665  1.00  0.00    -0.123 NA 
HETATM    8  C   UNL     1      -6.708   7.798  67.551  1.00  0.00    -0.068 C  
HETATM    9  C   UNL     1      -6.317   6.316  67.675  1.00  0.00    -0.033 C  
BRANCH   7  10
HETATM   10  C   UNL     1      -8.840   8.824  66.868  1.00  0.00    -0.127 A  
HETATM   11  N   UNL     1      -9.634   9.733  67.486  1.00  0.00    -0.147 NA 
HETATM   12  O   UNL     1     -12.445  13.877  63.430  1.00  0.00    -0.833 OA 
HETATM   13  C   UNL     1     -10.319  10.659  66.772  1.00  0.00    -0.245 A  
HETATM   14  C   UNL     1     -10.224  10.709  65.383  1.00  0.00    -0.341 A  
HETATM   15  N   UNL     1     -11.134  11.612  67.445  1.00  0.00    -0.263 NA 
HETATM   16  C   UNL     1     -10.971  11.741  64.640  1.00  0.00    -0.310 C  
HETATM   17  O   UNL     1     -13.252  14.588  65.410  1.00  0.00    -0.494 OA 
HETATM   18  C   UNL     1      -9.393   9.810  64.722  1.00  0.00    -0.327 A  
HETATM   19  F   UNL     1      -7.885   8.019  64.828  1.00  0.00    -0.099 F  
HETATM   20  C   UNL     1     -11.814  12.696  65.394  1.00  0.00    -0.473 C  
HETATM   21  O   UNL     1     -10.898  11.820  63.415  1.00  0.00    -0.391 OA 
HETATM   22  C   UNL     1      -8.697   8.871  65.474  1.00  0.00    -0.183 A  
HETATM   23  C   UNL     1     -12.574  13.796  64.771  1.00  0.00    -0.290 C  
HETATM   24  C   UNL     1     -11.844  12.552  66.725  1.00  0.00    -0.346 C  
BRANCH  15  25
HETATM   25  C   UNL     1     -10.969  11.765  68.902  1.00  0.00    -0.239 C  
HETATM   26  C   UNL     1     -11.886  12.717  69.636  1.00  0.00    -0.384 C  
HETATM   27  C   UNL     1     -11.936  11.254  69.942  1.00  0.00    -0.440 C  
ENDBRANCH  15  25
ENDBRANCH   7  10
BRANCH   9  28
HETATM   28  C   UNL     1      -5.305   5.866  66.624  1.00  0.00    -0.009 C  
HETATM   29  H1  UNL     1      -5.249   5.347  64.615  1.00  0.00     0.000 HD 
HETATM   30  N   UNL     1      -5.925   5.648  65.317  1.00  0.00    -0.021 NA 
HETATM   31  H2  UNL     1      -6.434   6.476  65.008  1.00  0.00     0.000 HD 
ENDBRANCH   9  28
ENDBRANCH   3   5
ENDBRANCH   2   3
TORSDOF 5
ENDMDL
MODEL       77
REMARK 921   NORMALIZED FREE ENERGY PREDICTED BY IDOCK:   -5.01 KCAL/MOL
REMARK 922        TOTAL FREE ENERGY PREDICTED BY IDOCK:   -7.63 KCAL/MOL
REMARK 923 INTER-LIGAND FREE ENERGY PREDICTED BY IDOCK:   -6.51 KCAL/MOL
REMARK 924 INTRA-LIGAND FREE ENERGY PREDICTED BY IDOCK:   -1.12 KCAL/MOL
REMARK 927      BINDING AFFINITY PREDICTED BY RF-SCORE:    0.00 PKD
ROOT
HETATM    1  C   UNL     1      -6.748   5.141  69.464  1.00  0.00    -0.051 C  
HETATM    2  O   UNL     1      -7.488   6.171  68.821  1.00  0.00    -0.083 OA 
ENDROOT
BRANCH   2   3
HETATM    3  N   UNL     1      -8.037   5.664  67.634  1.00  0.00    -0.101 NA 
HETATM    4  H   UNL     1      -7.793   4.766  67.215  1.00  0.00     0.000 HD 
BRANCH   3   5
HETATM    5  C   UNL     1      -8.900   6.502  67.145  1.00  0.00    -0.110 C  
HETATM    6  C   UNL     1      -8.593   7.670  66.244  1.00  0.00    -0.144 C  
HETATM    7  N   UNL     1      -9.807   8.485  66.324  1.00  0.00    -0.246 NA 
HETATM    8  C   UNL     1     -10.891   7.767  67.021  1.00  0.00    -0.106 C  
HETATM    9  C   UNL     1     -10.379   6.363  67.385  1.00  0.00    -0.257 C  
BRANCH   7  10
HETATM   10  C   UNL     1      -9.647   9.844  66.576  1.00  0.00    -0.190 A  
HETATM   11  N   UNL     1     -10.082  10.716  65.634  1.00  0.00    -0.262 NA 
HETATM   12  O   UNL     1      -9.215  16.895  67.245  1.00  0.00    -0.222 OA 
HETATM   13  C   UNL     1      -9.949  12.054  65.808  1.00  0.00    -0.241 A  
HETATM   14  C   UNL     1      -9.365  12.572  66.961  1.00  0.00    -0.210 A  
HETATM   15  N   UNL     1     -10.428  12.949  64.811  1.00  0.00    -0.334 NA 
HETATM   16  C   UNL     1      -9.251  14.034  67.122  1.00  0.00    -0.235 C  
HETATM   17  O   UNL     1     -10.171  17.103  65.216  1.00  0.00    -0.591 OA 
HETATM   18  C   UNL     1      -8.936  11.705  67.960  1.00  0.00    -0.176 A  
HETATM   19  F   UNL     1      -8.685   9.509  68.741  1.00  0.00    -0.120 F  
HETATM   20  C   UNL     1      -9.754  14.915  66.045  1.00  0.00    -0.358 C  
HETATM   21  O   UNL     1      -8.752  14.525  68.135  1.00  0.00    -0.158 OA 
HETATM   22  C   UNL     1      -9.086  10.337  67.763  1.00  0.00    -0.134 A  
HETATM   23  C   UNL     1      -9.735  16.388  66.107  1.00  0.00    -0.327 C  
HETATM   24  C   UNL     1     -10.285  14.312  64.974  1.00  0.00    -0.372 C  
BRANCH  15  25
HETATM   25  C   UNL     1     -11.329  12.417  63.772  1.00  0.00    -0.464 C  
HETATM   26  C   UNL     1     -12.775  12.161  64.133  1.00  0.00    -0.416 C  
HETATM   27  C   UNL     1     -12.438  13.195  63.105  1.00  0.00    -0.115 C  
ENDBRANCH  15  25
ENDBRANCH   7  10
BRANCH   9  28
HETATM   28  C   UNL     1     -10.706   5.950  68.818  1.00  0.00    -0.284 C  
HETATM   29  H1  UNL     1     -10.513   6.686  70.749  1.00  0.00     0.000 HD 
HETATM   30  N   UNL     1     -10.295   6.962  69.792  1.00  0.00    -0.199 NA 
HETATM   31  H2  UNL     1     -10.697   7.873  69.569  1.00  0.00     0.000 HD 
ENDBRANCH   9  28
ENDBRANCH   3   5
ENDBRANCH   2   3
TORSDOF 5
ENDMDL
MODEL       78
REMARK 921   NORMALIZED FREE ENERGY PREDICTED BY IDOCK:   -4.99 KCAL/MOL
REMARK 922        TOTAL FREE ENERGY PREDICTED BY IDOCK:   -7.61 KCAL/MOL
REMARK 923 INTER-LIGAND FREE ENERGY PREDICTED BY IDOCK:   -6.37 KCAL/MOL
REMARK 924 INTRA-LIGAND FREE ENERGY PREDICTED BY IDOCK:   -1.24 KCAL/MOL
REMARK 927      BINDING AFFINITY PREDICTED BY RF-SCORE:    0.00 PKD
ROOT
HETATM    1  C   UNL     1      -9.853   4.007  64.268  1.00  0.00    -0.172 C  
HETATM    2  O   UNL     1     -10.442   4.627  65.404  1.00  0.00    -0.215 OA 
ENDROOT
BRANCH   2   3
HETATM    3  N   UNL     1     -10.111   3.886  66.548  1.00  0.00    -0.366 NA 
HETATM    4  H   UNL     1     -10.159   2.870  66.620  1.00  0.00     0.000 HD 
BRANCH   3   5
HETATM    5  C   UNL     1      -9.733   4.683  67.503  1.00  0.00    -0.172 C  
HETATM    6  C   UNL     1     -10.638   5.479  68.406  1.00  0.00    -0.140 C  
HETATM    7  N   UNL     1      -9.736   6.472  68.994  1.00  0.00    -0.135 NA 
HETATM    8  C   UNL     1      -8.327   6.171  68.681  1.00  0.00    -0.114 C  
HETATM    9  C   UNL     1      -8.285   4.864  67.872  1.00  0.00    -0.100 C  
BRANCH   7  10
HETATM   10  C   UNL     1     -10.149   7.801  68.970  1.00  0.00    -0.196 A  
HETATM   11  N   UNL     1      -9.981   8.494  67.817  1.00  0.00    -0.179 NA 
HETATM   12  O   UNL     1     -12.102  14.571  68.130  1.00  0.00    -0.294 OA 
HETATM   13  C   UNL     1     -10.351   9.795  67.725  1.00  0.00    -0.225 A  
HETATM   14  C   UNL     1     -10.920  10.456  68.811  1.00  0.00    -0.287 A  
HETATM   15  N   UNL     1     -10.178  10.496  66.499  1.00  0.00    -0.224 NA 
HETATM   16  C   UNL     1     -11.325  11.868  68.669  1.00  0.00    -0.276 C  
HETATM   17  O   UNL     1     -11.334  14.484  66.013  1.00  0.00    -0.333 OA 
HETATM   18  C   UNL     1     -11.135   9.765  69.998  1.00  0.00    -0.311 A  
HETATM   19  F   UNL     1     -10.979   7.767  71.214  1.00  0.00    -0.228 F  
HETATM   20  C   UNL     1     -11.107  12.549  67.373  1.00  0.00    -0.317 C  
HETATM   21  O   UNL     1     -11.842  12.478  69.604  1.00  0.00    -0.309 OA 
HETATM   22  C   UNL     1     -10.751   8.430  70.069  1.00  0.00    -0.236 A  
HETATM   23  C   UNL     1     -11.506  13.941  67.095  1.00  0.00    -0.347 C  
HETATM   24  C   UNL     1     -10.541  11.824  66.401  1.00  0.00    -0.255 C  
BRANCH  15  25
HETATM   25  C   UNL     1      -9.895   9.712  65.283  1.00  0.00    -0.199 C  
HETATM   26  C   UNL     1      -9.628  10.455  63.992  1.00  0.00    -0.376 C  
HETATM   27  C   UNL     1      -8.549   9.620  64.605  1.00  0.00    -0.201 C  
ENDBRANCH  15  25
ENDBRANCH   7  10
BRANCH   9  28
HETATM   28  C   UNL     1      -7.372   4.934  66.650  1.00  0.00    -0.082 C  
HETATM   29  H1  UNL     1      -7.046   6.149  64.999  1.00  0.00     0.000 HD 
HETATM   30  N   UNL     1      -7.656   6.102  65.815  1.00  0.00    -0.082 NA 
HETATM   31  H2  UNL     1      -7.613   6.964  66.358  1.00  0.00     0.000 HD 
ENDBRANCH   9  28
ENDBRANCH   3   5
ENDBRANCH   2   3
TORSDOF 5
ENDMDL
MODEL       79
REMARK 921   NORMALIZED FREE ENERGY PREDICTED BY IDOCK:   -4.96 KCAL/MOL
REMARK 922        TOTAL FREE ENERGY PREDICTED BY IDOCK:   -7.56 KCAL/MOL
REMARK 923 INTER-LIGAND FREE ENERGY PREDICTED BY IDOCK:   -6.68 KCAL/MOL
REMARK 924 INTRA-LIGAND FREE ENERGY PREDICTED BY IDOCK:   -0.88 KCAL/MOL
REMARK 927      BINDING AFFINITY PREDICTED BY RF-SCORE:    0.00 PKD
ROOT
HETATM    1  C   UNL     1      -9.657  10.312  62.822  1.00  0.00    -0.239 C  
HETATM    2  O   UNL     1     -10.141  10.173  64.151  1.00  0.00    -0.213 OA 
ENDROOT
BRANCH   2   3
HETATM    3  N   UNL     1      -9.314   9.277  64.844  1.00  0.00    -0.448 NA 
HETATM    4  H   UNL     1      -9.212   8.286  64.624  1.00  0.00     0.000 HD 
BRANCH   3   5
HETATM    5  C   UNL     1      -8.696   9.891  65.808  1.00  0.00    -0.141 C  
HETATM    6  C   UNL     1      -9.334  10.753  66.866  1.00  0.00    -0.160 C  
HETATM    7  N   UNL     1      -8.202  11.496  67.422  1.00  0.00    -0.142 NA 
HETATM    8  C   UNL     1      -6.917  10.967  66.928  1.00  0.00    -0.119 C  
HETATM    9  C   UNL     1      -7.213   9.760  66.022  1.00  0.00    -0.101 C  
BRANCH   7  10
HETATM   10  C   UNL     1      -8.345  12.875  67.546  1.00  0.00    -0.183 A  
HETATM   11  N   UNL     1      -9.092  13.519  66.616  1.00  0.00    -0.210 NA 
HETATM   12  O   UNL     1      -9.550  19.868  67.623  1.00  0.00    -0.337 OA 
HETATM   13  C   UNL     1      -9.265  14.863  66.669  1.00  0.00    -0.276 A  
HETATM   14  C   UNL     1      -8.686  15.620  67.684  1.00  0.00    -0.182 A  
HETATM   15  N   UNL     1     -10.067  15.513  65.690  1.00  0.00    -0.354 NA 
HETATM   16  C   UNL     1      -8.909  17.078  67.719  1.00  0.00    -0.223 C  
HETATM   17  O   UNL     1     -10.773  19.633  65.745  1.00  0.00    -0.516 OA 
HETATM   18  C   UNL     1      -7.939  14.986  68.671  1.00  0.00    -0.153 A  
HETATM   19  F   UNL     1      -7.070  13.002  69.566  1.00  0.00    -0.039 F  
HETATM   20  C   UNL     1      -9.740  17.701  66.664  1.00  0.00    -0.304 C  
HETATM   21  O   UNL     1      -8.422  17.775  68.609  1.00  0.00    -0.298 OA 
HETATM   22  C   UNL     1      -7.777  13.607  68.599  1.00  0.00    -0.107 A  
HETATM   23  C   UNL     1     -10.070  19.137  66.614  1.00  0.00    -0.395 C  
HETATM   24  C   UNL     1     -10.238  16.882  65.729  1.00  0.00    -0.268 C  
BRANCH  15  25
HETATM   25  C   UNL     1     -10.934  14.681  64.835  1.00  0.00    -0.407 C  
HETATM   26  C   UNL     1     -12.225  14.150  65.418  1.00  0.00    -0.441 C  
HETATM   27  C   UNL     1     -12.267  15.112  64.273  1.00  0.00    -0.257 C  
ENDBRANCH  15  25
ENDBRANCH   7  10
BRANCH   9  28
HETATM   28  C   UNL     1      -6.426   9.776  64.714  1.00  0.00    -0.108 C  
HETATM   29  H1  UNL     1      -5.103   8.571  63.661  1.00  0.00     0.000 HD 
HETATM   30  N   UNL     1      -5.629   8.561  64.534  1.00  0.00    -0.057 NA 
HETATM   31  H2  UNL     1      -6.210   7.725  64.607  1.00  0.00     0.000 HD 
ENDBRANCH   9  28
ENDBRANCH   3   5
ENDBRANCH   2   3
TORSDOF 5
ENDMDL
MODEL       80
REMARK 921   NORMALIZED FREE ENERGY PREDICTED BY IDOCK:   -4.95 KCAL/MOL
REMARK 922        TOTAL FREE ENERGY PREDICTED BY IDOCK:   -7.55 KCAL/MOL
REMARK 923 INTER-LIGAND FREE ENERGY PREDICTED BY IDOCK:   -6.46 KCAL/MOL
REMARK 924 INTRA-LIGAND FREE ENERGY PREDICTED BY IDOCK:   -1.08 KCAL/MOL
REMARK 927      BINDING AFFINITY PREDICTED BY RF-SCORE:    0.00 PKD
ROOT
HETATM    1  C   UNL     1     -10.462   6.050  73.580  1.00  0.00    -0.269 C  
HETATM    2  O   UNL     1     -10.563   7.414  73.191  1.00  0.00    -0.303 OA 
ENDROOT
BRANCH   2   3
HETATM    3  N   UNL     1     -11.037   7.477  71.873  1.00  0.00    -0.234 NA 
HETATM    4  H   UNL     1     -11.953   7.151  71.565  1.00  0.00     0.000 HD 
BRANCH   3   5
HETATM    5  C   UNL     1     -10.140   8.011  71.100  1.00  0.00    -0.188 C  
HETATM    6  C   UNL     1      -9.687   9.447  71.123  1.00  0.00    -0.187 C  
HETATM    7  N   UNL     1      -9.001   9.605  69.839  1.00  0.00    -0.206 NA 
HETATM    8  C   UNL     1      -8.816   8.306  69.165  1.00  0.00    -0.143 C  
HETATM    9  C   UNL     1      -9.373   7.206  70.085  1.00  0.00    -0.158 C  
BRANCH   7  10
HETATM   10  C   UNL     1      -9.346  10.708  69.064  1.00  0.00    -0.180 A  
HETATM   11  N   UNL     1      -8.436  11.706  68.945  1.00  0.00    -0.017 NA 
HETATM   12  O   UNL     1     -10.417  16.569  65.209  1.00  0.00    -0.590 OA 
HETATM   13  C   UNL     1      -8.709  12.815  68.215  1.00  0.00    -0.168 A  
HETATM   14  C   UNL     1      -9.929  12.959  67.560  1.00  0.00    -0.215 A  
HETATM   15  N   UNL     1      -7.731  13.841  68.093  1.00  0.00    -0.127 NA 
HETATM   16  C   UNL     1     -10.185  14.173  66.760  1.00  0.00    -0.262 C  
HETATM   17  O   UNL     1      -8.371  17.290  65.817  1.00  0.00    -0.535 OA 
HETATM   18  C   UNL     1     -10.872  11.939  67.636  1.00  0.00    -0.271 A  
HETATM   19  F   UNL     1     -11.480   9.824  68.441  1.00  0.00    -0.182 F  
HETATM   20  C   UNL     1      -9.135  15.213  66.683  1.00  0.00    -0.310 C  
HETATM   21  O   UNL     1     -11.247  14.326  66.159  1.00  0.00    -0.319 OA 
HETATM   22  C   UNL     1     -10.571  10.810  68.388  1.00  0.00    -0.197 A  
HETATM   23  C   UNL     1      -9.254  16.447  65.885  1.00  0.00    -0.199 C  
HETATM   24  C   UNL     1      -8.005  14.979  67.361  1.00  0.00    -0.194 C  
BRANCH  15  25
HETATM   25  C   UNL     1      -6.347  13.537  68.500  1.00  0.00    -0.088 C  
HETATM   26  C   UNL     1      -5.388  13.007  67.457  1.00  0.00    -0.028 C  
HETATM   27  C   UNL     1      -5.130  14.334  68.098  1.00  0.00    -0.116 C  
ENDBRANCH  15  25
ENDBRANCH   7  10
BRANCH   9  28
HETATM   28  C   UNL     1     -10.249   6.190  69.356  1.00  0.00    -0.197 C  
HETATM   29  H1  UNL     1     -12.096   6.097  68.412  1.00  0.00     0.000 HD 
HETATM   30  N   UNL     1     -11.510   6.775  68.899  1.00  0.00    -0.578 NA 
HETATM   31  H2  UNL     1     -11.346   7.602  68.324  1.00  0.00     0.000 HD 
ENDBRANCH   9  28
ENDBRANCH   3   5
ENDBRANCH   2   3
TORSDOF 5
ENDMDL
MODEL       81
REMARK 921   NORMALIZED FREE ENERGY PREDICTED BY IDOCK:   -4.89 KCAL/MOL
REMARK 922        TOTAL FREE ENERGY PREDICTED BY IDOCK:   -7.48 KCAL/MOL
REMARK 923 INTER-LIGAND FREE ENERGY PREDICTED BY IDOCK:   -7.35 KCAL/MOL
REMARK 924 INTRA-LIGAND FREE ENERGY PREDICTED BY IDOCK:   -0.13 KCAL/MOL
REMARK 927      BINDING AFFINITY PREDICTED BY RF-SCORE:    0.00 PKD
ROOT
HETATM    1  C   UNL     1     -10.666  16.850  69.111  1.00  0.00    -0.298 C  
HETATM    2  O   UNL     1     -11.240  16.013  68.116  1.00  0.00    -0.343 OA 
ENDROOT
BRANCH   2   3
HETATM    3  N   UNL     1     -10.266  15.112  67.663  1.00  0.00    -0.239 NA 
HETATM    4  H   UNL     1      -9.264  15.201  67.831  1.00  0.00     0.000 HD 
BRANCH   3   5
HETATM    5  C   UNL     1     -10.825  14.146  66.997  1.00  0.00    -0.295 C  
HETATM    6  C   UNL     1     -10.854  12.693  67.393  1.00  0.00    -0.243 C  
HETATM    7  N   UNL     1     -11.227  12.013  66.151  1.00  0.00    -0.330 NA 
HETATM    8  C   UNL     1     -11.645  12.977  65.116  1.00  0.00    -0.324 C  
HETATM    9  C   UNL     1     -11.593  14.387  65.725  1.00  0.00    -0.353 C  
BRANCH   7  10
HETATM   10  C   UNL     1     -10.454  10.922  65.765  1.00  0.00    -0.210 A  
HETATM   11  N   UNL     1     -10.354   9.882  66.629  1.00  0.00    -0.224 NA 
HETATM   12  O   UNL     1      -6.752   5.023  64.404  1.00  0.00    -0.045 OA 
HETATM   13  C   UNL     1      -9.609   8.791  66.323  1.00  0.00    -0.259 A  
HETATM   14  C   UNL     1      -8.930   8.704  65.110  1.00  0.00    -0.111 A  
HETATM   15  N   UNL     1      -9.533   7.705  67.240  1.00  0.00    -0.142 NA 
HETATM   16  C   UNL     1      -8.143   7.494  64.805  1.00  0.00    -0.112 C  
HETATM   17  O   UNL     1      -7.351   4.233  66.427  1.00  0.00    -0.077 OA 
HETATM   18  C   UNL     1      -9.038   9.741  64.189  1.00  0.00    -0.289 A  
HETATM   19  F   UNL     1      -9.920  11.836  63.620  1.00  0.00    -0.286 F  
HETATM   20  C   UNL     1      -8.089   6.404  65.804  1.00  0.00    -0.127 C  
HETATM   21  O   UNL     1      -7.541   7.380  63.737  1.00  0.00    -0.103 OA 
HETATM   22  C   UNL     1      -9.809  10.848  64.522  1.00  0.00    -0.300 A  
HETATM   23  C   UNL     1      -7.372   5.131  65.599  1.00  0.00    -0.073 C  
HETATM   24  C   UNL     1      -8.768   6.596  66.942  1.00  0.00    -0.116 C  
BRANCH  15  25
HETATM   25  C   UNL     1     -10.505   7.660  68.348  1.00  0.00    -0.169 C  
HETATM   26  C   UNL     1     -11.178   6.343  68.663  1.00  0.00    -0.338 C  
HETATM   27  C   UNL     1     -10.275   6.976  69.674  1.00  0.00    -0.212 C  
ENDBRANCH  15  25
ENDBRANCH   7  10
BRANCH   9  28
HETATM   28  C   UNL     1     -10.921  15.416  64.819  1.00  0.00    -0.393 C  
HETATM   29  H1  UNL     1     -11.412  16.696  63.261  1.00  0.00     0.000 HD 
HETATM   30  N   UNL     1     -11.861  16.009  63.866  1.00  0.00    -1.338 NA 
HETATM   31  H2  UNL     1     -12.668  16.409  64.345  1.00  0.00     0.000 HD 
ENDBRANCH   9  28
ENDBRANCH   3   5
ENDBRANCH   2   3
TORSDOF 5
ENDMDL
MODEL       82
REMARK 921   NORMALIZED FREE ENERGY PREDICTED BY IDOCK:   -4.87 KCAL/MOL
REMARK 922        TOTAL FREE ENERGY PREDICTED BY IDOCK:   -7.45 KCAL/MOL
REMARK 923 INTER-LIGAND FREE ENERGY PREDICTED BY IDOCK:   -6.57 KCAL/MOL
REMARK 924 INTRA-LIGAND FREE ENERGY PREDICTED BY IDOCK:   -0.88 KCAL/MOL
REMARK 927      BINDING AFFINITY PREDICTED BY RF-SCORE:    0.00 PKD
ROOT
HETATM    1  C   UNL     1     -10.191  16.830  67.493  1.00  0.00    -0.289 C  
HETATM    2  O   UNL     1     -11.233  15.925  67.152  1.00  0.00    -0.213 OA 
ENDROOT
BRANCH   2   3
HETATM    3  N   UNL     1     -10.702  14.898  66.358  1.00  0.00    -0.309 NA 
HETATM    4  H   UNL     1      -9.978  15.023  65.650  1.00  0.00     0.000 HD 
BRANCH   3   5
HETATM    5  C   UNL     1     -11.265  13.766  66.654  1.00  0.00    -0.318 C  
HETATM    6  C   UNL     1     -11.750  13.343  68.016  1.00  0.00    -0.356 C  
HETATM    7  N   UNL     1     -11.911  11.894  67.881  1.00  0.00    -0.577 NA 
HETATM    8  C   UNL     1     -11.780  11.467  66.475  1.00  0.00     0.173 C  
HETATM    9  C   UNL     1     -11.565  12.722  65.612  1.00  0.00    -0.410 C  
BRANCH   7  10
HETATM   10  C   UNL     1     -11.345  11.095  68.870  1.00  0.00    -0.278 A  
HETATM   11  N   UNL     1     -10.014  10.852  68.800  1.00  0.00    -0.189 NA 
HETATM   12  O   UNL     1      -7.808   7.182  73.616  1.00  0.00    -0.101 OA 
HETATM   13  C   UNL     1      -9.398  10.074  69.724  1.00  0.00    -0.202 A  
HETATM   14  C   UNL     1     -10.114   9.506  70.775  1.00  0.00    -0.352 A  
HETATM   15  N   UNL     1      -7.996   9.846  69.637  1.00  0.00    -0.145 NA 
HETATM   16  C   UNL     1      -9.407   8.677  71.770  1.00  0.00    -0.273 C  
HETATM   17  O   UNL     1      -5.920   7.541  72.440  1.00  0.00    -0.040 OA 
HETATM   18  C   UNL     1     -11.476   9.762  70.892  1.00  0.00    -0.447 A  
HETATM   19  F   UNL     1     -13.398  10.820  70.068  1.00  0.00    -0.186 F  
HETATM   20  C   UNL     1      -7.950   8.464  71.619  1.00  0.00    -0.169 C  
HETATM   21  O   UNL     1     -10.007   8.172  72.718  1.00  0.00    -0.272 OA 
HETATM   22  C   UNL     1     -12.086  10.565  69.936  1.00  0.00    -0.245 A  
HETATM   23  C   UNL     1      -7.126   7.694  72.569  1.00  0.00    -0.074 C  
HETATM   24  C   UNL     1      -7.363   9.046  70.566  1.00  0.00    -0.086 C  
BRANCH  15  25
HETATM   25  C   UNL     1      -7.205  10.706  68.737  1.00  0.00    -0.087 C  
HETATM   26  C   UNL     1      -6.516  11.920  69.321  1.00  0.00    -0.111 C  
HETATM   27  C   UNL     1      -5.699  10.810  68.740  1.00  0.00    -0.040 C  
ENDBRANCH  15  25
ENDBRANCH   7  10
BRANCH   9  28
HETATM   28  C   UNL     1     -10.441  12.571  64.590  1.00  0.00    -0.319 C  
HETATM   29  H1  UNL     1     -10.201  12.255  62.553  1.00  0.00     0.000 HD 
HETATM   30  N   UNL     1     -10.952  12.356  63.236  1.00  0.00    -0.658 NA 
HETATM   31  H2  UNL     1     -11.601  13.095  62.964  1.00  0.00     0.000 HD 
ENDBRANCH   9  28
ENDBRANCH   3   5
ENDBRANCH   2   3
TORSDOF 5
ENDMDL
MODEL       83
REMARK 921   NORMALIZED FREE ENERGY PREDICTED BY IDOCK:   -4.86 KCAL/MOL
REMARK 922        TOTAL FREE ENERGY PREDICTED BY IDOCK:   -7.44 KCAL/MOL
REMARK 923 INTER-LIGAND FREE ENERGY PREDICTED BY IDOCK:   -7.01 KCAL/MOL
REMARK 924 INTRA-LIGAND FREE ENERGY PREDICTED BY IDOCK:   -0.43 KCAL/MOL
REMARK 927      BINDING AFFINITY PREDICTED BY RF-SCORE:    0.00 PKD
ROOT
HETATM    1  C   UNL     1     -12.777  15.617  73.529  1.00  0.00    -0.561 C  
HETATM    2  O   UNL     1     -13.242  15.919  72.219  1.00  0.00    -0.453 OA 
ENDROOT
BRANCH   2   3
HETATM    3  N   UNL     1     -12.138  16.111  71.377  1.00  0.00    -0.609 NA 
HETATM    4  H   UNL     1     -11.405  16.806  71.524  1.00  0.00     0.000 HD 
BRANCH   3   5
HETATM    5  C   UNL     1     -12.182  15.276  70.383  1.00  0.00    -0.363 C  
HETATM    6  C   UNL     1     -12.587  13.827  70.457  1.00  0.00    -0.291 C  
HETATM    7  N   UNL     1     -12.085  13.273  69.198  1.00  0.00    -0.284 NA 
HETATM    8  C   UNL     1     -11.620  14.338  68.289  1.00  0.00    -0.324 C  
HETATM    9  C   UNL     1     -11.875  15.693  68.970  1.00  0.00    -0.379 C  
BRANCH   7  10
HETATM   10  C   UNL     1     -11.345  12.097  69.270  1.00  0.00    -0.266 A  
HETATM   11  N   UNL     1     -10.177  12.042  68.584  1.00  0.00    -0.205 NA 
HETATM   12  O   UNL     1      -7.049   6.449  69.264  1.00  0.00    -0.075 OA 
HETATM   13  C   UNL     1      -9.411  10.923  68.600  1.00  0.00    -0.187 A  
HETATM   14  C   UNL     1      -9.797   9.800  69.327  1.00  0.00    -0.208 A  
HETATM   15  N   UNL     1      -8.181  10.896  67.884  1.00  0.00    -0.112 NA 
HETATM   16  C   UNL     1      -8.930   8.607  69.335  1.00  0.00    -0.145 C  
HETATM   17  O   UNL     1      -5.656   7.565  67.888  1.00  0.00    -0.028 OA 
HETATM   18  C   UNL     1     -10.974   9.836  70.067  1.00  0.00    -0.319 A  
HETATM   19  F   UNL     1     -12.869  11.023  70.770  1.00  0.00    -0.388 F  
HETATM   20  C   UNL     1      -7.670   8.633  68.559  1.00  0.00    -0.100 C  
HETATM   21  O   UNL     1      -9.236   7.603  69.977  1.00  0.00    -0.151 OA 
HETATM   22  C   UNL     1     -11.743  10.994  70.039  1.00  0.00    -0.355 A  
HETATM   23  C   UNL     1      -6.701   7.522  68.521  1.00  0.00    -0.057 C  
HETATM   24  C   UNL     1      -7.401   9.758  67.885  1.00  0.00    -0.085 C  
BRANCH  15  25
HETATM   25  C   UNL     1      -7.627  12.175  67.404  1.00  0.00    -0.155 C  
HETATM   26  C   UNL     1      -6.879  13.051  68.386  1.00  0.00    -0.097 C  
HETATM   27  C   UNL     1      -6.157  12.466  67.213  1.00  0.00    -0.143 C  
ENDBRANCH  15  25
ENDBRANCH   7  10
BRANCH   9  28
HETATM   28  C   UNL     1     -10.689  16.650  68.883  1.00  0.00    -0.337 C  
HETATM   29  H1  UNL     1      -9.641  17.728  67.453  1.00  0.00     0.000 HD 
HETATM   30  N   UNL     1     -10.433  17.090  67.511  1.00  0.00    -0.333 NA 
HETATM   31  H2  UNL     1     -11.269  17.499  67.093  1.00  0.00     0.000 HD 
ENDBRANCH   9  28
ENDBRANCH   3   5
ENDBRANCH   2   3
TORSDOF 5
ENDMDL
MODEL       84
REMARK 921   NORMALIZED FREE ENERGY PREDICTED BY IDOCK:   -4.86 KCAL/MOL
REMARK 922        TOTAL FREE ENERGY PREDICTED BY IDOCK:   -7.44 KCAL/MOL
REMARK 923 INTER-LIGAND FREE ENERGY PREDICTED BY IDOCK:   -7.49 KCAL/MOL
REMARK 924 INTRA-LIGAND FREE ENERGY PREDICTED BY IDOCK:    0.05 KCAL/MOL
REMARK 927      BINDING AFFINITY PREDICTED BY RF-SCORE:    0.00 PKD
ROOT
HETATM    1  C   UNL     1      -7.804   9.035  64.870  1.00  0.00    -0.119 C  
HETATM    2  O   UNL     1      -9.185   8.729  65.022  1.00  0.00    -0.085 OA 
ENDROOT
BRANCH   2   3
HETATM    3  N   UNL     1      -9.353   7.949  66.176  1.00  0.00    -0.347 NA 
HETATM    4  H   UNL     1      -8.945   7.026  66.321  1.00  0.00     0.000 HD 
BRANCH   3   5
HETATM    5  C   UNL     1     -10.104   8.574  67.032  1.00  0.00    -0.277 C  
HETATM    6  C   UNL     1     -11.082   9.676  66.720  1.00  0.00     0.365 C  
HETATM    7  N   UNL     1     -11.341  10.277  68.029  1.00  0.00    -0.299 NA 
HETATM    8  C   UNL     1     -10.768   9.462  69.118  1.00  0.00    -0.197 C  
HETATM    9  C   UNL     1     -10.128   8.212  68.493  1.00  0.00    -0.220 C  
BRANCH   7  10
HETATM   10  C   UNL     1     -11.251  11.663  68.123  1.00  0.00    -0.263 A  
HETATM   11  N   UNL     1     -11.008  12.359  66.986  1.00  0.00    -0.250 NA 
HETATM   12  O   UNL     1     -10.754  18.737  67.872  1.00  0.00    -0.374 OA 
HETATM   13  C   UNL     1     -10.897  13.710  67.006  1.00  0.00    -0.286 A  
HETATM   14  C   UNL     1     -11.037  14.423  68.194  1.00  0.00    -0.279 A  
HETATM   15  N   UNL     1     -10.656  14.419  65.796  1.00  0.00    -0.305 NA 
HETATM   16  C   UNL     1     -10.927  15.894  68.174  1.00  0.00    -0.335 C  
HETATM   17  O   UNL     1     -10.367  18.587  65.657  1.00  0.00    -0.594 OA 
HETATM   18  C   UNL     1     -11.319  13.741  69.372  1.00  0.00    -0.306 A  
HETATM   19  F   UNL     1     -11.720  11.709  70.469  1.00  0.00    -0.398 F  
HETATM   20  C   UNL     1     -10.660  16.575  66.887  1.00  0.00    -0.238 C  
HETATM   21  O   UNL     1     -11.058  16.555  69.203  1.00  0.00    -0.311 OA 
HETATM   22  C   UNL     1     -11.431  12.356  69.329  1.00  0.00    -0.288 A  
HETATM   23  C   UNL     1     -10.571  18.039  66.731  1.00  0.00    -0.270 C  
HETATM   24  C   UNL     1     -10.531  15.793  65.808  1.00  0.00    -0.367 C  
BRANCH  15  25
HETATM   25  C   UNL     1     -10.842  13.703  64.520  1.00  0.00    -0.406 C  
HETATM   26  C   UNL     1     -11.883  12.607  64.453  1.00  0.00    -0.452 C  
HETATM   27  C   UNL     1     -12.045  13.837  63.617  1.00  0.00    -0.330 C  
ENDBRANCH  15  25
ENDBRANCH   7  10
BRANCH   9  28
HETATM   28  C   UNL     1      -8.738   7.901  69.044  1.00  0.00    -0.138 C  
HETATM   29  H1  UNL     1      -7.500   6.265  69.354  1.00  0.00     0.000 HD 
HETATM   30  N   UNL     1      -8.427   6.473  68.985  1.00  0.00    -0.125 NA 
HETATM   31  H2  UNL     1      -8.538   6.110  68.038  1.00  0.00     0.000 HD 
ENDBRANCH   9  28
ENDBRANCH   3   5
ENDBRANCH   2   3
TORSDOF 5
ENDMDL
MODEL       85
REMARK 921   NORMALIZED FREE ENERGY PREDICTED BY IDOCK:   -4.86 KCAL/MOL
REMARK 922        TOTAL FREE ENERGY PREDICTED BY IDOCK:   -7.44 KCAL/MOL
REMARK 923 INTER-LIGAND FREE ENERGY PREDICTED BY IDOCK:   -7.41 KCAL/MOL
REMARK 924 INTRA-LIGAND FREE ENERGY PREDICTED BY IDOCK:   -0.03 KCAL/MOL
REMARK 927      BINDING AFFINITY PREDICTED BY RF-SCORE:    0.00 PKD
ROOT
HETATM    1  C   UNL     1     -12.482  11.180  70.122  1.00  0.00    -0.241 C  
HETATM    2  O   UNL     1     -11.415  11.444  69.219  1.00  0.00    -0.247 OA 
ENDROOT
BRANCH   2   3
HETATM    3  N   UNL     1     -11.942  11.614  67.931  1.00  0.00    -0.623 NA 
HETATM    4  H   UNL     1     -12.881  11.339  67.643  1.00  0.00     0.000 HD 
BRANCH   3   5
HETATM    5  C   UNL     1     -11.061  12.174  67.157  1.00  0.00    -0.291 C  
HETATM    6  C   UNL     1      -9.754  12.782  67.593  1.00  0.00    -0.205 C  
HETATM    7  N   UNL     1      -9.362  13.598  66.442  1.00  0.00    -0.230 NA 
HETATM    8  C   UNL     1     -10.224  13.330  65.275  1.00  0.00    -0.290 C  
HETATM    9  C   UNL     1     -11.225  12.228  65.662  1.00  0.00    -0.375 C  
BRANCH   7  10
HETATM   10  C   UNL     1      -8.979  14.912  66.693  1.00  0.00    -0.270 A  
HETATM   11  N   UNL     1      -8.070  15.128  67.675  1.00  0.00    -0.149 NA 
HETATM   12  O   UNL     1      -6.529  21.339  68.437  1.00  0.00    -0.106 OA 
HETATM   13  C   UNL     1      -7.659  16.383  67.980  1.00  0.00    -0.152 A  
HETATM   14  C   UNL     1      -8.154  17.487  67.290  1.00  0.00    -0.219 A  
HETATM   15  N   UNL     1      -6.692  16.583  69.005  1.00  0.00    -0.187 NA 
HETATM   16  C   UNL     1      -7.672  18.837  67.639  1.00  0.00    -0.235 C  
HETATM   17  O   UNL     1      -5.253  20.373  70.024  1.00  0.00    -0.230 OA 
HETATM   18  C   UNL     1      -9.064  17.296  66.256  1.00  0.00    -0.245 A  
HETATM   19  F   UNL     1     -10.335  15.826  64.947  1.00  0.00    -0.400 F  
HETATM   20  C   UNL     1      -6.676  18.983  68.724  1.00  0.00    -0.316 C  
HETATM   21  O   UNL     1      -8.079  19.832  67.041  1.00  0.00    -0.272 OA 
HETATM   22  C   UNL     1      -9.470  16.000  65.957  1.00  0.00    -0.349 A  
HETATM   23  C   UNL     1      -6.087  20.271  69.136  1.00  0.00    -0.335 C  
HETATM   24  C   UNL     1      -6.277  17.858  69.330  1.00  0.00    -0.248 C  
BRANCH  15  25
HETATM   25  C   UNL     1      -5.938  15.411  69.489  1.00  0.00    -0.126 C  
HETATM   26  C   UNL     1      -5.413  15.428  70.907  1.00  0.00    -0.074 C  
HETATM   27  C   UNL     1      -6.442  14.418  70.508  1.00  0.00    -0.052 C  
ENDBRANCH  15  25
ENDBRANCH   7  10
BRANCH   9  28
HETATM   28  C   UNL     1     -12.659  12.534  65.238  1.00  0.00    -0.183 C  
HETATM   29  H1  UNL     1     -13.785  12.695  63.502  1.00  0.00     0.000 HD 
HETATM   30  N   UNL     1     -12.827  12.490  63.785  1.00  0.00    -0.759 NA 
HETATM   31  H2  UNL     1     -12.512  11.597  63.405  1.00  0.00     0.000 HD 
ENDBRANCH   9  28
ENDBRANCH   3   5
ENDBRANCH   2   3
TORSDOF 5
ENDMDL
MODEL       86
REMARK 921   NORMALIZED FREE ENERGY PREDICTED BY IDOCK:   -4.84 KCAL/MOL
REMARK 922        TOTAL FREE ENERGY PREDICTED BY IDOCK:   -7.41 KCAL/MOL
REMARK 923 INTER-LIGAND FREE ENERGY PREDICTED BY IDOCK:   -7.69 KCAL/MOL
REMARK 924 INTRA-LIGAND FREE ENERGY PREDICTED BY IDOCK:    0.28 KCAL/MOL
REMARK 927      BINDING AFFINITY PREDICTED BY RF-SCORE:    0.00 PKD
ROOT
HETATM    1  C   UNL     1     -13.305  12.682  71.904  1.00  0.00    -0.387 C  
HETATM    2  O   UNL     1     -13.892  13.709  72.693  1.00  0.00    -0.715 OA 
ENDROOT
BRANCH   2   3
HETATM    3  N   UNL     1     -14.251  14.776  71.857  1.00  0.00    -0.493 NA 
HETATM    4  H   UNL     1     -15.204  15.108  71.711  1.00  0.00     0.000 HD 
BRANCH   3   5
HETATM    5  C   UNL     1     -13.194  15.280  71.295  1.00  0.00    -0.488 C  
HETATM    6  C   UNL     1     -12.834  15.189  69.835  1.00  0.00    -0.003 C  
HETATM    7  N   UNL     1     -11.414  15.545  69.815  1.00  0.00    -0.303 NA 
HETATM    8  C   UNL     1     -10.972  16.063  71.124  1.00  0.00     0.028 C  
HETATM    9  C   UNL     1     -12.191  16.099  72.061  1.00  0.00    -0.524 C  
BRANCH   7  10
HETATM   10  C   UNL     1     -10.556  14.704  69.113  1.00  0.00    -0.242 A  
HETATM   11  N   UNL     1     -11.100  13.879  68.185  1.00  0.00    -0.247 NA 
HETATM   12  O   UNL     1      -6.760  10.228  65.125  1.00  0.00    -0.126 OA 
HETATM   13  C   UNL     1     -10.324  13.026  67.472  1.00  0.00    -0.224 A  
HETATM   14  C   UNL     1      -8.947  12.976  67.666  1.00  0.00    -0.192 A  
HETATM   15  N   UNL     1     -10.917  12.180  66.492  1.00  0.00    -0.270 NA 
HETATM   16  C   UNL     1      -8.133  12.046  66.860  1.00  0.00    -0.127 C  
HETATM   17  O   UNL     1      -8.671   9.548  64.146  1.00  0.00    -0.195 OA 
HETATM   18  C   UNL     1      -8.354  13.832  68.588  1.00  0.00    -0.067 A  
HETATM   19  F   UNL     1      -8.584  15.535  70.182  1.00  0.00    -0.122 F  
HETATM   20  C   UNL     1      -8.807  11.181  65.867  1.00  0.00    -0.193 C  
HETATM   21  O   UNL     1      -6.911  11.987  66.998  1.00  0.00    -0.142 OA 
HETATM   22  C   UNL     1      -9.167  14.701  69.307  1.00  0.00     0.036 A  
HETATM   23  C   UNL     1      -8.101  10.244  64.974  1.00  0.00    -0.146 C  
HETATM   24  C   UNL     1     -10.137  11.300  65.770  1.00  0.00    -0.247 C  
BRANCH  15  25
HETATM   25  C   UNL     1     -12.297  12.473  66.063  1.00  0.00    -0.006 C  
HETATM   26  C   UNL     1     -12.577  13.795  65.383  1.00  0.00    -0.534 C  
HETATM   27  C   UNL     1     -12.768  12.517  64.630  1.00  0.00    -0.434 C  
ENDBRANCH  15  25
ENDBRANCH   7  10
BRANCH   9  28
HETATM   28  C   UNL     1     -11.906  15.532  73.450  1.00  0.00    -0.364 C  
HETATM   29  H1  UNL     1     -12.618  15.699  75.392  1.00  0.00     0.000 HD 
HETATM   30  N   UNL     1     -12.809  16.077  74.464  1.00  0.00    -0.963 NA 
HETATM   31  H2  UNL     1     -13.785  15.938  74.202  1.00  0.00     0.000 HD 
ENDBRANCH   9  28
ENDBRANCH   3   5
ENDBRANCH   2   3
TORSDOF 5
ENDMDL
MODEL       87
REMARK 921   NORMALIZED FREE ENERGY PREDICTED BY IDOCK:   -4.82 KCAL/MOL
REMARK 922        TOTAL FREE ENERGY PREDICTED BY IDOCK:   -7.38 KCAL/MOL
REMARK 923 INTER-LIGAND FREE ENERGY PREDICTED BY IDOCK:   -6.25 KCAL/MOL
REMARK 924 INTRA-LIGAND FREE ENERGY PREDICTED BY IDOCK:   -1.13 KCAL/MOL
REMARK 927      BINDING AFFINITY PREDICTED BY RF-SCORE:    0.00 PKD
ROOT
HETATM    1  C   UNL     1     -13.006   9.365  72.037  1.00  0.00    -0.423 C  
HETATM    2  O   UNL     1     -11.909   8.461  72.036  1.00  0.00    -0.305 OA 
ENDROOT
BRANCH   2   3
HETATM    3  N   UNL     1     -11.677   8.028  70.722  1.00  0.00    -0.405 NA 
HETATM    4  H   UNL     1     -12.381   7.612  70.112  1.00  0.00     0.000 HD 
BRANCH   3   5
HETATM    5  C   UNL     1     -10.437   8.235  70.395  1.00  0.00    -0.215 C  
HETATM    6  C   UNL     1      -9.575   9.380  70.856  1.00  0.00    -0.231 C  
HETATM    7  N   UNL     1      -8.457   9.361  69.910  1.00  0.00    -0.158 NA 
HETATM    8  C   UNL     1      -8.482   8.147  69.073  1.00  0.00    -0.129 C  
HETATM    9  C   UNL     1      -9.667   7.278  69.525  1.00  0.00    -0.158 C  
BRANCH   7  10
HETATM   10  C   UNL     1      -8.107  10.569  69.313  1.00  0.00    -0.148 A  
HETATM   11  N   UNL     1      -9.104  11.335  68.806  1.00  0.00    -0.154 NA 
HETATM   12  O   UNL     1      -7.040  16.863  66.215  1.00  0.00    -0.245 OA 
HETATM   13  C   UNL     1      -8.834  12.518  68.201  1.00  0.00    -0.191 A  
HETATM   14  C   UNL     1      -7.527  12.984  68.089  1.00  0.00    -0.130 A  
HETATM   15  N   UNL     1      -9.899  13.311  67.691  1.00  0.00    -0.224 NA 
HETATM   16  C   UNL     1      -7.274  14.285  67.439  1.00  0.00    -0.112 C  
HETATM   17  O   UNL     1      -9.261  17.020  65.869  1.00  0.00    -0.504 OA 
HETATM   18  C   UNL     1      -6.485  12.237  68.627  1.00  0.00    -0.073 A  
HETATM   19  F   UNL     1      -5.773  10.323  69.777  1.00  0.00    -0.039 F  
HETATM   20  C   UNL     1      -8.421  15.058  66.914  1.00  0.00    -0.269 C  
HETATM   21  O   UNL     1      -6.132  14.731  67.335  1.00  0.00    -0.338 OA 
HETATM   22  C   UNL     1      -6.784  11.028  69.246  1.00  0.00    -0.099 A  
HETATM   23  C   UNL     1      -8.301  16.386  66.283  1.00  0.00    -0.327 C  
HETATM   24  C   UNL     1      -9.634  14.512  67.063  1.00  0.00    -0.245 C  
BRANCH  15  25
HETATM   25  C   UNL     1     -11.275  12.980  68.104  1.00  0.00    -0.272 C  
HETATM   26  C   UNL     1     -11.887  13.749  69.254  1.00  0.00    -0.392 C  
HETATM   27  C   UNL     1     -12.482  13.861  67.886  1.00  0.00     0.226 C  
ENDBRANCH  15  25
ENDBRANCH   7  10
BRANCH   9  28
HETATM   28  C   UNL     1     -10.500   6.737  68.365  1.00  0.00    -0.205 C  
HETATM   29  H1  UNL     1     -11.657   7.446  66.795  1.00  0.00     0.000 HD 
HETATM   30  N   UNL     1     -11.100   7.807  67.569  1.00  0.00    -0.485 NA 
HETATM   31  H2  UNL     1     -10.392   8.464  67.239  1.00  0.00     0.000 HD 
ENDBRANCH   9  28
ENDBRANCH   3   5
ENDBRANCH   2   3
TORSDOF 5
ENDMDL
MODEL       88
REMARK 921   NORMALIZED FREE ENERGY PREDICTED BY IDOCK:   -4.81 KCAL/MOL
REMARK 922        TOTAL FREE ENERGY PREDICTED BY IDOCK:   -7.38 KCAL/MOL
REMARK 923 INTER-LIGAND FREE ENERGY PREDICTED BY IDOCK:   -7.03 KCAL/MOL
REMARK 924 INTRA-LIGAND FREE ENERGY PREDICTED BY IDOCK:   -0.35 KCAL/MOL
REMARK 927      BINDING AFFINITY PREDICTED BY RF-SCORE:    0.00 PKD
ROOT
HETATM    1  C   UNL     1      -5.498  20.435  71.918  1.00  0.00    -0.266 C  
HETATM    2  O   UNL     1      -5.681  19.487  70.874  1.00  0.00    -0.235 OA 
ENDROOT
BRANCH   2   3
HETATM    3  N   UNL     1      -5.351  18.212  71.355  1.00  0.00    -0.327 NA 
HETATM    4  H   UNL     1      -5.118  17.996  72.324  1.00  0.00     0.000 HD 
BRANCH   3   5
HETATM    5  C   UNL     1      -5.385  17.345  70.388  1.00  0.00    -0.255 C  
HETATM    6  C   UNL     1      -5.613  17.648  68.930  1.00  0.00    -0.172 C  
HETATM    7  N   UNL     1      -5.952  16.342  68.364  1.00  0.00    -0.104 NA 
HETATM    8  C   UNL     1      -5.714  15.257  69.334  1.00  0.00    -0.100 C  
HETATM    9  C   UNL     1      -5.132  15.879  70.614  1.00  0.00    -0.176 C  
BRANCH   7  10
HETATM   10  C   UNL     1      -7.086  16.271  67.559  1.00  0.00    -0.151 A  
HETATM   11  N   UNL     1      -7.836  15.144  67.622  1.00  0.00    -0.145 NA 
HETATM   12  O   UNL     1     -13.020  15.281  63.796  1.00  0.00    -0.427 OA 
HETATM   13  C   UNL     1      -8.947  15.002  66.858  1.00  0.00    -0.251 A  
HETATM   14  C   UNL     1      -9.354  16.013  65.990  1.00  0.00    -0.380 A  
HETATM   15  N   UNL     1      -9.726  13.815  66.953  1.00  0.00    -0.257 NA 
HETATM   16  C   UNL     1     -10.577  15.830  65.186  1.00  0.00    -0.411 C  
HETATM   17  O   UNL     1     -13.222  13.243  64.734  1.00  0.00    -0.629 OA 
HETATM   18  C   UNL     1      -8.623  17.195  65.926  1.00  0.00    -0.003 A  
HETATM   19  F   UNL     1      -6.801  18.471  66.663  1.00  0.00    -0.190 F  
HETATM   20  C   UNL     1     -11.338  14.568  65.318  1.00  0.00    -0.353 C  
HETATM   21  O   UNL     1     -10.971  16.709  64.420  1.00  0.00    -0.924 OA 
HETATM   22  C   UNL     1      -7.489  17.320  66.720  1.00  0.00    -0.222 A  
HETATM   23  C   UNL     1     -12.596  14.284  64.601  1.00  0.00    -0.255 C  
HETATM   24  C   UNL     1     -10.852  13.658  66.171  1.00  0.00    -0.279 C  
BRANCH  15  25
HETATM   25  C   UNL     1      -9.484  12.913  68.094  1.00  0.00    -0.218 C  
HETATM   26  C   UNL     1     -10.676  12.383  68.860  1.00  0.00    -0.202 C  
HETATM   27  C   UNL     1      -9.793  11.436  68.111  1.00  0.00    -0.195 C  
ENDBRANCH  15  25
ENDBRANCH   7  10
BRANCH   9  28
HETATM   28  C   UNL     1      -5.784  15.360  71.893  1.00  0.00     0.596 C  
HETATM   29  H1  UNL     1      -6.286  13.551  72.779  1.00  0.00     0.000 HD 
HETATM   30  N   UNL     1      -5.851  13.898  71.925  1.00  0.00    -0.499 NA 
HETATM   31  H2  UNL     1      -4.929  13.483  71.785  1.00  0.00     0.000 HD 
ENDBRANCH   9  28
ENDBRANCH   3   5
ENDBRANCH   2   3
TORSDOF 5
ENDMDL
MODEL       89
REMARK 921   NORMALIZED FREE ENERGY PREDICTED BY IDOCK:   -4.81 KCAL/MOL
REMARK 922        TOTAL FREE ENERGY PREDICTED BY IDOCK:   -7.37 KCAL/MOL
REMARK 923 INTER-LIGAND FREE ENERGY PREDICTED BY IDOCK:   -6.47 KCAL/MOL
REMARK 924 INTRA-LIGAND FREE ENERGY PREDICTED BY IDOCK:   -0.90 KCAL/MOL
REMARK 927      BINDING AFFINITY PREDICTED BY RF-SCORE:    0.00 PKD
ROOT
HETATM    1  C   UNL     1     -12.607  14.258  65.647  1.00  0.00    -0.410 C  
HETATM    2  O   UNL     1     -11.913  13.085  65.241  1.00  0.00    -0.357 OA 
ENDROOT
BRANCH   2   3
HETATM    3  N   UNL     1     -12.147  12.070  66.180  1.00  0.00    -0.520 NA 
HETATM    4  H   UNL     1     -13.059  11.659  66.381  1.00  0.00     0.000 HD 
BRANCH   3   5
HETATM    5  C   UNL     1     -11.034  11.730  66.758  1.00  0.00    -0.288 C  
HETATM    6  C   UNL     1     -10.109  10.624  66.322  1.00  0.00    -0.235 C  
HETATM    7  N   UNL     1      -9.265  10.409  67.500  1.00  0.00    -0.144 NA 
HETATM    8  C   UNL     1      -9.474  11.462  68.511  1.00  0.00    -0.183 C  
HETATM    9  C   UNL     1     -10.488  12.471  67.947  1.00  0.00    -0.226 C  
BRANCH   7  10
HETATM   10  C   UNL     1      -9.103   9.097  67.935  1.00  0.00    -0.127 A  
HETATM   11  N   UNL     1      -9.834   8.691  69.002  1.00  0.00    -0.177 NA 
HETATM   12  O   UNL     1      -8.828   2.535  70.623  1.00  0.00    -0.067 OA 
HETATM   13  C   UNL     1      -9.719   7.430  69.487  1.00  0.00    -0.159 A  
HETATM   14  C   UNL     1      -8.851   6.513  68.900  1.00  0.00    -0.126 A  
HETATM   15  N   UNL     1     -10.510   7.023  70.598  1.00  0.00    -0.208 NA 
HETATM   16  C   UNL     1      -8.764   5.144  69.445  1.00  0.00    -0.099 C  
HETATM   17  O   UNL     1     -10.342   3.154  72.173  1.00  0.00    -0.117 OA 
HETATM   18  C   UNL     1      -8.109   6.889  67.785  1.00  0.00    -0.114 A  
HETATM   19  F   UNL     1      -7.538   8.533  66.215  1.00  0.00    -0.084 F  
HETATM   20  C   UNL     1      -9.600   4.784  70.612  1.00  0.00    -0.255 C  
HETATM   21  O   UNL     1      -8.016   4.307  68.942  1.00  0.00    -0.071 OA 
HETATM   22  C   UNL     1      -8.245   8.186  67.302  1.00  0.00    -0.121 A  
HETATM   23  C   UNL     1      -9.633   3.441  71.219  1.00  0.00    -0.161 C  
HETATM   24  C   UNL     1     -10.390   5.745  71.106  1.00  0.00    -0.227 C  
BRANCH  15  25
HETATM   25  C   UNL     1     -11.647   7.874  70.992  1.00  0.00    -0.282 C  
HETATM   26  C   UNL     1     -12.839   7.222  71.658  1.00  0.00    -0.415 C  
HETATM   27  C   UNL     1     -12.019   8.219  72.414  1.00  0.00    -0.447 C  
ENDBRANCH  15  25
ENDBRANCH   7  10
BRANCH   9  28
HETATM   28  C   UNL     1     -11.574  12.863  68.946  1.00  0.00    -0.315 C  
HETATM   29  H1  UNL     1     -12.279  12.282  70.810  1.00  0.00     0.000 HD 
HETATM   30  N   UNL     1     -11.554  12.021  70.143  1.00  0.00    -0.531 NA 
HETATM   31  H2  UNL     1     -10.632  12.023  70.580  1.00  0.00     0.000 HD 
ENDBRANCH   9  28
ENDBRANCH   3   5
ENDBRANCH   2   3
TORSDOF 5
ENDMDL
MODEL       90
REMARK 921   NORMALIZED FREE ENERGY PREDICTED BY IDOCK:   -4.80 KCAL/MOL
REMARK 922        TOTAL FREE ENERGY PREDICTED BY IDOCK:   -7.36 KCAL/MOL
REMARK 923 INTER-LIGAND FREE ENERGY PREDICTED BY IDOCK:   -6.54 KCAL/MOL
REMARK 924 INTRA-LIGAND FREE ENERGY PREDICTED BY IDOCK:   -0.82 KCAL/MOL
REMARK 927      BINDING AFFINITY PREDICTED BY RF-SCORE:    0.00 PKD
ROOT
HETATM    1  C   UNL     1     -12.311  14.083  64.913  1.00  0.00    -0.427 C  
HETATM    2  O   UNL     1     -12.204  12.698  65.215  1.00  0.00    -0.449 OA 
ENDROOT
BRANCH   2   3
HETATM    3  N   UNL     1     -12.276  12.528  66.605  1.00  0.00    -0.507 NA 
HETATM    4  H   UNL     1     -13.058  12.824  67.190  1.00  0.00     0.000 HD 
BRANCH   3   5
HETATM    5  C   UNL     1     -11.203  11.940  67.041  1.00  0.00    -0.323 C  
HETATM    6  C   UNL     1     -10.277  11.069  66.234  1.00  0.00    -0.245 C  
HETATM    7  N   UNL     1      -9.502  10.364  67.256  1.00  0.00    -0.153 NA 
HETATM    8  C   UNL     1      -9.743  10.928  68.598  1.00  0.00    -0.185 C  
HETATM    9  C   UNL     1     -10.706  12.118  68.450  1.00  0.00    -0.252 C  
BRANCH   7  10
HETATM   10  C   UNL     1      -9.389   8.982  67.131  1.00  0.00    -0.147 A  
HETATM   11  N   UNL     1      -9.644   8.226  68.226  1.00  0.00    -0.145 NA 
HETATM   12  O   UNL     1      -9.080   1.893  67.171  1.00  0.00    -0.130 OA 
HETATM   13  C   UNL     1      -9.543   6.874  68.178  1.00  0.00    -0.124 A  
HETATM   14  C   UNL     1      -9.180   6.224  67.002  1.00  0.00    -0.130 A  
HETATM   15  N   UNL     1      -9.831   6.101  69.338  1.00  0.00    -0.153 NA 
HETATM   16  C   UNL     1      -9.096   4.751  66.984  1.00  0.00    -0.118 C  
HETATM   17  O   UNL     1      -9.648   1.924  69.351  1.00  0.00    -0.086 OA 
HETATM   18  C   UNL     1      -8.942   6.970  65.852  1.00  0.00    -0.092 A  
HETATM   19  F   UNL     1      -8.840   9.063  64.803  1.00  0.00    -0.192 F  
HETATM   20  C   UNL     1      -9.393   4.001  68.225  1.00  0.00    -0.216 C  
HETATM   21  O   UNL     1      -8.791   4.144  65.957  1.00  0.00    -0.116 OA 
HETATM   22  C   UNL     1      -9.055   8.354  65.922  1.00  0.00    -0.171 A  
HETATM   23  C   UNL     1      -9.384   2.530  68.322  1.00  0.00    -0.205 C  
HETATM   24  C   UNL     1      -9.719   4.726  69.302  1.00  0.00    -0.196 C  
BRANCH  15  25
HETATM   25  C   UNL     1     -10.526   6.760  70.459  1.00  0.00    -0.209 C  
HETATM   26  C   UNL     1     -12.003   6.493  70.648  1.00  0.00    -0.345 C  
HETATM   27  C   UNL     1     -11.030   6.059  71.698  1.00  0.00    -0.328 C  
ENDBRANCH  15  25
ENDBRANCH   7  10
BRANCH   9  28
HETATM   28  C   UNL     1     -11.836  12.116  69.477  1.00  0.00    -0.321 C  
HETATM   29  H1  UNL     1     -13.364  10.873  70.130  1.00  0.00     0.000 HD 
HETATM   30  N   UNL     1     -12.609  10.874  69.445  1.00  0.00    -0.577 NA 
HETATM   31  H2  UNL     1     -12.005  10.060  69.559  1.00  0.00     0.000 HD 
ENDBRANCH   9  28
ENDBRANCH   3   5
ENDBRANCH   2   3
TORSDOF 5
ENDMDL
MODEL       91
REMARK 921   NORMALIZED FREE ENERGY PREDICTED BY IDOCK:   -4.78 KCAL/MOL
REMARK 922        TOTAL FREE ENERGY PREDICTED BY IDOCK:   -7.33 KCAL/MOL
REMARK 923 INTER-LIGAND FREE ENERGY PREDICTED BY IDOCK:   -6.43 KCAL/MOL
REMARK 924 INTRA-LIGAND FREE ENERGY PREDICTED BY IDOCK:   -0.90 KCAL/MOL
REMARK 927      BINDING AFFINITY PREDICTED BY RF-SCORE:    0.00 PKD
ROOT
HETATM    1  C   UNL     1      -7.645   5.711  68.020  1.00  0.00    -0.085 C  
HETATM    2  O   UNL     1      -8.197   6.678  68.904  1.00  0.00    -0.117 OA 
ENDROOT
BRANCH   2   3
HETATM    3  N   UNL     1      -8.923   6.017  69.905  1.00  0.00    -0.140 NA 
HETATM    4  H   UNL     1      -8.797   5.040  70.170  1.00  0.00     0.000 HD 
BRANCH   3   5
HETATM    5  C   UNL     1      -9.780   6.830  70.447  1.00  0.00    -0.175 C  
HETATM    6  C   UNL     1     -10.849   7.606  69.724  1.00  0.00    -0.217 C  
HETATM    7  N   UNL     1     -11.240   8.628  70.697  1.00  0.00    -0.253 NA 
HETATM    8  C   UNL     1     -10.644   8.364  72.021  1.00  0.00    -0.317 C  
HETATM    9  C   UNL     1      -9.844   7.054  71.934  1.00  0.00    -0.173 C  
BRANCH   7  10
HETATM   10  C   UNL     1     -11.300   9.944  70.250  1.00  0.00    -0.291 A  
HETATM   11  N   UNL     1     -10.410  10.331  69.303  1.00  0.00    -0.216 NA 
HETATM   12  O   UNL     1     -11.102  16.471  67.472  1.00  0.00    -0.221 OA 
HETATM   13  C   UNL     1     -10.405  11.601  68.829  1.00  0.00    -0.195 A  
HETATM   14  C   UNL     1     -11.316  12.544  69.297  1.00  0.00    -0.307 A  
HETATM   15  N   UNL     1      -9.471  11.978  67.824  1.00  0.00    -0.184 NA 
HETATM   16  C   UNL     1     -11.291  13.913  68.746  1.00  0.00    -0.277 C  
HETATM   17  O   UNL     1      -9.364  15.826  66.191  1.00  0.00    -0.291 OA 
HETATM   18  C   UNL     1     -12.262  12.171  70.245  1.00  0.00    -0.344 A  
HETATM   19  F   UNL     1     -13.180  10.508  71.618  1.00  0.00    -0.440 F  
HETATM   20  C   UNL     1     -10.287  14.250  67.712  1.00  0.00    -0.238 C  
HETATM   21  O   UNL     1     -12.091  14.767  69.128  1.00  0.00    -0.298 OA 
HETATM   22  C   UNL     1     -12.252  10.863  70.715  1.00  0.00    -0.383 A  
HETATM   23  C   UNL     1     -10.189  15.567  67.056  1.00  0.00    -0.271 C  
HETATM   24  C   UNL     1      -9.451  13.272  67.344  1.00  0.00    -0.218 C  
BRANCH  15  25
HETATM   25  C   UNL     1      -8.750  10.910  67.107  1.00  0.00    -0.132 C  
HETATM   26  C   UNL     1      -7.504  11.277  66.331  1.00  0.00    -0.064 C  
HETATM   27  C   UNL     1      -7.403  10.356  67.506  1.00  0.00    -0.092 C  
ENDBRANCH  15  25
ENDBRANCH   7  10
BRANCH   9  28
HETATM   28  C   UNL     1      -8.462   7.142  72.576  1.00  0.00    -0.111 C  
HETATM   29  H1  UNL     1      -7.177   8.577  73.351  1.00  0.00     0.000 HD 
HETATM   30  N   UNL     1      -8.101   8.517  72.922  1.00  0.00    -0.382 NA 
HETATM   31  H2  UNL     1      -8.811   8.947  73.515  1.00  0.00     0.000 HD 
ENDBRANCH   9  28
ENDBRANCH   3   5
ENDBRANCH   2   3
TORSDOF 5
ENDMDL
MODEL       92
REMARK 921   NORMALIZED FREE ENERGY PREDICTED BY IDOCK:   -4.76 KCAL/MOL
REMARK 922        TOTAL FREE ENERGY PREDICTED BY IDOCK:   -7.31 KCAL/MOL
REMARK 923 INTER-LIGAND FREE ENERGY PREDICTED BY IDOCK:   -6.44 KCAL/MOL
REMARK 924 INTRA-LIGAND FREE ENERGY PREDICTED BY IDOCK:   -0.87 KCAL/MOL
REMARK 927      BINDING AFFINITY PREDICTED BY RF-SCORE:    0.00 PKD
ROOT
HETATM    1  C   UNL     1     -11.678   8.288  70.853  1.00  0.00    -0.239 C  
HETATM    2  O   UNL     1     -10.667   8.304  69.854  1.00  0.00    -0.238 OA 
ENDROOT
BRANCH   2   3
HETATM    3  N   UNL     1     -10.950   9.326  68.936  1.00  0.00    -0.431 NA 
HETATM    4  H   UNL     1     -11.886   9.598  68.636  1.00  0.00     0.000 HD 
BRANCH   3   5
HETATM    5  C   UNL     1      -9.848   9.876  68.524  1.00  0.00    -0.156 C  
HETATM    6  C   UNL     1      -9.033  10.901  69.268  1.00  0.00     0.031 C  
HETATM    7  N   UNL     1      -8.166  11.460  68.229  1.00  0.00    -0.142 NA 
HETATM    8  C   UNL     1      -8.248  10.677  66.982  1.00  0.00    -0.124 C  
HETATM    9  C   UNL     1      -9.197   9.492  67.223  1.00  0.00    -0.154 C  
BRANCH   7  10
HETATM   10  C   UNL     1      -8.095  12.847  68.136  1.00  0.00    -0.158 A  
HETATM   11  N   UNL     1      -9.147  13.565  68.599  1.00  0.00    -0.077 NA 
HETATM   12  O   UNL     1      -8.360  19.937  68.043  1.00  0.00    -0.301 OA 
HETATM   13  C   UNL     1      -9.151  14.919  68.530  1.00  0.00    -0.191 A  
HETATM   14  C   UNL     1      -8.072  15.612  67.988  1.00  0.00    -0.140 A  
HETATM   15  N   UNL     1     -10.261  15.652  69.037  1.00  0.00    -0.213 NA 
HETATM   16  C   UNL     1      -8.104  17.087  67.944  1.00  0.00    -0.195 C  
HETATM   17  O   UNL     1     -10.407  19.829  68.980  1.00  0.00    -0.368 OA 
HETATM   18  C   UNL     1      -6.963  14.906  67.533  1.00  0.00    -0.203 A  
HETATM   19  F   UNL     1      -5.897  12.847  67.190  1.00  0.00    -0.138 F  
HETATM   20  C   UNL     1      -9.292  17.793  68.473  1.00  0.00    -0.295 C  
HETATM   21  O   UNL     1      -7.161  17.730  67.484  1.00  0.00    -0.185 OA 
HETATM   22  C   UNL     1      -6.979  13.518  67.616  1.00  0.00    -0.167 A  
HETATM   23  C   UNL     1      -9.425  19.261  68.524  1.00  0.00    -0.389 C  
HETATM   24  C   UNL     1     -10.278  17.029  68.960  1.00  0.00    -0.313 C  
BRANCH  15  25
HETATM   25  C   UNL     1     -11.228  14.944  69.897  1.00  0.00    -0.275 C  
HETATM   26  C   UNL     1     -11.338  15.357  71.348  1.00  0.00    -0.449 C  
HETATM   27  C   UNL     1     -12.508  15.539  70.433  1.00  0.00    -0.443 C  
ENDBRANCH  15  25
ENDBRANCH   7  10
BRANCH   9  28
HETATM   28  C   UNL     1     -10.208   9.284  66.098  1.00  0.00    -0.159 C  
HETATM   29  H1  UNL     1     -10.797  10.192  64.327  1.00  0.00     0.000 HD 
HETATM   30  N   UNL     1     -10.122  10.330  65.078  1.00  0.00    -0.323 NA 
HETATM   31  H2  UNL     1      -9.173  10.411  64.712  1.00  0.00     0.000 HD 
ENDBRANCH   9  28
ENDBRANCH   3   5
ENDBRANCH   2   3
TORSDOF 5
ENDMDL
MODEL       93
REMARK 921   NORMALIZED FREE ENERGY PREDICTED BY IDOCK:   -4.74 KCAL/MOL
REMARK 922        TOTAL FREE ENERGY PREDICTED BY IDOCK:   -7.28 KCAL/MOL
REMARK 923 INTER-LIGAND FREE ENERGY PREDICTED BY IDOCK:   -7.34 KCAL/MOL
REMARK 924 INTRA-LIGAND FREE ENERGY PREDICTED BY IDOCK:    0.06 KCAL/MOL
REMARK 927      BINDING AFFINITY PREDICTED BY RF-SCORE:    0.00 PKD
ROOT
HETATM    1  C   UNL     1     -10.113   6.473  71.615  1.00  0.00    -0.182 C  
HETATM    2  O   UNL     1      -9.873   7.793  72.087  1.00  0.00    -0.170 OA 
ENDROOT
BRANCH   2   3
HETATM    3  N   UNL     1     -11.098   8.383  72.430  1.00  0.00    -0.365 NA 
HETATM    4  H   UNL     1     -11.531   8.336  73.352  1.00  0.00     0.000 HD 
BRANCH   3   5
HETATM    5  C   UNL     1     -11.601   8.999  71.402  1.00  0.00    -0.326 C  
HETATM    6  C   UNL     1     -10.839   9.826  70.400  1.00  0.00    -0.311 C  
HETATM    7  N   UNL     1     -11.890  10.591  69.726  1.00  0.00    -0.268 NA 
HETATM    8  C   UNL     1     -13.232  10.103  70.098  1.00  0.00     0.350 C  
HETATM    9  C   UNL     1     -13.060   8.904  71.045  1.00  0.00    -0.019 C  
BRANCH   7  10
HETATM   10  C   UNL     1     -11.697  11.963  69.599  1.00  0.00    -0.343 A  
HETATM   11  N   UNL     1     -11.229  12.427  68.414  1.00  0.00    -0.251 NA 
HETATM   12  O   UNL     1     -10.565  18.835  68.240  1.00  0.00    -0.311 OA 
HETATM   13  C   UNL     1     -11.007  13.751  68.223  1.00  0.00    -0.250 A  
HETATM   14  C   UNL     1     -11.260  14.674  69.235  1.00  0.00    -0.306 A  
HETATM   15  N   UNL     1     -10.530  14.215  66.966  1.00  0.00    -0.270 NA 
HETATM   16  C   UNL     1     -11.023  16.108  68.986  1.00  0.00    -0.312 C  
HETATM   17  O   UNL     1      -9.868  18.267  66.174  1.00  0.00    -0.443 OA 
HETATM   18  C   UNL     1     -11.771  14.233  70.451  1.00  0.00    -0.329 A  
HETATM   19  F   UNL     1     -12.503  12.458  71.796  1.00  0.00    -0.284 F  
HETATM   20  C   UNL     1     -10.511  16.530  67.662  1.00  0.00    -0.305 C  
HETATM   21  O   UNL     1     -11.248  16.950  69.854  1.00  0.00    -0.037 OA 
HETATM   22  C   UNL     1     -11.994  12.871  70.625  1.00  0.00    -0.120 A  
HETATM   23  C   UNL     1     -10.275  17.933  67.278  1.00  0.00    -0.358 C  
HETATM   24  C   UNL     1     -10.290  15.560  66.766  1.00  0.00    -0.288 C  
BRANCH  15  25
HETATM   25  C   UNL     1     -10.585  13.293  65.816  1.00  0.00    -0.284 C  
HETATM   26  C   UNL     1     -11.585  12.159  65.849  1.00  0.00    -0.425 C  
HETATM   27  C   UNL     1     -11.709  13.228  64.810  1.00  0.00    -0.390 C  
ENDBRANCH  15  25
ENDBRANCH   7  10
BRANCH   9  28
HETATM   28  C   UNL     1     -13.970   8.961  72.269  1.00  0.00    -0.466 C  
HETATM   29  H1  UNL     1     -14.970   7.666  73.546  1.00  0.00     0.000 HD 
HETATM   30  N   UNL     1     -14.362   7.628  72.729  1.00  0.00    -0.274 NA 
HETATM   31  H2  UNL     1     -13.545   7.043  72.903  1.00  0.00     0.000 HD 
ENDBRANCH   9  28
ENDBRANCH   3   5
ENDBRANCH   2   3
TORSDOF 5
ENDMDL
MODEL       94
REMARK 921   NORMALIZED FREE ENERGY PREDICTED BY IDOCK:   -4.71 KCAL/MOL
REMARK 922        TOTAL FREE ENERGY PREDICTED BY IDOCK:   -7.24 KCAL/MOL
REMARK 923 INTER-LIGAND FREE ENERGY PREDICTED BY IDOCK:   -6.68 KCAL/MOL
REMARK 924 INTRA-LIGAND FREE ENERGY PREDICTED BY IDOCK:   -0.56 KCAL/MOL
REMARK 927      BINDING AFFINITY PREDICTED BY RF-SCORE:    0.00 PKD
ROOT
HETATM    1  C   UNL     1      -5.641   5.347  68.634  1.00  0.00    -0.011 C  
HETATM    2  O   UNL     1      -6.806   6.135  68.427  1.00  0.00    -0.068 OA 
ENDROOT
BRANCH   2   3
HETATM    3  N   UNL     1      -7.893   5.515  69.062  1.00  0.00    -0.090 NA 
HETATM    4  H   UNL     1      -7.821   4.727  69.705  1.00  0.00     0.000 HD 
BRANCH   3   5
HETATM    5  C   UNL     1      -9.003   6.091  68.713  1.00  0.00    -0.118 C  
HETATM    6  C   UNL     1      -9.147   7.222  67.728  1.00  0.00    -0.124 C  
HETATM    7  N   UNL     1     -10.488   7.740  68.004  1.00  0.00    -0.204 NA 
HETATM    8  C   UNL     1     -11.231   6.850  68.917  1.00  0.00    -0.047 C  
HETATM    9  C   UNL     1     -10.341   5.636  69.231  1.00  0.00    -0.340 C  
BRANCH   7  10
HETATM   10  C   UNL     1     -10.619   9.116  68.171  1.00  0.00    -0.183 A  
HETATM   11  N   UNL     1     -10.508   9.898  67.070  1.00  0.00    -0.240 NA 
HETATM   12  O   UNL     1     -11.256  16.182  68.290  1.00  0.00    -0.352 OA 
HETATM   13  C   UNL     1     -10.614  11.247  67.160  1.00  0.00    -0.235 A  
HETATM   14  C   UNL     1     -10.844  11.868  68.385  1.00  0.00    -0.263 A  
HETATM   15  N   UNL     1     -10.509  12.046  65.987  1.00  0.00    -0.241 NA 
HETATM   16  C   UNL     1     -10.970  13.337  68.442  1.00  0.00    -0.264 C  
HETATM   17  O   UNL     1     -10.888  16.209  66.067  1.00  0.00    -0.264 OA 
HETATM   18  C   UNL     1     -10.994  11.090  69.529  1.00  0.00    -0.297 A  
HETATM   19  F   UNL     1     -11.048   8.967  70.520  1.00  0.00    -0.242 F  
HETATM   20  C   UNL     1     -10.837  14.116  67.191  1.00  0.00    -0.291 C  
HETATM   21  O   UNL     1     -11.186  13.915  69.507  1.00  0.00    -0.243 OA 
HETATM   22  C   UNL     1     -10.885   9.709  69.413  1.00  0.00    -0.217 A  
HETATM   23  C   UNL     1     -10.984  15.581  67.112  1.00  0.00    -0.295 C  
HETATM   24  C   UNL     1     -10.603  13.420  66.071  1.00  0.00    -0.287 C  
BRANCH  15  25
HETATM   25  C   UNL     1     -10.601  11.375  64.677  1.00  0.00    -0.318 C  
HETATM   26  C   UNL     1     -11.534  11.952  63.636  1.00  0.00    -0.551 C  
HETATM   27  C   UNL     1     -10.060  11.928  63.381  1.00  0.00    -0.464 C  
ENDBRANCH  15  25
ENDBRANCH   7  10
BRANCH   9  28
HETATM   28  C   UNL     1     -10.306   5.275  70.714  1.00  0.00    -0.239 C  
HETATM   29  H1  UNL     1      -9.748   3.691  71.933  1.00  0.00     0.000 HD 
HETATM   30  N   UNL     1      -9.771   3.933  70.943  1.00  0.00    -0.188 NA 
HETATM   31  H2  UNL     1      -8.852   3.824  70.514  1.00  0.00     0.000 HD 
ENDBRANCH   9  28
ENDBRANCH   3   5
ENDBRANCH   2   3
TORSDOF 5
ENDMDL
MODEL       95
REMARK 921   NORMALIZED FREE ENERGY PREDICTED BY IDOCK:   -4.67 KCAL/MOL
REMARK 922        TOTAL FREE ENERGY PREDICTED BY IDOCK:   -7.19 KCAL/MOL
REMARK 923 INTER-LIGAND FREE ENERGY PREDICTED BY IDOCK:   -6.50 KCAL/MOL
REMARK 924 INTRA-LIGAND FREE ENERGY PREDICTED BY IDOCK:   -0.69 KCAL/MOL
REMARK 927      BINDING AFFINITY PREDICTED BY RF-SCORE:    0.00 PKD
ROOT
HETATM    1  C   UNL     1      -8.158   7.634  64.672  1.00  0.00    -0.112 C  
HETATM    2  O   UNL     1      -7.791   8.179  65.933  1.00  0.00    -0.088 OA 
ENDROOT
BRANCH   2   3
HETATM    3  N   UNL     1      -8.636   7.650  66.919  1.00  0.00    -0.121 NA 
HETATM    4  H   UNL     1      -8.848   6.659  67.036  1.00  0.00     0.000 HD 
BRANCH   3   5
HETATM    5  C   UNL     1      -9.109   8.604  67.663  1.00  0.00    -0.134 C  
HETATM    6  C   UNL     1     -10.130   9.631  67.250  1.00  0.00    -0.211 C  
HETATM    7  N   UNL     1     -10.003  10.665  68.278  1.00  0.00    -0.154 NA 
HETATM    8  C   UNL     1      -9.147  10.214  69.392  1.00  0.00    -0.203 C  
HETATM    9  C   UNL     1      -8.717   8.766  69.107  1.00  0.00    -0.136 C  
BRANCH   7  10
HETATM   10  C   UNL     1      -9.884  11.983  67.845  1.00  0.00    -0.196 A  
HETATM   11  N   UNL     1     -10.496  12.946  68.577  1.00  0.00    -0.252 NA 
HETATM   12  O   UNL     1      -9.618  18.893  66.257  1.00  0.00    -0.339 OA 
HETATM   13  C   UNL     1     -10.430  14.249  68.208  1.00  0.00    -0.247 A  
HETATM   14  C   UNL     1      -9.729  14.637  67.069  1.00  0.00    -0.247 A  
HETATM   15  N   UNL     1     -11.068  15.243  69.002  1.00  0.00    -0.245 NA 
HETATM   16  C   UNL     1      -9.666  16.066  66.708  1.00  0.00    -0.239 C  
HETATM   17  O   UNL     1     -10.904  19.312  68.059  1.00  0.00    -0.316 OA 
HETATM   18  C   UNL     1      -9.064  13.676  66.314  1.00  0.00     0.003 A  
HETATM   19  F   UNL     1      -8.482  11.430  65.986  1.00  0.00    -0.174 F  
HETATM   20  C   UNL     1     -10.362  17.052  67.564  1.00  0.00    -0.329 C  
HETATM   21  O   UNL     1      -9.044  16.444  65.715  1.00  0.00    -0.465 OA 
HETATM   22  C   UNL     1      -9.141  12.347  66.712  1.00  0.00    -0.212 A  
HETATM   23  C   UNL     1     -10.338  18.508  67.332  1.00  0.00    -0.400 C  
HETATM   24  C   UNL     1     -11.017  16.570  68.627  1.00  0.00    -0.344 C  
BRANCH  15  25
HETATM   25  C   UNL     1     -11.513  14.871  70.358  1.00  0.00    -0.266 C  
HETATM   26  C   UNL     1     -11.866  15.977  71.329  1.00  0.00    -0.502 C  
HETATM   27  C   UNL     1     -12.922  15.018  70.878  1.00  0.00    -0.463 C  
ENDBRANCH  15  25
ENDBRANCH   7  10
BRANCH   9  28
HETATM   28  C   UNL     1      -7.229   8.516  69.344  1.00  0.00    -0.062 C  
HETATM   29  H1  UNL     1      -5.402   9.425  68.962  1.00  0.00     0.000 HD 
HETATM   30  N   UNL     1      -6.396   9.591  68.804  1.00  0.00    -0.047 NA 
HETATM   31  H2  UNL     1      -6.682  10.500  69.171  1.00  0.00     0.000 HD 
ENDBRANCH   9  28
ENDBRANCH   3   5
ENDBRANCH   2   3
TORSDOF 5
ENDMDL
MODEL       96
REMARK 921   NORMALIZED FREE ENERGY PREDICTED BY IDOCK:   -4.65 KCAL/MOL
REMARK 922        TOTAL FREE ENERGY PREDICTED BY IDOCK:   -7.17 KCAL/MOL
REMARK 923 INTER-LIGAND FREE ENERGY PREDICTED BY IDOCK:   -5.83 KCAL/MOL
REMARK 924 INTRA-LIGAND FREE ENERGY PREDICTED BY IDOCK:   -1.34 KCAL/MOL
REMARK 927      BINDING AFFINITY PREDICTED BY RF-SCORE:    0.00 PKD
ROOT
HETATM    1  C   UNL     1     -14.410   7.401  71.654  1.00  0.00    -0.461 C  
HETATM    2  O   UNL     1     -12.994   7.269  71.653  1.00  0.00    -0.357 OA 
ENDROOT
BRANCH   2   3
HETATM    3  N   UNL     1     -12.454   8.160  72.592  1.00  0.00    -0.603 NA 
HETATM    4  H   UNL     1     -12.888   8.404  73.482  1.00  0.00     0.000 HD 
BRANCH   3   5
HETATM    5  C   UNL     1     -11.321   8.630  72.163  1.00  0.00    -0.364 C  
HETATM    6  C   UNL     1     -11.140   9.681  71.100  1.00  0.00    -0.374 C  
HETATM    7  N   UNL     1      -9.730   9.544  70.729  1.00  0.00    -0.261 NA 
HETATM    8  C   UNL     1      -9.014   8.650  71.658  1.00  0.00    -0.235 C  
HETATM    9  C   UNL     1     -10.002   8.201  72.747  1.00  0.00    -0.361 C  
BRANCH   7  10
HETATM   10  C   UNL     1      -9.434   9.462  69.372  1.00  0.00    -0.173 A  
HETATM   11  N   UNL     1      -9.154   8.239  68.859  1.00  0.00    -0.147 NA 
HETATM   12  O   UNL     1      -7.922   8.314  62.534  1.00  0.00    -0.141 OA 
HETATM   13  C   UNL     1      -8.847   8.086  67.548  1.00  0.00    -0.128 A  
HETATM   14  C   UNL     1      -8.815   9.180  66.687  1.00  0.00    -0.147 A  
HETATM   15  N   UNL     1      -8.572   6.789  67.031  1.00  0.00    -0.113 NA 
HETATM   16  C   UNL     1      -8.492   8.973  65.262  1.00  0.00    -0.166 C  
HETATM   17  O   UNL     1      -7.685   6.122  63.000  1.00  0.00    -0.079 OA 
HETATM   18  C   UNL     1      -9.127  10.444  67.175  1.00  0.00    -0.152 A  
HETATM   19  F   UNL     1      -9.760  11.800  68.979  1.00  0.00    -0.156 F  
HETATM   20  C   UNL     1      -8.201   7.603  64.786  1.00  0.00    -0.081 C  
HETATM   21  O   UNL     1      -8.468   9.917  64.473  1.00  0.00    -0.150 OA 
HETATM   22  C   UNL     1      -9.443  10.578  68.522  1.00  0.00    -0.164 A  
HETATM   23  C   UNL     1      -7.907   7.263  63.381  1.00  0.00    -0.110 C  
HETATM   24  C   UNL     1      -8.247   6.626  65.699  1.00  0.00    -0.137 C  
BRANCH  15  25
HETATM   25  C   UNL     1      -8.931   5.620  67.855  1.00  0.00    -0.108 C  
HETATM   26  C   UNL     1      -9.458   4.383  67.162  1.00  0.00    -0.193 C  
HETATM   27  C   UNL     1      -8.160   4.323  67.902  1.00  0.00    -0.094 C  
ENDBRANCH  15  25
ENDBRANCH   7  10
BRANCH   9  28
HETATM   28  C   UNL     1      -9.947   6.703  73.037  1.00  0.00    -0.174 C  
HETATM   29  H1  UNL     1     -10.144   4.898  72.031  1.00  0.00     0.000 HD 
HETATM   30  N   UNL     1     -10.181   5.899  71.837  1.00  0.00    -0.198 NA 
HETATM   31  H2  UNL     1      -9.535   6.154  71.090  1.00  0.00     0.000 HD 
ENDBRANCH   9  28
ENDBRANCH   3   5
ENDBRANCH   2   3
TORSDOF 5
ENDMDL
MODEL       97
REMARK 921   NORMALIZED FREE ENERGY PREDICTED BY IDOCK:   -4.61 KCAL/MOL
REMARK 922        TOTAL FREE ENERGY PREDICTED BY IDOCK:   -7.12 KCAL/MOL
REMARK 923 INTER-LIGAND FREE ENERGY PREDICTED BY IDOCK:   -6.24 KCAL/MOL
REMARK 924 INTRA-LIGAND FREE ENERGY PREDICTED BY IDOCK:   -0.88 KCAL/MOL
REMARK 927      BINDING AFFINITY PREDICTED BY RF-SCORE:    0.00 PKD
ROOT
HETATM    1  C   UNL     1      -9.841   6.925  71.637  1.00  0.00    -0.168 C  
HETATM    2  O   UNL     1      -9.106   7.825  70.817  1.00  0.00    -0.147 OA 
ENDROOT
BRANCH   2   3
HETATM    3  N   UNL     1      -9.482   9.138  71.134  1.00  0.00    -0.272 NA 
HETATM    4  H   UNL     1      -9.305   9.597  72.027  1.00  0.00     0.000 HD 
BRANCH   3   5
HETATM    5  C   UNL     1     -10.088   9.686  70.124  1.00  0.00    -0.262 C  
HETATM    6  C   UNL     1      -9.443  10.152  68.845  1.00  0.00    -0.182 C  
HETATM    7  N   UNL     1     -10.460  11.023  68.253  1.00  0.00    -0.177 NA 
HETATM    8  C   UNL     1     -11.743  10.919  68.974  1.00  0.00    -0.320 C  
HETATM    9  C   UNL     1     -11.581   9.874  70.089  1.00  0.00    -0.281 C  
BRANCH   7  10
HETATM   10  C   UNL     1     -10.047  12.278  67.815  1.00  0.00    -0.201 A  
HETATM   11  N   UNL     1      -9.090  12.914  68.534  1.00  0.00    -0.110 NA 
HETATM   12  O   UNL     1      -7.429  18.648  66.107  1.00  0.00    -0.252 OA 
HETATM   13  C   UNL     1      -8.648  14.144  68.172  1.00  0.00    -0.175 A  
HETATM   14  C   UNL     1      -9.159  14.787  67.048  1.00  0.00    -0.257 A  
HETATM   15  N   UNL     1      -7.631  14.784  68.934  1.00  0.00    -0.136 NA 
HETATM   16  C   UNL     1      -8.643  16.118  66.675  1.00  0.00    -0.276 C  
HETATM   17  O   UNL     1      -6.094  18.537  67.918  1.00  0.00    -0.184 OA 
HETATM   18  C   UNL     1     -10.120  14.147  66.271  1.00  0.00    -0.308 A  
HETATM   19  F   UNL     1     -11.471  12.270  65.893  1.00  0.00    -0.345 F  
HETATM   20  C   UNL     1      -7.595  16.740  67.515  1.00  0.00    -0.179 C  
HETATM   21  O   UNL     1      -9.064  16.707  65.680  1.00  0.00    -0.477 OA 
HETATM   22  C   UNL     1     -10.557  12.886  66.659  1.00  0.00    -0.261 A  
HETATM   23  C   UNL     1      -6.970  18.043  67.223  1.00  0.00    -0.187 C  
HETATM   24  C   UNL     1      -7.184  16.041  68.580  1.00  0.00    -0.138 C  
BRANCH  15  25
HETATM   25  C   UNL     1      -6.872  13.972  69.903  1.00  0.00     0.071 C  
HETATM   26  C   UNL     1      -5.399  13.739  69.651  1.00  0.00    -0.086 C  
HETATM   27  C   UNL     1      -5.832  14.510  70.857  1.00  0.00    -0.170 C  
ENDBRANCH  15  25
ENDBRANCH   7  10
BRANCH   9  28
HETATM   28  C   UNL     1     -12.148  10.326  71.433  1.00  0.00    -0.362 C  
HETATM   29  H1  UNL     1     -13.724   9.874  72.706  1.00  0.00     0.000 HD 
HETATM   30  N   UNL     1     -13.345   9.572  71.809  1.00  0.00    -0.399 NA 
HETATM   31  H2  UNL     1     -13.166   8.568  71.803  1.00  0.00     0.000 HD 
ENDBRANCH   9  28
ENDBRANCH   3   5
ENDBRANCH   2   3
TORSDOF 5
ENDMDL
MODEL       98
REMARK 921   NORMALIZED FREE ENERGY PREDICTED BY IDOCK:   -4.58 KCAL/MOL
REMARK 922        TOTAL FREE ENERGY PREDICTED BY IDOCK:   -7.07 KCAL/MOL
REMARK 923 INTER-LIGAND FREE ENERGY PREDICTED BY IDOCK:   -7.06 KCAL/MOL
REMARK 924 INTRA-LIGAND FREE ENERGY PREDICTED BY IDOCK:   -0.01 KCAL/MOL
REMARK 927      BINDING AFFINITY PREDICTED BY RF-SCORE:    0.00 PKD
ROOT
HETATM    1  C   UNL     1     -12.607  15.648  64.217  1.00  0.00     0.403 C  
HETATM    2  O   UNL     1     -11.717  16.612  63.669  1.00  0.00    -0.752 OA 
ENDROOT
BRANCH   2   3
HETATM    3  N   UNL     1     -11.267  17.452  64.699  1.00  0.00    -0.824 NA 
HETATM    4  H   UNL     1     -11.566  18.417  64.838  1.00  0.00     0.000 HD 
BRANCH   3   5
HETATM    5  C   UNL     1     -10.415  16.822  65.450  1.00  0.00    -0.193 C  
HETATM    6  C   UNL     1     -10.061  15.360  65.360  1.00  0.00    -0.359 C  
HETATM    7  N   UNL     1      -9.398  15.096  66.639  1.00  0.00    -0.249 NA 
HETATM    8  C   UNL     1      -9.130  16.346  67.375  1.00  0.00    -0.199 C  
HETATM    9  C   UNL     1      -9.603  17.523  66.505  1.00  0.00    -0.295 C  
BRANCH   7  10
HETATM   10  C   UNL     1      -9.824  13.983  67.359  1.00  0.00    -0.240 A  
HETATM   11  N   UNL     1      -9.176  12.811  67.151  1.00  0.00    -0.212 NA 
HETATM   12  O   UNL     1     -11.419   7.955  70.745  1.00  0.00    -0.277 OA 
HETATM   13  C   UNL     1      -9.544  11.685  67.810  1.00  0.00    -0.178 A  
HETATM   14  C   UNL     1     -10.594  11.700  68.724  1.00  0.00    -0.241 A  
HETATM   15  N   UNL     1      -8.838  10.470  67.586  1.00  0.00    -0.131 NA 
HETATM   16  C   UNL     1     -10.957  10.459  69.435  1.00  0.00    -0.251 C  
HETATM   17  O   UNL     1      -9.785   6.923  69.588  1.00  0.00    -0.156 OA 
HETATM   18  C   UNL     1     -11.259  12.894  68.983  1.00  0.00    -0.320 A  
HETATM   19  F   UNL     1     -11.499  15.189  68.569  1.00  0.00    -0.262 F  
HETATM   20  C   UNL     1     -10.196   9.222  69.149  1.00  0.00    -0.214 C  
HETATM   21  O   UNL     1     -11.871  10.442  70.258  1.00  0.00    -0.270 OA 
HETATM   22  C   UNL     1     -10.863  14.038  68.299  1.00  0.00    -0.255 A  
HETATM   23  C   UNL     1     -10.434   7.933  69.823  1.00  0.00    -0.233 C  
HETATM   24  C   UNL     1      -9.214   9.316  68.243  1.00  0.00    -0.131 C  
BRANCH  15  25
HETATM   25  C   UNL     1      -7.542  10.536  66.886  1.00  0.00    -0.110 C  
HETATM   26  C   UNL     1      -6.872   9.240  66.485  1.00  0.00    -0.080 C  
HETATM   27  C   UNL     1      -7.324  10.200  65.431  1.00  0.00    -0.144 C  
ENDBRANCH  15  25
ENDBRANCH   7  10
BRANCH   9  28
HETATM   28  C   UNL     1     -10.414  18.561  67.278  1.00  0.00    -0.419 C  
HETATM   29  H1  UNL     1     -10.893  20.578  67.171  1.00  0.00     0.000 HD 
HETATM   30  N   UNL     1     -10.352  19.884  66.655  1.00  0.00    -0.469 NA 
HETATM   31  H2  UNL     1     -10.639  19.845  65.677  1.00  0.00     0.000 HD 
ENDBRANCH   9  28
ENDBRANCH   3   5
ENDBRANCH   2   3
TORSDOF 5
ENDMDL
MODEL       99
REMARK 921   NORMALIZED FREE ENERGY PREDICTED BY IDOCK:   -4.52 KCAL/MOL
REMARK 922        TOTAL FREE ENERGY PREDICTED BY IDOCK:   -7.00 KCAL/MOL
REMARK 923 INTER-LIGAND FREE ENERGY PREDICTED BY IDOCK:   -6.25 KCAL/MOL
REMARK 924 INTRA-LIGAND FREE ENERGY PREDICTED BY IDOCK:   -0.74 KCAL/MOL
REMARK 927      BINDING AFFINITY PREDICTED BY RF-SCORE:    0.00 PKD
ROOT
HETATM    1  C   UNL     1     -14.058   7.357  71.805  1.00  0.00    -0.380 C  
HETATM    2  O   UNL     1     -12.647   7.178  71.802  1.00  0.00    -0.335 OA 
ENDROOT
BRANCH   2   3
HETATM    3  N   UNL     1     -12.074   8.065  72.724  1.00  0.00    -0.615 NA 
HETATM    4  H   UNL     1     -12.493   8.331  73.615  1.00  0.00     0.000 HD 
BRANCH   3   5
HETATM    5  C   UNL     1     -10.933   8.498  72.280  1.00  0.00    -0.355 C  
HETATM    6  C   UNL     1     -10.732   9.528  71.200  1.00  0.00    -0.338 C  
HETATM    7  N   UNL     1      -9.330   9.348  70.820  1.00  0.00    -0.252 NA 
HETATM    8  C   UNL     1      -8.630   8.448  71.756  1.00  0.00    -0.176 C  
HETATM    9  C   UNL     1      -9.621   8.042  72.859  1.00  0.00    -0.348 C  
BRANCH   7  10
HETATM   10  C   UNL     1      -9.047   9.239  69.461  1.00  0.00    -0.160 A  
HETATM   11  N   UNL     1      -9.413  10.265  68.655  1.00  0.00    -0.161 NA 
HETATM   12  O   UNL     1      -7.842   9.370  62.470  1.00  0.00    -0.114 OA 
HETATM   13  C   UNL     1      -9.178  10.221  67.320  1.00  0.00    -0.141 A  
HETATM   14  C   UNL     1      -8.550   9.123  66.739  1.00  0.00    -0.133 A  
HETATM   15  N   UNL     1      -9.558  11.318  66.498  1.00  0.00    -0.187 NA 
HETATM   16  C   UNL     1      -8.297   9.117  65.285  1.00  0.00    -0.146 C  
HETATM   17  O   UNL     1      -8.841  11.387  62.379  1.00  0.00    -0.301 OA 
HETATM   18  C   UNL     1      -8.134   8.067  67.543  1.00  0.00    -0.123 A  
HETATM   19  F   UNL     1      -7.961   7.118  69.679  1.00  0.00    -0.112 F  
HETATM   20  C   UNL     1      -8.728  10.281  64.479  1.00  0.00    -0.205 C  
HETATM   21  O   UNL     1      -7.732   8.168  64.743  1.00  0.00    -0.107 OA 
HETATM   22  C   UNL     1      -8.382   8.134  68.910  1.00  0.00    -0.125 A  
HETATM   23  C   UNL     1      -8.494  10.411  63.029  1.00  0.00    -0.180 C  
HETATM   24  C   UNL     1      -9.334  11.277  65.136  1.00  0.00    -0.189 C  
BRANCH  15  25
HETATM   25  C   UNL     1      -9.908  12.592  67.153  1.00  0.00    -0.210 C  
HETATM   26  C   UNL     1      -8.979  13.772  66.978  1.00  0.00    -0.247 C  
HETATM   27  C   UNL     1     -10.372  13.837  66.436  1.00  0.00    -0.290 C  
ENDBRANCH  15  25
ENDBRANCH   7  10
BRANCH   9  28
HETATM   28  C   UNL     1      -9.603   6.547  73.170  1.00  0.00    -0.151 C  
HETATM   29  H1  UNL     1      -9.964   4.738  72.219  1.00  0.00     0.000 HD 
HETATM   30  N   UNL     1      -9.976   5.736  72.011  1.00  0.00    -0.172 NA 
HETATM   31  H2  UNL     1      -9.388   5.953  71.205  1.00  0.00     0.000 HD 
ENDBRANCH   9  28
ENDBRANCH   3   5
ENDBRANCH   2   3
TORSDOF 5
ENDMDL
MODEL      100
REMARK 921   NORMALIZED FREE ENERGY PREDICTED BY IDOCK:   -4.51 KCAL/MOL
REMARK 922        TOTAL FREE ENERGY PREDICTED BY IDOCK:   -6.98 KCAL/MOL
REMARK 923 INTER-LIGAND FREE ENERGY PREDICTED BY IDOCK:   -6.25 KCAL/MOL
REMARK 924 INTRA-LIGAND FREE ENERGY PREDICTED BY IDOCK:   -0.73 KCAL/MOL
REMARK 927      BINDING AFFINITY PREDICTED BY RF-SCORE:    0.00 PKD
ROOT
HETATM    1  C   UNL     1     -10.511  17.199  67.515  1.00  0.00    -0.348 C  
HETATM    2  O   UNL     1     -11.130  16.172  66.751  1.00  0.00    -0.155 OA 
ENDROOT
BRANCH   2   3
HETATM    3  N   UNL     1     -10.175  15.190  66.451  1.00  0.00    -0.270 NA 
HETATM    4  H   UNL     1      -9.286  15.364  65.982  1.00  0.00     0.000 HD 
BRANCH   3   5
HETATM    5  C   UNL     1     -10.587  14.027  66.857  1.00  0.00    -0.280 C  
HETATM    6  C   UNL     1     -10.571  13.523  68.276  1.00  0.00    -0.250 C  
HETATM    7  N   UNL     1     -10.747  12.078  68.123  1.00  0.00    -0.207 NA 
HETATM    8  C   UNL     1     -11.097  11.723  66.734  1.00  0.00    -0.306 C  
HETATM    9  C   UNL     1     -11.208  13.024  65.922  1.00  0.00    -0.315 C  
BRANCH   7  10
HETATM   10  C   UNL     1      -9.866  11.252  68.814  1.00  0.00    -0.184 A  
HETATM   11  N   UNL     1     -10.393  10.324  69.650  1.00  0.00    -0.241 NA 
HETATM   12  O   UNL     1      -5.960   6.674  72.574  1.00  0.00    -0.041 OA 
HETATM   13  C   UNL     1      -9.593   9.493  70.363  1.00  0.00    -0.269 A  
HETATM   14  C   UNL     1      -8.207   9.564  70.253  1.00  0.00    -0.209 A  
HETATM   15  N   UNL     1     -10.172   8.518  71.222  1.00  0.00    -0.207 NA 
HETATM   16  C   UNL     1      -7.369   8.633  71.032  1.00  0.00    -0.083 C  
HETATM   17  O   UNL     1      -7.862   5.823  73.432  1.00  0.00    -0.108 OA 
HETATM   18  C   UNL     1      -7.635  10.484  69.380  1.00  0.00    -0.145 A  
HETATM   19  F   UNL     1      -7.913  12.196  67.804  1.00  0.00    -0.117 F  
HETATM   20  C   UNL     1      -8.027   7.649  71.920  1.00  0.00    -0.105 C  
HETATM   21  O   UNL     1      -6.141   8.660  70.948  1.00  0.00    -0.033 OA 
HETATM   22  C   UNL     1      -8.474  11.324  68.656  1.00  0.00    -0.143 A  
HETATM   23  C   UNL     1      -7.302   6.641  72.715  1.00  0.00    -0.084 C  
HETATM   24  C   UNL     1      -9.365   7.676  71.960  1.00  0.00    -0.142 C  
BRANCH  15  25
HETATM   25  C   UNL     1     -11.611   8.230  71.079  1.00  0.00    -0.275 C  
HETATM   26  C   UNL     1     -12.025   6.912  70.462  1.00  0.00    -0.358 C  
HETATM   27  C   UNL     1     -12.374   7.207  71.886  1.00  0.00    -0.352 C  
ENDBRANCH  15  25
ENDBRANCH   7  10
BRANCH   9  28
HETATM   28  C   UNL     1     -10.498  12.960  64.572  1.00  0.00    -0.377 C  
HETATM   29  H1  UNL     1     -10.938  13.161  62.553  1.00  0.00     0.000 HD 
HETATM   30  N   UNL     1     -11.412  13.204  63.455  1.00  0.00    -0.647 NA 
HETATM   31  H2  UNL     1     -11.907  14.089  63.570  1.00  0.00     0.000 HD 
ENDBRANCH   9  28
ENDBRANCH   3   5
ENDBRANCH   2   3
TORSDOF 5
ENDMDL
MODEL      101
REMARK 921   NORMALIZED FREE ENERGY PREDICTED BY IDOCK:   -4.48 KCAL/MOL
REMARK 922        TOTAL FREE ENERGY PREDICTED BY IDOCK:   -6.94 KCAL/MOL
REMARK 923 INTER-LIGAND FREE ENERGY PREDICTED BY IDOCK:   -6.25 KCAL/MOL
REMARK 924 INTRA-LIGAND FREE ENERGY PREDICTED BY IDOCK:   -0.69 KCAL/MOL
REMARK 927      BINDING AFFINITY PREDICTED BY RF-SCORE:    0.00 PKD
ROOT
HETATM    1  C   UNL     1     -10.206  20.165  68.680  1.00  0.00    -0.235 C  
HETATM    2  O   UNL     1     -10.213  18.815  68.235  1.00  0.00    -0.364 OA 
ENDROOT
BRANCH   2   3
HETATM    3  N   UNL     1     -10.132  18.797  66.835  1.00  0.00    -0.336 NA 
HETATM    4  H   UNL     1     -10.326  19.594  66.229  1.00  0.00     0.000 HD 
BRANCH   3   5
HETATM    5  C   UNL     1      -9.772  17.619  66.422  1.00  0.00    -0.294 C  
HETATM    6  C   UNL     1     -10.693  16.476  66.085  1.00  0.00    -0.155 C  
HETATM    7  N   UNL     1      -9.800  15.316  66.075  1.00  0.00    -0.304 NA 
HETATM    8  C   UNL     1      -8.385  15.726  66.152  1.00  0.00     0.042 C  
HETATM    9  C   UNL     1      -8.333  17.263  66.166  1.00  0.00    -0.238 C  
BRANCH   7  10
HETATM   10  C   UNL     1     -10.203  14.195  66.794  1.00  0.00    -0.262 A  
HETATM   11  N   UNL     1      -9.241  13.440  67.380  1.00  0.00    -0.204 NA 
HETATM   12  O   UNL     1     -11.558   8.406  70.668  1.00  0.00    -0.270 OA 
HETATM   13  C   UNL     1      -9.561  12.329  68.087  1.00  0.00    -0.213 A  
HETATM   14  C   UNL     1     -10.887  11.933  68.238  1.00  0.00    -0.261 A  
HETATM   15  N   UNL     1      -8.533  11.562  68.705  1.00  0.00    -0.105 NA 
HETATM   16  C   UNL     1     -11.198  10.726  69.028  1.00  0.00    -0.262 C  
HETATM   17  O   UNL     1      -9.342   8.154  70.988  1.00  0.00    -0.146 OA 
HETATM   18  C   UNL     1     -11.900  12.702  67.676  1.00  0.00    -0.390 A  
HETATM   19  F   UNL     1     -12.535  14.585  66.434  1.00  0.00    -0.420 F  
HETATM   20  C   UNL     1     -10.086   9.961  69.635  1.00  0.00    -0.254 C  
HETATM   21  O   UNL     1     -12.360  10.356  69.192  1.00  0.00    -0.153 OA 
HETATM   22  C   UNL     1     -11.550  13.840  66.958  1.00  0.00    -0.365 A  
HETATM   23  C   UNL     1     -10.271   8.766  70.479  1.00  0.00    -0.202 C  
HETATM   24  C   UNL     1      -8.849  10.423  69.417  1.00  0.00    -0.123 C  
BRANCH  15  25
HETATM   25  C   UNL     1      -7.191  12.162  68.823  1.00  0.00    -0.103 C  
HETATM   26  C   UNL     1      -6.259  11.640  69.893  1.00  0.00    -0.144 C  
HETATM   27  C   UNL     1      -5.899  11.476  68.451  1.00  0.00    -0.045 C  
ENDBRANCH  15  25
ENDBRANCH   7  10
BRANCH   9  28
HETATM   28  C   UNL     1      -7.389  17.830  67.224  1.00  0.00    -0.187 C  
HETATM   29  H1  UNL     1      -7.093  17.739  69.276  1.00  0.00     0.000 HD 
HETATM   30  N   UNL     1      -7.723  17.361  68.569  1.00  0.00    -0.257 NA 
HETATM   31  H2  UNL     1      -7.752  16.342  68.608  1.00  0.00     0.000 HD 
ENDBRANCH   9  28
ENDBRANCH   3   5
ENDBRANCH   2   3
TORSDOF 5
ENDMDL
MODEL      102
REMARK 921   NORMALIZED FREE ENERGY PREDICTED BY IDOCK:   -4.37 KCAL/MOL
REMARK 922        TOTAL FREE ENERGY PREDICTED BY IDOCK:   -6.81 KCAL/MOL
REMARK 923 INTER-LIGAND FREE ENERGY PREDICTED BY IDOCK:   -6.34 KCAL/MOL
REMARK 924 INTRA-LIGAND FREE ENERGY PREDICTED BY IDOCK:   -0.47 KCAL/MOL
REMARK 927      BINDING AFFINITY PREDICTED BY RF-SCORE:    0.00 PKD
ROOT
HETATM    1  C   UNL     1      -8.173   7.992  69.205  1.00  0.00    -0.127 C  
HETATM    2  O   UNL     1      -9.214   8.660  69.907  1.00  0.00    -0.150 OA 
ENDROOT
BRANCH   2   3
HETATM    3  N   UNL     1     -10.396   8.573  69.156  1.00  0.00    -0.216 NA 
HETATM    4  H   UNL     1     -10.625   7.814  68.514  1.00  0.00     0.000 HD 
BRANCH   3   5
HETATM    5  C   UNL     1     -11.156   9.598  69.398  1.00  0.00    -0.139 C  
HETATM    6  C   UNL     1     -11.423  10.747  68.461  1.00  0.00    -0.292 C  
HETATM    7  N   UNL     1     -11.983  11.775  69.341  1.00  0.00    -0.310 NA 
HETATM    8  C   UNL     1     -12.279  11.233  70.680  1.00  0.00    -0.393 C  
HETATM    9  C   UNL     1     -11.939   9.733  70.676  1.00  0.00    -0.340 C  
BRANCH   7  10
HETATM   10  C   UNL     1     -11.442  13.054  69.250  1.00  0.00    -0.289 A  
HETATM   11  N   UNL     1     -10.209  13.181  68.702  1.00  0.00    -0.211 NA 
HETATM   12  O   UNL     1      -8.136  19.276  68.408  1.00  0.00    -0.317 OA 
HETATM   13  C   UNL     1      -9.617  14.396  68.591  1.00  0.00    -0.208 A  
HETATM   14  C   UNL     1     -10.261  15.550  69.032  1.00  0.00    -0.229 A  
HETATM   15  N   UNL     1      -8.329  14.505  67.998  1.00  0.00    -0.144 NA 
HETATM   16  C   UNL     1      -9.593  16.856  68.881  1.00  0.00    -0.251 C  
HETATM   17  O   UNL     1      -6.390  18.176  67.504  1.00  0.00    -0.172 OA 
HETATM   18  C   UNL     1     -11.540  15.457  69.571  1.00  0.00    -0.346 A  
HETATM   19  F   UNL     1     -13.371  14.125  70.177  1.00  0.00    -0.158 F  
HETATM   20  C   UNL     1      -8.246  16.905  68.270  1.00  0.00    -0.222 C  
HETATM   21  O   UNL     1     -10.139  17.896  69.249  1.00  0.00    -0.281 OA 
HETATM   22  C   UNL     1     -12.130  14.202  69.672  1.00  0.00    -0.349 A  
HETATM   23  C   UNL     1      -7.495  18.151  68.026  1.00  0.00    -0.240 C  
HETATM   24  C   UNL     1      -7.714  15.736  67.892  1.00  0.00    -0.133 C  
BRANCH  15  25
HETATM   25  C   UNL     1      -7.809  13.350  67.243  1.00  0.00    -0.095 C  
HETATM   26  C   UNL     1      -6.357  12.966  67.422  1.00  0.00    -0.119 C  
HETATM   27  C   UNL     1      -7.433  12.018  67.848  1.00  0.00    -0.114 C  
ENDBRANCH  15  25
ENDBRANCH   7  10
BRANCH   9  28
HETATM   28  C   UNL     1     -11.146   9.287  71.902  1.00  0.00    -0.238 C  
HETATM   29  H1  UNL     1     -10.547   7.531  72.832  1.00  0.00     0.000 HD 
HETATM   30  N   UNL     1     -11.076   7.829  72.013  1.00  0.00    -0.255 NA 
HETATM   31  H2  UNL     1     -10.704   7.411  71.160  1.00  0.00     0.000 HD 
ENDBRANCH   9  28
ENDBRANCH   3   5
ENDBRANCH   2   3
TORSDOF 5
ENDMDL
MODEL      103
REMARK 921   NORMALIZED FREE ENERGY PREDICTED BY IDOCK:   -4.26 KCAL/MOL
REMARK 922        TOTAL FREE ENERGY PREDICTED BY IDOCK:   -6.66 KCAL/MOL
REMARK 923 INTER-LIGAND FREE ENERGY PREDICTED BY IDOCK:   -5.61 KCAL/MOL
REMARK 924 INTRA-LIGAND FREE ENERGY PREDICTED BY IDOCK:   -1.06 KCAL/MOL
REMARK 927      BINDING AFFINITY PREDICTED BY RF-SCORE:    0.00 PKD
ROOT
HETATM    1  C   UNL     1      -7.923   5.670  68.178  1.00  0.00    -0.097 C  
HETATM    2  O   UNL     1      -9.318   5.903  68.031  1.00  0.00    -0.112 OA 
ENDROOT
BRANCH   2   3
HETATM    3  N   UNL     1      -9.912   5.918  69.301  1.00  0.00    -0.162 NA 
HETATM    4  H   UNL     1     -10.073   5.094  69.880  1.00  0.00     0.000 HD 
BRANCH   3   5
HETATM    5  C   UNL     1     -10.227   7.134  69.633  1.00  0.00    -0.208 C  
HETATM    6  C   UNL     1     -10.553   8.259  68.685  1.00  0.00    -0.108 C  
HETATM    7  N   UNL     1     -10.434   9.452  69.526  1.00  0.00    -0.210 NA 
HETATM    8  C   UNL     1     -10.290   9.095  70.950  1.00  0.00    -0.280 C  
HETATM    9  C   UNL     1     -10.367   7.564  71.069  1.00  0.00    -0.204 C  
BRANCH   7  10
HETATM   10  C   UNL     1      -9.674  10.507  69.029  1.00  0.00    -0.210 A  
HETATM   11  N   UNL     1     -10.303  11.688  68.807  1.00  0.00    -0.214 NA 
HETATM   12  O   UNL     1      -6.397  16.309  66.589  1.00  0.00    -0.281 OA 
HETATM   13  C   UNL     1      -9.627  12.755  68.315  1.00  0.00    -0.211 A  
HETATM   14  C   UNL     1      -8.267  12.672  68.027  1.00  0.00    -0.167 A  
HETATM   15  N   UNL     1     -10.306  13.988  68.105  1.00  0.00    -0.236 NA 
HETATM   16  C   UNL     1      -7.561  13.859  67.507  1.00  0.00    -0.176 C  
HETATM   17  O   UNL     1      -8.365  17.401  66.669  1.00  0.00    -0.232 OA 
HETATM   18  C   UNL     1      -7.587  11.484  68.273  1.00  0.00    -0.115 A  
HETATM   19  F   UNL     1      -7.628   9.267  69.031  1.00  0.00    -0.070 F  
HETATM   20  C   UNL     1      -8.324  15.110  67.296  1.00  0.00    -0.225 C  
HETATM   21  O   UNL     1      -6.358  13.823  67.255  1.00  0.00    -0.295 OA 
HETATM   22  C   UNL     1      -8.298  10.403  68.781  1.00  0.00    -0.134 A  
HETATM   23  C   UNL     1      -7.725  16.371  66.823  1.00  0.00    -0.263 C  
HETATM   24  C   UNL     1      -9.629  15.076  67.593  1.00  0.00    -0.203 C  
BRANCH  15  25
HETATM   25  C   UNL     1     -11.637  14.163  68.716  1.00  0.00    -0.327 C  
HETATM   26  C   UNL     1     -11.726  14.323  70.217  1.00  0.00    -0.343 C  
HETATM   27  C   UNL     1     -12.149  15.446  69.324  1.00  0.00    -0.283 C  
ENDBRANCH  15  25
ENDBRANCH   7  10
BRANCH   9  28
HETATM   28  C   UNL     1      -9.287   6.969  71.969  1.00  0.00    -0.139 C  
HETATM   29  H1  UNL     1      -7.219   6.800  72.042  1.00  0.00     0.000 HD 
HETATM   30  N   UNL     1      -7.941   7.197  71.441  1.00  0.00    -0.101 NA 
HETATM   31  H2  UNL     1      -7.775   8.189  71.270  1.00  0.00     0.000 HD 
ENDBRANCH   9  28
ENDBRANCH   3   5
ENDBRANCH   2   3
TORSDOF 5
ENDMDL
MODEL      104
REMARK 921   NORMALIZED FREE ENERGY PREDICTED BY IDOCK:   -4.19 KCAL/MOL
REMARK 922        TOTAL FREE ENERGY PREDICTED BY IDOCK:   -6.57 KCAL/MOL
REMARK 923 INTER-LIGAND FREE ENERGY PREDICTED BY IDOCK:   -6.00 KCAL/MOL
REMARK 924 INTRA-LIGAND FREE ENERGY PREDICTED BY IDOCK:   -0.57 KCAL/MOL
REMARK 927      BINDING AFFINITY PREDICTED BY RF-SCORE:    0.00 PKD
ROOT
HETATM    1  C   UNL     1      -5.412  18.771  67.310  1.00  0.00    -0.142 C  
HETATM    2  O   UNL     1      -6.582  17.979  67.149  1.00  0.00    -0.174 OA 
ENDROOT
BRANCH   2   3
HETATM    3  N   UNL     1      -7.708  18.814  67.212  1.00  0.00    -0.230 NA 
HETATM    4  H   UNL     1      -7.741  19.776  66.877  1.00  0.00     0.000 HD 
BRANCH   3   5
HETATM    5  C   UNL     1      -8.702  18.183  67.761  1.00  0.00    -0.255 C  
HETATM    6  C   UNL     1      -8.601  17.006  68.697  1.00  0.00    -0.265 C  
HETATM    7  N   UNL     1      -9.956  16.452  68.687  1.00  0.00    -0.225 NA 
HETATM    8  C   UNL     1     -10.901  17.352  67.997  1.00  0.00    -0.281 C  
HETATM    9  C   UNL     1     -10.131  18.610  67.563  1.00  0.00    -0.397 C  
BRANCH   7  10
HETATM   10  C   UNL     1     -10.082  15.081  68.484  1.00  0.00    -0.225 A  
HETATM   11  N   UNL     1      -8.969  14.319  68.611  1.00  0.00    -0.181 NA 
HETATM   12  O   UNL     1     -10.026   8.032  67.668  1.00  0.00    -0.157 OA 
HETATM   13  C   UNL     1      -9.016  12.978  68.418  1.00  0.00    -0.126 A  
HETATM   14  C   UNL     1     -10.210  12.343  68.087  1.00  0.00    -0.225 A  
HETATM   15  N   UNL     1      -7.836  12.197  68.573  1.00  0.00    -0.136 NA 
HETATM   16  C   UNL     1     -10.227  10.879  67.900  1.00  0.00    -0.179 C  
HETATM   17  O   UNL     1      -7.814   8.044  68.092  1.00  0.00    -0.121 OA 
HETATM   18  C   UNL     1     -11.377  13.092  67.980  1.00  0.00    -0.327 A  
HETATM   19  F   UNL     1     -12.441  15.177  68.097  1.00  0.00    -0.109 F  
HETATM   20  C   UNL     1      -8.965  10.123  68.060  1.00  0.00    -0.125 C  
HETATM   21  O   UNL     1     -11.268  10.286  67.620  1.00  0.00    -0.307 OA 
HETATM   22  C   UNL     1     -11.307  14.465  68.186  1.00  0.00    -0.294 A  
HETATM   23  C   UNL     1      -8.861   8.657  67.940  1.00  0.00    -0.137 C  
HETATM   24  C   UNL     1      -7.872  10.833  68.366  1.00  0.00    -0.120 C  
BRANCH  15  25
HETATM   25  C   UNL     1      -6.674  12.816  69.238  1.00  0.00    -0.058 C  
HETATM   26  C   UNL     1      -5.374  12.044  69.283  1.00  0.00    -0.056 C  
HETATM   27  C   UNL     1      -5.445  13.335  68.531  1.00  0.00    -0.078 C  
ENDBRANCH  15  25
ENDBRANCH   7  10
BRANCH   9  28
HETATM   28  C   UNL     1     -10.424  19.035  66.126  1.00  0.00    -0.467 C  
HETATM   29  H1  UNL     1     -10.158  20.679  64.887  1.00  0.00     0.000 HD 
HETATM   30  N   UNL     1      -9.962  20.395  65.847  1.00  0.00    -0.602 NA 
HETATM   31  H2  UNL     1      -8.972  20.501  66.068  1.00  0.00     0.000 HD 
ENDBRANCH   9  28
ENDBRANCH   3   5
ENDBRANCH   2   3
TORSDOF 5
ENDMDL
MODEL      105
REMARK 921   NORMALIZED FREE ENERGY PREDICTED BY IDOCK:   -4.14 KCAL/MOL
REMARK 922        TOTAL FREE ENERGY PREDICTED BY IDOCK:   -6.51 KCAL/MOL
REMARK 923 INTER-LIGAND FREE ENERGY PREDICTED BY IDOCK:   -5.82 KCAL/MOL
REMARK 924 INTRA-LIGAND FREE ENERGY PREDICTED BY IDOCK:   -0.69 KCAL/MOL
REMARK 927      BINDING AFFINITY PREDICTED BY RF-SCORE:    0.00 PKD
ROOT
HETATM    1  C   UNL     1      -8.940   4.346  65.029  1.00  0.00    -0.145 C  
HETATM    2  O   UNL     1      -8.906   5.177  66.183  1.00  0.00    -0.125 OA 
ENDROOT
BRANCH   2   3
HETATM    3  N   UNL     1     -10.060   4.944  66.944  1.00  0.00    -0.216 NA 
HETATM    4  H   UNL     1     -10.539   4.047  67.021  1.00  0.00     0.000 HD 
BRANCH   3   5
HETATM    5  C   UNL     1     -10.433   6.038  67.538  1.00  0.00    -0.240 C  
HETATM    6  C   UNL     1     -10.651   7.376  66.881  1.00  0.00    -0.305 C  
HETATM    7  N   UNL     1     -10.656   8.308  68.011  1.00  0.00    -0.172 NA 
HETATM    8  C   UNL     1     -10.690   7.591  69.299  1.00  0.00    -0.176 C  
HETATM    9  C   UNL     1     -10.760   6.083  69.006  1.00  0.00    -0.393 C  
BRANCH   7  10
HETATM   10  C   UNL     1      -9.855   9.441  67.905  1.00  0.00    -0.165 A  
HETATM   11  N   UNL     1     -10.431  10.583  67.455  1.00  0.00    -0.222 NA 
HETATM   12  O   UNL     1      -6.380  15.589  67.204  1.00  0.00    -0.311 OA 
HETATM   13  C   UNL     1      -9.708  11.721  67.318  1.00  0.00    -0.178 A  
HETATM   14  C   UNL     1      -8.353  11.753  67.640  1.00  0.00    -0.145 A  
HETATM   15  N   UNL     1     -10.339  12.910  66.858  1.00  0.00    -0.242 NA 
HETATM   16  C   UNL     1      -7.602  13.015  67.493  1.00  0.00    -0.165 C  
HETATM   17  O   UNL     1      -8.284  16.528  66.450  1.00  0.00    -0.275 OA 
HETATM   18  C   UNL     1      -7.740  10.607  68.135  1.00  0.00    -0.101 A  
HETATM   19  F   UNL     1      -7.903   8.356  68.765  1.00  0.00    -0.104 F  
HETATM   20  C   UNL     1      -8.310  14.216  66.996  1.00  0.00    -0.142 C  
HETATM   21  O   UNL     1      -6.408  13.081  67.782  1.00  0.00    -0.117 OA 
HETATM   22  C   UNL     1      -8.501   9.452  68.271  1.00  0.00    -0.120 A  
HETATM   23  C   UNL     1      -7.681  15.541  66.846  1.00  0.00    -0.165 C  
HETATM   24  C   UNL     1      -9.608  14.071  66.703  1.00  0.00    -0.289 C  
BRANCH  15  25
HETATM   25  C   UNL     1     -11.813  12.955  66.841  1.00  0.00    -0.379 C  
HETATM   26  C   UNL     1     -12.496  14.298  66.980  1.00  0.00    -0.028 C  
HETATM   27  C   UNL     1     -12.651  13.513  65.716  1.00  0.00    -0.490 C  
ENDBRANCH  15  25
ENDBRANCH   7  10
BRANCH   9  28
HETATM   28  C   UNL     1      -9.794   5.255  69.850  1.00  0.00    -0.211 C  
HETATM   29  H1  UNL     1      -9.485   4.743  71.837  1.00  0.00     0.000 HD 
HETATM   30  N   UNL     1     -10.130   5.296  71.274  1.00  0.00    -0.204 NA 
HETATM   31  H2  UNL     1     -11.097   5.013  71.433  1.00  0.00     0.000 HD 
ENDBRANCH   9  28
ENDBRANCH   3   5
ENDBRANCH   2   3
TORSDOF 5
ENDMDL
MODEL      106
REMARK 921   NORMALIZED FREE ENERGY PREDICTED BY IDOCK:   -4.12 KCAL/MOL
REMARK 922        TOTAL FREE ENERGY PREDICTED BY IDOCK:   -6.48 KCAL/MOL
REMARK 923 INTER-LIGAND FREE ENERGY PREDICTED BY IDOCK:   -5.47 KCAL/MOL
REMARK 924 INTRA-LIGAND FREE ENERGY PREDICTED BY IDOCK:   -1.01 KCAL/MOL
REMARK 927      BINDING AFFINITY PREDICTED BY RF-SCORE:    0.00 PKD
ROOT
HETATM    1  C   UNL     1      -6.490   8.251  73.778  1.00  0.00    -0.121 C  
HETATM    2  O   UNL     1      -7.867   8.411  74.094  1.00  0.00    -0.278 OA 
ENDROOT
BRANCH   2   3
HETATM    3  N   UNL     1      -8.588   8.597  72.906  1.00  0.00    -0.400 NA 
HETATM    4  H   UNL     1      -8.576   9.447  72.342  1.00  0.00     0.000 HD 
BRANCH   3   5
HETATM    5  C   UNL     1      -9.275   7.530  72.627  1.00  0.00    -0.152 C  
HETATM    6  C   UNL     1      -8.713   6.183  72.255  1.00  0.00    -0.137 C  
HETATM    7  N   UNL     1      -9.861   5.490  71.669  1.00  0.00    -0.168 NA 
HETATM    8  C   UNL     1     -11.110   6.245  71.880  1.00  0.00    -0.268 C  
HETATM    9  C   UNL     1     -10.777   7.500  72.704  1.00  0.00    -0.354 C  
BRANCH   7  10
HETATM   10  C   UNL     1      -9.667   4.862  70.442  1.00  0.00    -0.214 A  
HETATM   11  N   UNL     1      -9.583   5.645  69.338  1.00  0.00    -0.137 NA 
HETATM   12  O   UNL     1      -8.606   2.333  63.897  1.00  0.00    -0.084 OA 
HETATM   13  C   UNL     1      -9.405   5.101  68.109  1.00  0.00    -0.122 A  
HETATM   14  C   UNL     1      -9.298   3.722  67.945  1.00  0.00    -0.236 A  
HETATM   15  N   UNL     1      -9.305   5.945  66.968  1.00  0.00    -0.118 NA 
HETATM   16  C   UNL     1      -9.089   3.166  66.594  1.00  0.00    -0.162 C  
HETATM   17  O   UNL     1      -8.677   4.445  63.117  1.00  0.00    -0.109 OA 
HETATM   18  C   UNL     1      -9.348   2.893  69.061  1.00  0.00    -0.215 A  
HETATM   19  F   UNL     1      -9.558   2.666  71.384  1.00  0.00    -0.181 F  
HETATM   20  C   UNL     1      -9.007   4.094  65.443  1.00  0.00    -0.132 C  
HETATM   21  O   UNL     1      -8.977   1.954  66.416  1.00  0.00    -0.124 OA 
HETATM   22  C   UNL     1      -9.528   3.473  70.312  1.00  0.00    -0.183 A  
HETATM   23  C   UNL     1      -8.759   3.665  64.054  1.00  0.00    -0.095 C  
HETATM   24  C   UNL     1      -9.136   5.399  65.712  1.00  0.00    -0.154 C  
BRANCH  15  25
HETATM   25  C   UNL     1      -9.085   7.387  67.186  1.00  0.00    -0.130 C  
HETATM   26  C   UNL     1      -8.974   8.289  65.977  1.00  0.00    -0.224 C  
HETATM   27  C   UNL     1     -10.110   8.467  66.935  1.00  0.00    -0.364 C  
ENDBRANCH  15  25
ENDBRANCH   7  10
BRANCH   9  28
HETATM   28  C   UNL     1     -11.420   8.773  72.158  1.00  0.00    -0.351 C  
HETATM   29  H1  UNL     1     -11.332   9.981  70.473  1.00  0.00     0.000 HD 
HETATM   30  N   UNL     1     -10.903   9.130  70.837  1.00  0.00    -0.253 NA 
HETATM   31  H2  UNL     1     -11.002   8.356  70.180  1.00  0.00     0.000 HD 
ENDBRANCH   9  28
ENDBRANCH   3   5
ENDBRANCH   2   3
TORSDOF 5
ENDMDL
MODEL      107
REMARK 921   NORMALIZED FREE ENERGY PREDICTED BY IDOCK:   -4.12 KCAL/MOL
REMARK 922        TOTAL FREE ENERGY PREDICTED BY IDOCK:   -6.47 KCAL/MOL
REMARK 923 INTER-LIGAND FREE ENERGY PREDICTED BY IDOCK:   -5.83 KCAL/MOL
REMARK 924 INTRA-LIGAND FREE ENERGY PREDICTED BY IDOCK:   -0.64 KCAL/MOL
REMARK 927      BINDING AFFINITY PREDICTED BY RF-SCORE:    0.00 PKD
ROOT
HETATM    1  C   UNL     1     -12.367  14.529  64.208  1.00  0.00    -0.369 C  
HETATM    2  O   UNL     1     -12.617  13.505  65.163  1.00  0.00    -0.514 OA 
ENDROOT
BRANCH   2   3
HETATM    3  N   UNL     1     -12.521  14.053  66.451  1.00  0.00    -0.486 NA 
HETATM    4  H   UNL     1     -13.315  14.322  67.032  1.00  0.00     0.000 HD 
BRANCH   3   5
HETATM    5  C   UNL     1     -11.274  14.166  66.797  1.00  0.00    -0.323 C  
HETATM    6  C   UNL     1     -10.169  13.195  66.472  1.00  0.00    -0.277 C  
HETATM    7  N   UNL     1      -9.106  13.571  67.406  1.00  0.00    -0.209 NA 
HETATM    8  C   UNL     1      -9.418  14.838  68.094  1.00  0.00    -0.208 C  
HETATM    9  C   UNL     1     -10.755  15.363  67.546  1.00  0.00    -0.295 C  
BRANCH   7  10
HETATM   10  C   UNL     1      -8.512  12.548  68.140  1.00  0.00    -0.180 A  
HETATM   11  N   UNL     1      -9.149  11.353  68.188  1.00  0.00    -0.167 NA 
HETATM   12  O   UNL     1      -6.009   6.895  71.622  1.00  0.00    -0.037 OA 
HETATM   13  C   UNL     1      -8.633  10.316  68.893  1.00  0.00    -0.150 A  
HETATM   14  C   UNL     1      -7.431  10.446  69.583  1.00  0.00    -0.160 A  
HETATM   15  N   UNL     1      -9.314   9.066  68.915  1.00  0.00    -0.143 NA 
HETATM   16  C   UNL     1      -6.892   9.291  70.326  1.00  0.00    -0.071 C  
HETATM   17  O   UNL     1      -7.830   5.741  70.968  1.00  0.00    -0.101 OA 
HETATM   18  C   UNL     1      -6.736  11.650  69.527  1.00  0.00    -0.089 A  
HETATM   19  F   UNL     1      -6.596  13.851  68.735  1.00  0.00    -0.079 F  
HETATM   20  C   UNL     1      -7.652   8.021  70.324  1.00  0.00    -0.081 C  
HETATM   21  O   UNL     1      -5.826   9.369  70.935  1.00  0.00    -0.047 OA 
HETATM   22  C   UNL     1      -7.282  12.699  68.796  1.00  0.00    -0.083 A  
HETATM   23  C   UNL     1      -7.198   6.787  70.992  1.00  0.00    -0.077 C  
HETATM   24  C   UNL     1      -8.802   8.009  69.639  1.00  0.00    -0.141 C  
BRANCH  15  25
HETATM   25  C   UNL     1     -10.386   8.840  67.929  1.00  0.00    -0.224 C  
HETATM   26  C   UNL     1      -9.998   8.528  66.500  1.00  0.00    -0.350 C  
HETATM   27  C   UNL     1     -10.729   7.505  67.312  1.00  0.00    -0.365 C  
ENDBRANCH  15  25
ENDBRANCH   7  10
BRANCH   9  28
HETATM   28  C   UNL     1     -11.714  15.837  68.636  1.00  0.00    -0.344 C  
HETATM   29  H1  UNL     1     -12.027  15.585  70.672  1.00  0.00     0.000 HD 
HETATM   30  N   UNL     1     -11.387  15.269  69.944  1.00  0.00    -0.267 NA 
HETATM   31  H2  UNL     1     -10.417  15.459  70.198  1.00  0.00     0.000 HD 
ENDBRANCH   9  28
ENDBRANCH   3   5
ENDBRANCH   2   3
TORSDOF 5
ENDMDL
MODEL      108
REMARK 921   NORMALIZED FREE ENERGY PREDICTED BY IDOCK:   -4.10 KCAL/MOL
REMARK 922        TOTAL FREE ENERGY PREDICTED BY IDOCK:   -6.45 KCAL/MOL
REMARK 923 INTER-LIGAND FREE ENERGY PREDICTED BY IDOCK:   -5.41 KCAL/MOL
REMARK 924 INTRA-LIGAND FREE ENERGY PREDICTED BY IDOCK:   -1.04 KCAL/MOL
REMARK 927      BINDING AFFINITY PREDICTED BY RF-SCORE:    0.00 PKD
ROOT
HETATM    1  C   UNL     1      -6.014  14.173  67.673  1.00  0.00    -0.027 C  
HETATM    2  O   UNL     1      -6.746  12.956  67.611  1.00  0.00    -0.123 OA 
ENDROOT
BRANCH   2   3
HETATM    3  N   UNL     1      -7.719  13.062  66.607  1.00  0.00    -0.164 NA 
HETATM    4  H   UNL     1      -7.600  13.567  65.729  1.00  0.00     0.000 HD 
BRANCH   3   5
HETATM    5  C   UNL     1      -8.795  12.422  66.956  1.00  0.00    -0.210 C  
HETATM    6  C   UNL     1      -9.109  11.897  68.332  1.00  0.00    -0.167 C  
HETATM    7  N   UNL     1     -10.196  10.946  68.089  1.00  0.00    -0.170 NA 
HETATM    8  C   UNL     1     -10.699  11.047  66.706  1.00  0.00    -0.266 C  
HETATM    9  C   UNL     1      -9.927  12.172  65.997  1.00  0.00    -0.257 C  
BRANCH   7  10
HETATM   10  C   UNL     1     -10.076   9.682  68.659  1.00  0.00    -0.179 A  
HETATM   11  N   UNL     1     -10.899   9.375  69.691  1.00  0.00    -0.238 NA 
HETATM   12  O   UNL     1     -10.056   3.404  71.966  1.00  0.00    -0.164 OA 
HETATM   13  C   UNL     1     -10.830   8.165  70.301  1.00  0.00    -0.244 A  
HETATM   14  C   UNL     1      -9.917   7.202  69.881  1.00  0.00    -0.184 A  
HETATM   15  N   UNL     1     -11.715   7.861  71.373  1.00  0.00    -0.274 NA 
HETATM   16  C   UNL     1      -9.881   5.891  70.558  1.00  0.00    -0.183 C  
HETATM   17  O   UNL     1     -11.697   4.158  73.313  1.00  0.00    -0.153 OA 
HETATM   18  C   UNL     1      -9.080   7.475  68.804  1.00  0.00    -0.135 A  
HETATM   19  F   UNL     1      -8.370   8.968  67.142  1.00  0.00    -0.107 F  
HETATM   20  C   UNL     1     -10.817   5.638  71.676  1.00  0.00    -0.301 C  
HETATM   21  O   UNL     1      -9.095   5.014  70.202  1.00  0.00    -0.113 OA 
HETATM   22  C   UNL     1      -9.170   8.720  68.191  1.00  0.00    -0.140 A  
HETATM   23  C   UNL     1     -10.907   4.357  72.402  1.00  0.00     0.025 C  
HETATM   24  C   UNL     1     -11.644   6.637  72.007  1.00  0.00    -0.301 C  
BRANCH  15  25
HETATM   25  C   UNL     1     -12.880   8.739  71.585  1.00  0.00    -0.348 C  
HETATM   26  C   UNL     1     -14.221   8.101  71.876  1.00  0.00    -0.530 C  
HETATM   27  C   UNL     1     -13.568   8.962  72.911  1.00  0.00    -0.102 C  
ENDBRANCH  15  25
ENDBRANCH   7  10
BRANCH   9  28
HETATM   28  C   UNL     1      -9.442  11.789  64.601  1.00  0.00     0.012 C  
HETATM   29  H1  UNL     1      -8.057  10.526  63.709  1.00  0.00     0.000 HD 
HETATM   30  N   UNL     1      -8.381  10.781  64.641  1.00  0.00    -0.363 NA 
HETATM   31  H2  UNL     1      -8.674   9.959  65.169  1.00  0.00     0.000 HD 
ENDBRANCH   9  28
ENDBRANCH   3   5
ENDBRANCH   2   3
TORSDOF 5
ENDMDL
MODEL      109
REMARK 921   NORMALIZED FREE ENERGY PREDICTED BY IDOCK:   -4.02 KCAL/MOL
REMARK 922        TOTAL FREE ENERGY PREDICTED BY IDOCK:   -6.35 KCAL/MOL
REMARK 923 INTER-LIGAND FREE ENERGY PREDICTED BY IDOCK:   -5.60 KCAL/MOL
REMARK 924 INTRA-LIGAND FREE ENERGY PREDICTED BY IDOCK:   -0.76 KCAL/MOL
REMARK 927      BINDING AFFINITY PREDICTED BY RF-SCORE:    0.00 PKD
ROOT
HETATM    1  C   UNL     1      -9.664   6.627  71.062  1.00  0.00    -0.175 C  
HETATM    2  O   UNL     1      -8.712   7.673  71.198  1.00  0.00    -0.132 OA 
ENDROOT
BRANCH   2   3
HETATM    3  N   UNL     1      -9.392   8.887  71.372  1.00  0.00    -0.258 NA 
HETATM    4  H   UNL     1      -9.722   9.249  72.266  1.00  0.00     0.000 HD 
BRANCH   3   5
HETATM    5  C   UNL     1      -9.540   9.485  70.228  1.00  0.00    -0.265 C  
HETATM    6  C   UNL     1      -8.435   9.908  69.296  1.00  0.00    -0.158 C  
HETATM    7  N   UNL     1      -9.097  10.857  68.398  1.00  0.00    -0.157 NA 
HETATM    8  C   UNL     1     -10.559  10.846  68.588  1.00  0.00    -0.195 C  
HETATM    9  C   UNL     1     -10.896   9.785  69.649  1.00  0.00    -0.274 C  
BRANCH   7  10
HETATM   10  C   UNL     1      -8.466  12.079  68.187  1.00  0.00    -0.171 A  
HETATM   11  N   UNL     1      -9.208  13.205  68.328  1.00  0.00    -0.209 NA 
HETATM   12  O   UNL     1      -5.874  18.630  67.339  1.00  0.00    -0.158 OA 
HETATM   13  C   UNL     1      -8.662  14.430  68.127  1.00  0.00    -0.175 A  
HETATM   14  C   UNL     1      -7.322  14.568  67.776  1.00  0.00    -0.189 A  
HETATM   15  N   UNL     1      -9.458  15.597  68.297  1.00  0.00    -0.198 NA 
HETATM   16  C   UNL     1      -6.758  15.917  67.581  1.00  0.00    -0.170 C  
HETATM   17  O   UNL     1      -7.921  19.452  67.797  1.00  0.00    -0.272 OA 
HETATM   18  C   UNL     1      -6.526  13.434  67.654  1.00  0.00    -0.169 A  
HETATM   19  F   UNL     1      -6.324  11.101  67.764  1.00  0.00    -0.053 F  
HETATM   20  C   UNL     1      -7.639  17.093  67.757  1.00  0.00    -0.185 C  
HETATM   21  O   UNL     1      -5.574  16.074  67.283  1.00  0.00    -0.282 OA 
HETATM   22  C   UNL     1      -7.105  12.188  67.868  1.00  0.00    -0.101 A  
HETATM   23  C   UNL     1      -7.184  18.491  67.632  1.00  0.00    -0.215 C  
HETATM   24  C   UNL     1      -8.914  16.847  68.083  1.00  0.00    -0.227 C  
BRANCH  15  25
HETATM   25  C   UNL     1     -10.756  15.461  68.983  1.00  0.00    -0.242 C  
HETATM   26  C   UNL     1     -10.766  15.340  70.491  1.00  0.00    -0.247 C  
HETATM   27  C   UNL     1     -11.401  16.526  69.837  1.00  0.00    -0.056 C  
ENDBRANCH  15  25
ENDBRANCH   7  10
BRANCH   9  28
HETATM   28  C   UNL     1     -11.891  10.271  70.700  1.00  0.00    -0.347 C  
HETATM   29  H1  UNL     1     -13.234   9.487  72.074  1.00  0.00     0.000 HD 
HETATM   30  N   UNL     1     -12.570   9.163  71.372  1.00  0.00    -0.320 NA 
HETATM   31  H2  UNL     1     -11.899   8.508  71.774  1.00  0.00     0.000 HD 
ENDBRANCH   9  28
ENDBRANCH   3   5
ENDBRANCH   2   3
TORSDOF 5
ENDMDL
MODEL      110
REMARK 921   NORMALIZED FREE ENERGY PREDICTED BY IDOCK:   -3.95 KCAL/MOL
REMARK 922        TOTAL FREE ENERGY PREDICTED BY IDOCK:   -6.27 KCAL/MOL
REMARK 923 INTER-LIGAND FREE ENERGY PREDICTED BY IDOCK:   -5.64 KCAL/MOL
REMARK 924 INTRA-LIGAND FREE ENERGY PREDICTED BY IDOCK:   -0.63 KCAL/MOL
REMARK 927      BINDING AFFINITY PREDICTED BY RF-SCORE:    0.00 PKD
ROOT
HETATM    1  C   UNL     1     -10.055  19.733  69.934  1.00  0.00     0.353 C  
HETATM    2  O   UNL     1      -9.935  19.245  68.604  1.00  0.00    -0.388 OA 
ENDROOT
BRANCH   2   3
HETATM    3  N   UNL     1      -9.272  18.009  68.632  1.00  0.00    -0.289 NA 
HETATM    4  H   UNL     1      -8.562  17.742  69.313  1.00  0.00     0.000 HD 
BRANCH   3   5
HETATM    5  C   UNL     1      -9.696  17.252  67.664  1.00  0.00    -0.272 C  
HETATM    6  C   UNL     1     -10.719  16.153  67.778  1.00  0.00    -0.325 C  
HETATM    7  N   UNL     1     -10.528  15.387  66.544  1.00  0.00    -0.288 NA 
HETATM    8  C   UNL     1      -9.629  16.089  65.609  1.00  0.00    -0.191 C  
HETATM    9  C   UNL     1      -9.235  17.433  66.243  1.00  0.00    -0.234 C  
BRANCH   7  10
HETATM   10  C   UNL     1     -10.409  14.006  66.664  1.00  0.00    -0.278 A  
HETATM   11  N   UNL     1      -9.176  13.496  66.901  1.00  0.00    -0.245 NA 
HETATM   12  O   UNL     1      -9.103   7.077  67.463  1.00  0.00    -0.123 OA 
HETATM   13  C   UNL     1      -8.985  12.159  67.019  1.00  0.00    -0.201 A  
HETATM   14  C   UNL     1     -10.050  11.270  66.905  1.00  0.00    -0.246 A  
HETATM   15  N   UNL     1      -7.682  11.650  67.283  1.00  0.00    -0.146 NA 
HETATM   16  C   UNL     1      -9.807   9.822  67.055  1.00  0.00    -0.193 C  
HETATM   17  O   UNL     1      -6.923   7.566  67.754  1.00  0.00    -0.074 OA 
HETATM   18  C   UNL     1     -11.334  11.763  66.694  1.00  0.00    -0.381 A  
HETATM   19  F   UNL     1     -12.752  13.604  66.393  1.00  0.00    -0.413 F  
HETATM   20  C   UNL     1      -8.428   9.351  67.314  1.00  0.00    -0.125 C  
HETATM   21  O   UNL     1     -10.729   9.011  66.973  1.00  0.00    -0.242 OA 
HETATM   22  C   UNL     1     -11.508  13.138  66.580  1.00  0.00    -0.338 A  
HETATM   23  C   UNL     1      -8.065   7.938  67.524  1.00  0.00    -0.124 C  
HETATM   24  C   UNL     1      -7.476  10.290  67.392  1.00  0.00    -0.094 C  
BRANCH  15  25
HETATM   25  C   UNL     1      -6.642  12.596  67.727  1.00  0.00    -0.130 C  
HETATM   26  C   UNL     1      -6.992  13.600  68.802  1.00  0.00    -0.106 C  
HETATM   27  C   UNL     1      -5.953  12.558  69.070  1.00  0.00    -0.076 C  
ENDBRANCH  15  25
ENDBRANCH   7  10
BRANCH   9  28
HETATM   28  C   UNL     1      -7.742  17.737  66.143  1.00  0.00    -0.245 C  
HETATM   29  H1  UNL     1      -5.922  16.841  66.584  1.00  0.00     0.000 HD 
HETATM   30  N   UNL     1      -6.919  16.638  66.650  1.00  0.00    -0.228 NA 
HETATM   31  H2  UNL     1      -7.149  15.760  66.185  1.00  0.00     0.000 HD 
ENDBRANCH   9  28
ENDBRANCH   3   5
ENDBRANCH   2   3
TORSDOF 5
ENDMDL
MODEL      111
REMARK 921   NORMALIZED FREE ENERGY PREDICTED BY IDOCK:   -3.93 KCAL/MOL
REMARK 922        TOTAL FREE ENERGY PREDICTED BY IDOCK:   -6.24 KCAL/MOL
REMARK 923 INTER-LIGAND FREE ENERGY PREDICTED BY IDOCK:   -5.25 KCAL/MOL
REMARK 924 INTRA-LIGAND FREE ENERGY PREDICTED BY IDOCK:   -0.99 KCAL/MOL
REMARK 927      BINDING AFFINITY PREDICTED BY RF-SCORE:    0.00 PKD
ROOT
HETATM    1  C   UNL     1     -10.904  10.483  67.084  1.00  0.00    -0.259 C  
HETATM    2  O   UNL     1     -10.299  11.660  66.565  1.00  0.00    -0.213 OA 
ENDROOT
BRANCH   2   3
HETATM    3  N   UNL     1     -10.790  11.891  65.272  1.00  0.00    -0.289 NA 
HETATM    4  H   UNL     1     -11.108  11.166  64.629  1.00  0.00     0.000 HD 
BRANCH   3   5
HETATM    5  C   UNL     1     -10.783  13.164  65.011  1.00  0.00    -0.323 C  
HETATM    6  C   UNL     1      -9.569  14.056  64.970  1.00  0.00     0.379 C  
HETATM    7  N   UNL     1     -10.140  15.403  65.038  1.00  0.00    -0.328 NA 
HETATM    8  C   UNL     1     -11.606  15.374  64.882  1.00  0.00    -0.248 C  
HETATM    9  C   UNL     1     -12.034  13.916  64.646  1.00  0.00    -0.443 C  
BRANCH   7  10
HETATM   10  C   UNL     1      -9.591  16.280  65.969  1.00  0.00    -0.337 A  
HETATM   11  N   UNL     1      -8.637  15.801  66.803  1.00  0.00    -0.244 NA 
HETATM   12  O   UNL     1      -6.323  20.221  70.883  1.00  0.00    -0.495 OA 
HETATM   13  C   UNL     1      -8.066  16.597  67.741  1.00  0.00    -0.176 A  
HETATM   14  C   UNL     1      -8.440  17.932  67.870  1.00  0.00    -0.251 A  
HETATM   15  N   UNL     1      -7.056  16.074  68.595  1.00  0.00    -0.129 NA 
HETATM   16  C   UNL     1      -7.786  18.773  68.892  1.00  0.00    -0.263 C  
HETATM   17  O   UNL     1      -5.134  18.404  71.486  1.00  0.00    -0.498 OA 
HETATM   18  C   UNL     1      -9.394  18.463  67.008  1.00  0.00    -0.281 A  
HETATM   19  F   UNL     1     -10.870  18.156  65.214  1.00  0.00    -0.441 F  
HETATM   20  C   UNL     1      -6.752  18.169  69.761  1.00  0.00     0.092 C  
HETATM   21  O   UNL     1      -8.084  19.960  69.023  1.00  0.00    -0.180 OA 
HETATM   22  C   UNL     1      -9.963  17.630  66.052  1.00  0.00    -0.209 A  
HETATM   23  C   UNL     1      -5.998  18.914  70.787  1.00  0.00     0.083 C  
HETATM   24  C   UNL     1      -6.478  16.874  69.560  1.00  0.00    -0.223 C  
BRANCH  15  25
HETATM   25  C   UNL     1      -6.439  14.783  68.235  1.00  0.00    -0.119 C  
HETATM   26  C   UNL     1      -5.990  13.864  69.349  1.00  0.00    -0.099 C  
HETATM   27  C   UNL     1      -7.085  13.432  68.426  1.00  0.00    -0.108 C  
ENDBRANCH  15  25
ENDBRANCH   7  10
BRANCH   9  28
HETATM   28  C   UNL     1     -13.239  13.494  65.483  1.00  0.00     0.225 C  
HETATM   29  H1  UNL     1     -13.753  13.222  67.475  1.00  0.00     0.000 HD 
HETATM   30  N   UNL     1     -12.948  13.505  66.916  1.00  0.00     0.132 NA 
HETATM   31  H2  UNL     1     -12.592  14.413  67.214  1.00  0.00     0.000 HD 
ENDBRANCH   9  28
ENDBRANCH   3   5
ENDBRANCH   2   3
TORSDOF 5
ENDMDL
MODEL      112
REMARK 921   NORMALIZED FREE ENERGY PREDICTED BY IDOCK:   -3.91 KCAL/MOL
REMARK 922        TOTAL FREE ENERGY PREDICTED BY IDOCK:   -6.21 KCAL/MOL
REMARK 923 INTER-LIGAND FREE ENERGY PREDICTED BY IDOCK:   -5.96 KCAL/MOL
REMARK 924 INTRA-LIGAND FREE ENERGY PREDICTED BY IDOCK:   -0.25 KCAL/MOL
REMARK 927      BINDING AFFINITY PREDICTED BY RF-SCORE:    0.00 PKD
ROOT
HETATM    1  C   UNL     1     -10.937   6.150  69.471  1.00  0.00    -0.393 C  
HETATM    2  O   UNL     1     -11.247   7.517  69.230  1.00  0.00    -0.023 OA 
ENDROOT
BRANCH   2   3
HETATM    3  N   UNL     1     -10.866   7.847  67.922  1.00  0.00    -0.479 NA 
HETATM    4  H   UNL     1     -11.307   7.485  67.076  1.00  0.00     0.000 HD 
BRANCH   3   5
HETATM    5  C   UNL     1      -9.869   8.680  67.942  1.00  0.00    -0.173 C  
HETATM    6  C   UNL     1      -9.687   9.825  68.903  1.00  0.00    -0.171 C  
HETATM    7  N   UNL     1      -8.665  10.649  68.255  1.00  0.00    -0.129 NA 
HETATM    8  C   UNL     1      -8.067   9.953  67.100  1.00  0.00    -0.117 C  
HETATM    9  C   UNL     1      -8.700   8.555  67.003  1.00  0.00    -0.132 C  
BRANCH   7  10
HETATM   10  C   UNL     1      -8.921  12.013  68.145  1.00  0.00    -0.190 A  
HETATM   11  N   UNL     1      -8.018  12.870  68.682  1.00  0.00    -0.077 NA 
HETATM   12  O   UNL     1      -9.560  19.074  67.875  1.00  0.00    -0.300 OA 
HETATM   13  C   UNL     1      -8.209  14.211  68.621  1.00  0.00    -0.116 A  
HETATM   14  C   UNL     1      -9.334  14.747  68.001  1.00  0.00    -0.196 A  
HETATM   15  N   UNL     1      -7.239  15.090  69.179  1.00  0.00    -0.145 NA 
HETATM   16  C   UNL     1      -9.500  16.212  67.940  1.00  0.00    -0.214 C  
HETATM   17  O   UNL     1      -7.623  19.250  69.013  1.00  0.00    -0.352 OA 
HETATM   18  C   UNL     1     -10.263  13.896  67.413  1.00  0.00    -0.252 A  
HETATM   19  F   UNL     1     -10.941  11.712  66.899  1.00  0.00    -0.269 F  
HETATM   20  C   UNL     1      -8.465  17.076  68.551  1.00  0.00    -0.257 C  
HETATM   21  O   UNL     1     -10.476  16.719  67.388  1.00  0.00    -0.308 OA 
HETATM   22  C   UNL     1     -10.047  12.524  67.484  1.00  0.00    -0.207 A  
HETATM   23  C   UNL     1      -8.495  18.550  68.518  1.00  0.00    -0.329 C  
HETATM   24  C   UNL     1      -7.430  16.456  69.132  1.00  0.00    -0.228 C  
BRANCH  15  25
HETATM   25  C   UNL     1      -5.916  14.538  69.526  1.00  0.00    -0.107 C  
HETATM   26  C   UNL     1      -5.493  14.541  70.978  1.00  0.00    -0.160 C  
HETATM   27  C   UNL     1      -5.685  13.241  70.263  1.00  0.00    -0.154 C  
ENDBRANCH  15  25
ENDBRANCH   7  10
BRANCH   9  28
HETATM   28  C   UNL     1      -9.122   8.176  65.585  1.00  0.00    -0.035 C  
HETATM   29  H1  UNL     1      -9.774   9.093  63.841  1.00  0.00     0.000 HD 
HETATM   30  N   UNL     1      -9.492   9.346  64.788  1.00  0.00    -0.446 NA 
HETATM   31  H2  UNL     1      -8.743  10.038  64.778  1.00  0.00     0.000 HD 
ENDBRANCH   9  28
ENDBRANCH   3   5
ENDBRANCH   2   3
TORSDOF 5
ENDMDL
MODEL      113
REMARK 921   NORMALIZED FREE ENERGY PREDICTED BY IDOCK:   -3.91 KCAL/MOL
REMARK 922        TOTAL FREE ENERGY PREDICTED BY IDOCK:   -6.21 KCAL/MOL
REMARK 923 INTER-LIGAND FREE ENERGY PREDICTED BY IDOCK:   -6.24 KCAL/MOL
REMARK 924 INTRA-LIGAND FREE ENERGY PREDICTED BY IDOCK:    0.04 KCAL/MOL
REMARK 927      BINDING AFFINITY PREDICTED BY RF-SCORE:    0.00 PKD
ROOT
HETATM    1  C   UNL     1     -11.195  12.713  63.713  1.00  0.00    -0.463 C  
HETATM    2  O   UNL     1     -10.459  13.114  64.862  1.00  0.00    -0.318 OA 
ENDROOT
BRANCH   2   3
HETATM    3  N   UNL     1      -9.298  12.332  64.954  1.00  0.00    -0.383 NA 
HETATM    4  H   UNL     1      -8.350  12.676  64.807  1.00  0.00     0.000 HD 
BRANCH   3   5
HETATM    5  C   UNL     1      -9.607  11.106  65.252  1.00  0.00    -0.230 C  
HETATM    6  C   UNL     1     -10.749  10.665  66.130  1.00  0.00    -0.076 C  
HETATM    7  N   UNL     1     -10.409   9.278  66.454  1.00  0.00    -0.219 NA 
HETATM    8  C   UNL     1      -9.272   8.800  65.644  1.00  0.00    -0.180 C  
HETATM    9  C   UNL     1      -8.861   9.929  64.684  1.00  0.00    -0.234 C  
BRANCH   7  10
HETATM   10  C   UNL     1     -10.471   8.903  67.792  1.00  0.00    -0.239 A  
HETATM   11  N   UNL     1     -10.074   7.648  68.116  1.00  0.00    -0.179 NA 
HETATM   12  O   UNL     1     -10.451   6.370  74.421  1.00  0.00    -0.304 OA 
HETATM   13  C   UNL     1     -10.118   7.212  69.399  1.00  0.00    -0.176 A  
HETATM   14  C   UNL     1     -10.566   8.042  70.423  1.00  0.00    -0.224 A  
HETATM   15  N   UNL     1      -9.681   5.895  69.715  1.00  0.00    -0.155 NA 
HETATM   16  C   UNL     1     -10.584   7.538  71.810  1.00  0.00    -0.206 C  
HETATM   17  O   UNL     1      -9.671   4.413  73.624  1.00  0.00    -0.121 OA 
HETATM   18  C   UNL     1     -10.950   9.346  70.129  1.00  0.00    -0.282 A  
HETATM   19  F   UNL     1     -11.252  11.039  68.536  1.00  0.00    -0.226 F  
HETATM   20  C   UNL     1     -10.131   6.155  72.075  1.00  0.00    -0.206 C  
HETATM   21  O   UNL     1     -10.962   8.251  72.739  1.00  0.00    -0.354 OA 
HETATM   22  C   UNL     1     -10.895   9.774  68.807  1.00  0.00    -0.188 A  
HETATM   23  C   UNL     1     -10.063   5.552  73.419  1.00  0.00    -0.186 C  
HETATM   24  C   UNL     1      -9.733   5.439  71.016  1.00  0.00    -0.179 C  
BRANCH  15  25
HETATM   25  C   UNL     1      -8.908   5.155  68.700  1.00  0.00    -0.096 C  
HETATM   26  C   UNL     1      -8.769   3.656  68.850  1.00  0.00    -0.135 C  
HETATM   27  C   UNL     1      -9.499   4.220  67.672  1.00  0.00    -0.217 C  
ENDBRANCH  15  25
ENDBRANCH   7  10
BRANCH   9  28
HETATM   28  C   UNL     1      -7.353  10.160  64.629  1.00  0.00    -0.129 C  
HETATM   29  H1  UNL     1      -5.857  11.053  65.756  1.00  0.00     0.000 HD 
HETATM   30  N   UNL     1      -6.864  10.899  65.793  1.00  0.00    -0.336 NA 
HETATM   31  H2  UNL     1      -7.135  10.439  66.663  1.00  0.00     0.000 HD 
ENDBRANCH   9  28
ENDBRANCH   3   5
ENDBRANCH   2   3
TORSDOF 5
ENDMDL
MODEL      114
REMARK 921   NORMALIZED FREE ENERGY PREDICTED BY IDOCK:   -3.89 KCAL/MOL
REMARK 922        TOTAL FREE ENERGY PREDICTED BY IDOCK:   -6.18 KCAL/MOL
REMARK 923 INTER-LIGAND FREE ENERGY PREDICTED BY IDOCK:   -5.01 KCAL/MOL
REMARK 924 INTRA-LIGAND FREE ENERGY PREDICTED BY IDOCK:   -1.17 KCAL/MOL
REMARK 927      BINDING AFFINITY PREDICTED BY RF-SCORE:    0.00 PKD
ROOT
HETATM    1  C   UNL     1     -11.685   8.051  72.580  1.00  0.00    -0.387 C  
HETATM    2  O   UNL     1     -10.845   7.171  71.843  1.00  0.00    -0.222 OA 
ENDROOT
BRANCH   2   3
HETATM    3  N   UNL     1      -9.608   7.070  72.495  1.00  0.00    -0.145 NA 
HETATM    4  H   UNL     1      -9.485   6.986  73.504  1.00  0.00     0.000 HD 
BRANCH   3   5
HETATM    5  C   UNL     1      -8.641   7.098  71.628  1.00  0.00    -0.114 C  
HETATM    6  C   UNL     1      -8.094   8.325  70.946  1.00  0.00    -0.102 C  
HETATM    7  N   UNL     1      -7.339   7.774  69.819  1.00  0.00    -0.078 NA 
HETATM    8  C   UNL     1      -7.210   6.308  69.923  1.00  0.00    -0.074 C  
HETATM    9  C   UNL     1      -7.883   5.861  71.231  1.00  0.00    -0.112 C  
BRANCH   7  10
HETATM   10  C   UNL     1      -7.572   8.330  68.565  1.00  0.00    -0.100 A  
HETATM   11  N   UNL     1      -8.654   9.133  68.420  1.00  0.00    -0.128 NA 
HETATM   12  O   UNL     1      -9.297  11.548  62.480  1.00  0.00    -0.274 OA 
HETATM   13  C   UNL     1      -8.947   9.700  67.224  1.00  0.00    -0.134 A  
HETATM   14  C   UNL     1      -8.142   9.479  66.110  1.00  0.00    -0.111 A  
HETATM   15  N   UNL     1     -10.080  10.552  67.102  1.00  0.00    -0.200 NA 
HETATM   16  C   UNL     1      -8.483  10.125  64.828  1.00  0.00    -0.174 C  
HETATM   17  O   UNL     1     -11.087  12.445  63.513  1.00  0.00    -0.435 OA 
HETATM   18  C   UNL     1      -7.006   8.685  66.232  1.00  0.00    -0.077 A  
HETATM   19  F   UNL     1      -5.615   7.366  67.581  1.00  0.00    -0.027 F  
HETATM   20  C   UNL     1      -9.682  10.989  64.759  1.00  0.00    -0.311 C  
HETATM   21  O   UNL     1      -7.785   9.961  63.828  1.00  0.00    -0.133 OA 
HETATM   22  C   UNL     1      -6.723   8.116  67.469  1.00  0.00    -0.062 A  
HETATM   23  C   UNL     1     -10.103  11.722  63.550  1.00  0.00    -0.438 C  
HETATM   24  C   UNL     1     -10.393  11.123  65.885  1.00  0.00    -0.259 C  
BRANCH  15  25
HETATM   25  C   UNL     1     -10.720  11.041  68.337  1.00  0.00    -0.203 C  
HETATM   26  C   UNL     1     -10.872  12.534  68.528  1.00  0.00    -0.271 C  
HETATM   27  C   UNL     1     -12.089  11.672  68.413  1.00  0.00    -0.105 C  
ENDBRANCH  15  25
ENDBRANCH   7  10
BRANCH   9  28
HETATM   28  C   UNL     1      -8.789   4.644  71.062  1.00  0.00    -0.116 C  
HETATM   29  H1  UNL     1     -10.420   4.043  69.927  1.00  0.00     0.000 HD 
HETATM   30  N   UNL     1      -9.814   4.856  70.040  1.00  0.00    -0.213 NA 
HETATM   31  H2  UNL     1      -9.397   5.132  69.151  1.00  0.00     0.000 HD 
ENDBRANCH   9  28
ENDBRANCH   3   5
ENDBRANCH   2   3
TORSDOF 5
ENDMDL
MODEL      115
REMARK 921   NORMALIZED FREE ENERGY PREDICTED BY IDOCK:   -3.85 KCAL/MOL
REMARK 922        TOTAL FREE ENERGY PREDICTED BY IDOCK:   -6.13 KCAL/MOL
REMARK 923 INTER-LIGAND FREE ENERGY PREDICTED BY IDOCK:   -5.73 KCAL/MOL
REMARK 924 INTRA-LIGAND FREE ENERGY PREDICTED BY IDOCK:   -0.40 KCAL/MOL
REMARK 927      BINDING AFFINITY PREDICTED BY RF-SCORE:    0.00 PKD
ROOT
HETATM    1  C   UNL     1     -14.160   8.230  72.208  1.00  0.00    -0.276 C  
HETATM    2  O   UNL     1     -13.269   7.234  71.722  1.00  0.00    -0.350 OA 
ENDROOT
BRANCH   2   3
HETATM    3  N   UNL     1     -12.198   7.106  72.619  1.00  0.00    -0.487 NA 
HETATM    4  H   UNL     1     -12.233   6.597  73.502  1.00  0.00     0.000 HD 
BRANCH   3   5
HETATM    5  C   UNL     1     -11.155   7.731  72.162  1.00  0.00    -0.279 C  
HETATM    6  C   UNL     1     -11.099   9.174  71.734  1.00  0.00    -0.367 C  
HETATM    7  N   UNL     1      -9.863   9.245  70.953  1.00  0.00    -0.285 NA 
HETATM    8  C   UNL     1      -9.071   8.008  71.085  1.00  0.00    -0.149 C  
HETATM    9  C   UNL     1      -9.806   7.071  72.057  1.00  0.00    -0.171 C  
BRANCH   7  10
HETATM   10  C   UNL     1      -9.933   9.855  69.703  1.00  0.00    -0.231 A  
HETATM   11  N   UNL     1      -9.575   9.121  68.621  1.00  0.00    -0.150 NA 
HETATM   12  O   UNL     1     -10.129  12.307  63.047  1.00  0.00    -0.300 OA 
HETATM   13  C   UNL     1      -9.609   9.654  67.375  1.00  0.00    -0.148 A  
HETATM   14  C   UNL     1     -10.018  10.969  67.169  1.00  0.00    -0.218 A  
HETATM   15  N   UNL     1      -9.243   8.857  66.254  1.00  0.00    -0.190 NA 
HETATM   16  C   UNL     1     -10.057  11.510  65.797  1.00  0.00    -0.237 C  
HETATM   17  O   UNL     1      -9.365  10.311  62.336  1.00  0.00    -0.279 OA 
HETATM   18  C   UNL     1     -10.421  11.739  68.255  1.00  0.00    -0.224 A  
HETATM   19  F   UNL     1     -10.789  11.917  70.563  1.00  0.00     0.454 F  
HETATM   20  C   UNL     1      -9.651  10.638  64.672  1.00  0.00    -0.334 C  
HETATM   21  O   UNL     1     -10.425  12.664  65.579  1.00  0.00    -0.271 OA 
HETATM   22  C   UNL     1     -10.381  11.171  69.524  1.00  0.00     0.021 A  
HETATM   23  C   UNL     1      -9.687  11.049  63.256  1.00  0.00    -0.364 C  
HETATM   24  C   UNL     1      -9.263   9.395  64.983  1.00  0.00    -0.218 C  
BRANCH  15  25
HETATM   25  C   UNL     1      -9.139   7.398  66.440  1.00  0.00    -0.160 C  
HETATM   26  C   UNL     1      -8.443   6.583  65.372  1.00  0.00    -0.119 C  
HETATM   27  C   UNL     1      -7.863   6.653  66.750  1.00  0.00    -0.107 C  
ENDBRANCH  15  25
ENDBRANCH   7  10
BRANCH   9  28
HETATM   28  C   UNL     1      -9.894   5.629  71.562  1.00  0.00    -0.168 C  
HETATM   29  H1  UNL     1      -8.655   3.990  71.269  1.00  0.00     0.000 HD 
HETATM   30  N   UNL     1      -8.597   4.953  71.600  1.00  0.00    -0.124 NA 
HETATM   31  H2  UNL     1      -8.184   4.999  72.532  1.00  0.00     0.000 HD 
ENDBRANCH   9  28
ENDBRANCH   3   5
ENDBRANCH   2   3
TORSDOF 5
ENDMDL
MODEL      116
REMARK 921   NORMALIZED FREE ENERGY PREDICTED BY IDOCK:   -3.83 KCAL/MOL
REMARK 922        TOTAL FREE ENERGY PREDICTED BY IDOCK:   -6.11 KCAL/MOL
REMARK 923 INTER-LIGAND FREE ENERGY PREDICTED BY IDOCK:   -5.70 KCAL/MOL
REMARK 924 INTRA-LIGAND FREE ENERGY PREDICTED BY IDOCK:   -0.41 KCAL/MOL
REMARK 927      BINDING AFFINITY PREDICTED BY RF-SCORE:    0.00 PKD
ROOT
HETATM    1  C   UNL     1      -8.487   4.735  63.697  1.00  0.00    -0.128 C  
HETATM    2  O   UNL     1      -7.739   5.642  64.496  1.00  0.00    -0.083 OA 
ENDROOT
BRANCH   2   3
HETATM    3  N   UNL     1      -7.831   6.925  63.936  1.00  0.00    -0.150 NA 
HETATM    4  H   UNL     1      -7.834   7.127  62.937  1.00  0.00     0.000 HD 
BRANCH   3   5
HETATM    5  C   UNL     1      -7.914   7.818  64.876  1.00  0.00    -0.139 C  
HETATM    6  C   UNL     1      -9.159   8.556  65.295  1.00  0.00     0.014 C  
HETATM    7  N   UNL     1      -8.637   9.684  66.068  1.00  0.00    -0.130 NA 
HETATM    8  C   UNL     1      -7.193   9.535  66.329  1.00  0.00    -0.093 C  
HETATM    9  C   UNL     1      -6.735   8.195  65.731  1.00  0.00    -0.055 C  
BRANCH   7  10
HETATM   10  C   UNL     1      -9.126  10.950  65.757  1.00  0.00    -0.196 A  
HETATM   11  N   UNL     1      -8.842  11.964  66.610  1.00  0.00    -0.193 NA 
HETATM   12  O   UNL     1     -11.227  17.651  64.739  1.00  0.00    -0.834 OA 
HETATM   13  C   UNL     1      -9.294  13.220  66.375  1.00  0.00    -0.174 A  
HETATM   14  C   UNL     1     -10.058  13.507  65.247  1.00  0.00    -0.277 A  
HETATM   15  N   UNL     1      -8.969  14.271  67.278  1.00  0.00    -0.202 NA 
HETATM   16  C   UNL     1     -10.519  14.890  65.015  1.00  0.00    -0.401 C  
HETATM   17  O   UNL     1     -10.210  18.216  66.668  1.00  0.00    -0.343 OA 
HETATM   18  C   UNL     1     -10.340  12.495  64.335  1.00  0.00    -0.378 A  
HETATM   19  F   UNL     1     -10.128  10.249  63.700  1.00  0.00    -0.357 F  
HETATM   20  C   UNL     1     -10.163  15.937  65.997  1.00  0.00    -0.353 C  
HETATM   21  O   UNL     1     -11.185  15.179  64.022  1.00  0.00     0.072 OA 
HETATM   22  C   UNL     1      -9.864  11.215  64.594  1.00  0.00    -0.280 A  
HETATM   23  C   UNL     1     -10.527  17.359  65.856  1.00  0.00    -0.252 C  
HETATM   24  C   UNL     1      -9.435  15.550  67.052  1.00  0.00    -0.225 C  
BRANCH  15  25
HETATM   25  C   UNL     1      -7.902  14.034  68.267  1.00  0.00    -0.140 C  
HETATM   26  C   UNL     1      -6.467  14.275  67.852  1.00  0.00    -0.175 C  
HETATM   27  C   UNL     1      -7.079  15.113  68.930  1.00  0.00    -0.125 C  
ENDBRANCH  15  25
ENDBRANCH   7  10
BRANCH   9  28
HETATM   28  C   UNL     1      -5.438   8.298  64.933  1.00  0.00    -0.040 C  
HETATM   29  H1  UNL     1      -4.716   9.218  63.218  1.00  0.00     0.000 HD 
HETATM   30  N   UNL     1      -5.582   9.149  63.751  1.00  0.00    -0.066 NA 
HETATM   31  H2  UNL     1      -5.936  10.073  64.003  1.00  0.00     0.000 HD 
ENDBRANCH   9  28
ENDBRANCH   3   5
ENDBRANCH   2   3
TORSDOF 5
ENDMDL
MODEL      117
REMARK 921   NORMALIZED FREE ENERGY PREDICTED BY IDOCK:   -3.82 KCAL/MOL
REMARK 922        TOTAL FREE ENERGY PREDICTED BY IDOCK:   -6.09 KCAL/MOL
REMARK 923 INTER-LIGAND FREE ENERGY PREDICTED BY IDOCK:   -6.28 KCAL/MOL
REMARK 924 INTRA-LIGAND FREE ENERGY PREDICTED BY IDOCK:    0.19 KCAL/MOL
REMARK 927      BINDING AFFINITY PREDICTED BY RF-SCORE:    0.00 PKD
ROOT
HETATM    1  C   UNL     1     -14.386   7.448  71.828  1.00  0.00    -0.436 C  
HETATM    2  O   UNL     1     -13.120   6.817  71.684  1.00  0.00    -0.328 OA 
ENDROOT
BRANCH   2   3
HETATM    3  N   UNL     1     -12.813   6.722  70.319  1.00  0.00    -0.097 NA 
HETATM    4  H   UNL     1     -13.335   6.168  69.640  1.00  0.00     0.000 HD 
BRANCH   3   5
HETATM    5  C   UNL     1     -11.767   7.442  70.044  1.00  0.00     0.081 C  
HETATM    6  C   UNL     1     -11.380   8.737  70.710  1.00  0.00    -0.272 C  
HETATM    7  N   UNL     1     -10.399   9.309  69.786  1.00  0.00    -0.207 NA 
HETATM    8  C   UNL     1     -10.010   8.339  68.745  1.00  0.00    -0.183 C  
HETATM    9  C   UNL     1     -10.745   7.018  69.025  1.00  0.00    -0.234 C  
BRANCH   7  10
HETATM   10  C   UNL     1     -10.572  10.640  69.417  1.00  0.00    -0.239 A  
HETATM   11  N   UNL     1     -10.021  11.048  68.248  1.00  0.00    -0.173 NA 
HETATM   12  O   UNL     1     -11.137  17.251  66.901  1.00  0.00     0.048 OA 
HETATM   13  C   UNL     1     -10.142  12.333  67.832  1.00  0.00    -0.200 A  
HETATM   14  C   UNL     1     -10.839  13.270  68.590  1.00  0.00    -0.285 A  
HETATM   15  N   UNL     1      -9.568  12.733  66.593  1.00  0.00    -0.249 NA 
HETATM   16  C   UNL     1     -10.963  14.655  68.098  1.00  0.00    -0.261 C  
HETATM   17  O   UNL     1      -9.908  16.630  65.117  1.00  0.00    -0.359 OA 
HETATM   18  C   UNL     1     -11.442  12.875  69.780  1.00  0.00    -0.203 A  
HETATM   19  F   UNL     1     -11.909  11.178  71.327  1.00  0.00    -0.349 F  
HETATM   20  C   UNL     1     -10.332  15.016  66.809  1.00  0.00    -0.270 C  
HETATM   21  O   UNL     1     -11.583  15.504  68.738  1.00  0.00    -0.342 OA 
HETATM   22  C   UNL     1     -11.309  11.552  70.186  1.00  0.00    -0.057 A  
HETATM   23  C   UNL     1     -10.421  16.352  66.192  1.00  0.00    -0.314 C  
HETATM   24  C   UNL     1      -9.675  14.042  66.167  1.00  0.00    -0.280 C  
BRANCH  15  25
HETATM   25  C   UNL     1      -9.132  11.682  65.655  1.00  0.00    -0.080 C  
HETATM   26  C   UNL     1     -10.135  10.628  65.237  1.00  0.00    -0.363 C  
HETATM   27  C   UNL     1      -9.573  11.567  64.216  1.00  0.00    -0.174 C  
ENDBRANCH  15  25
ENDBRANCH   7  10
BRANCH   9  28
HETATM   28  C   UNL     1     -11.378   6.400  67.780  1.00  0.00     0.039 C  
HETATM   29  H1  UNL     1     -11.172   6.464  65.716  1.00  0.00     0.000 HD 
HETATM   30  N   UNL     1     -10.750   6.876  66.547  1.00  0.00    -0.498 NA 
HETATM   31  H2  UNL     1      -9.741   6.723  66.564  1.00  0.00     0.000 HD 
ENDBRANCH   9  28
ENDBRANCH   3   5
ENDBRANCH   2   3
TORSDOF 5
ENDMDL
MODEL      118
REMARK 921   NORMALIZED FREE ENERGY PREDICTED BY IDOCK:   -3.78 KCAL/MOL
REMARK 922        TOTAL FREE ENERGY PREDICTED BY IDOCK:   -6.04 KCAL/MOL
REMARK 923 INTER-LIGAND FREE ENERGY PREDICTED BY IDOCK:   -5.71 KCAL/MOL
REMARK 924 INTRA-LIGAND FREE ENERGY PREDICTED BY IDOCK:   -0.33 KCAL/MOL
REMARK 927      BINDING AFFINITY PREDICTED BY RF-SCORE:    0.00 PKD
ROOT
HETATM    1  C   UNL     1      -5.960   6.894  68.134  1.00  0.00    -0.032 C  
HETATM    2  O   UNL     1      -6.720   8.079  67.932  1.00  0.00    -0.065 OA 
ENDROOT
BRANCH   2   3
HETATM    3  N   UNL     1      -8.061   7.818  68.250  1.00  0.00    -0.122 NA 
HETATM    4  H   UNL     1      -8.396   6.980  68.724  1.00  0.00     0.000 HD 
BRANCH   3   5
HETATM    5  C   UNL     1      -8.814   8.799  67.852  1.00  0.00    -0.136 C  
HETATM    6  C   UNL     1      -8.383   9.958  66.992  1.00  0.00    -0.121 C  
HETATM    7  N   UNL     1      -9.458  10.934  67.181  1.00  0.00    -0.160 NA 
HETATM    8  C   UNL     1     -10.601  10.343  67.904  1.00  0.00    -0.232 C  
HETATM    9  C   UNL     1     -10.283   8.862  68.170  1.00  0.00    -0.245 C  
BRANCH   7  10
HETATM   10  C   UNL     1      -9.087  12.240  67.488  1.00  0.00    -0.182 A  
HETATM   11  N   UNL     1      -9.725  13.247  66.843  1.00  0.00    -0.241 NA 
HETATM   12  O   UNL     1      -7.747  19.115  68.627  1.00  0.00    -0.327 OA 
HETATM   13  C   UNL     1      -9.407  14.542  67.085  1.00  0.00    -0.218 A  
HETATM   14  C   UNL     1      -8.419  14.877  68.007  1.00  0.00    -0.151 A  
HETATM   15  N   UNL     1     -10.103  15.581  66.406  1.00  0.00    -0.273 NA 
HETATM   16  C   UNL     1      -8.110  16.299  68.255  1.00  0.00    -0.167 C  
HETATM   17  O   UNL     1      -9.308  19.629  67.085  1.00  0.00    -0.312 OA 
HETATM   18  C   UNL     1      -7.767  13.869  68.708  1.00  0.00    -0.096 A  
HETATM   19  F   UNL     1      -7.488  11.583  69.142  1.00  0.00    -0.109 F  
HETATM   20  C   UNL     1      -8.857  17.335  67.508  1.00  0.00    -0.219 C  
HETATM   21  O   UNL     1      -7.252  16.629  69.073  1.00  0.00    -0.202 OA 
HETATM   22  C   UNL     1      -8.111  12.547  68.447  1.00  0.00    -0.136 A  
HETATM   23  C   UNL     1      -8.671  18.785  67.698  1.00  0.00    -0.280 C  
HETATM   24  C   UNL     1      -9.777  16.902  66.637  1.00  0.00    -0.271 C  
BRANCH  15  25
HETATM   25  C   UNL     1     -11.350  15.238  65.699  1.00  0.00    -0.197 C  
HETATM   26  C   UNL     1     -11.649  15.929  64.387  1.00  0.00    -0.234 C  
HETATM   27  C   UNL     1     -11.430  14.449  64.414  1.00  0.00    -0.299 C  
ENDBRANCH  15  25
ENDBRANCH   7  10
BRANCH   9  28
HETATM   28  C   UNL     1     -10.596   8.421  69.598  1.00  0.00    -0.219 C  
HETATM   29  H1  UNL     1     -11.951   8.844  71.113  1.00  0.00     0.000 HD 
HETATM   30  N   UNL     1     -11.742   9.138  70.159  1.00  0.00    -0.465 NA 
HETATM   31  H2  UNL     1     -12.562   9.052  69.558  1.00  0.00     0.000 HD 
ENDBRANCH   9  28
ENDBRANCH   3   5
ENDBRANCH   2   3
TORSDOF 5
ENDMDL
MODEL      119
REMARK 921   NORMALIZED FREE ENERGY PREDICTED BY IDOCK:   -3.69 KCAL/MOL
REMARK 922        TOTAL FREE ENERGY PREDICTED BY IDOCK:   -5.93 KCAL/MOL
REMARK 923 INTER-LIGAND FREE ENERGY PREDICTED BY IDOCK:   -5.69 KCAL/MOL
REMARK 924 INTRA-LIGAND FREE ENERGY PREDICTED BY IDOCK:   -0.24 KCAL/MOL
REMARK 927      BINDING AFFINITY PREDICTED BY RF-SCORE:    0.00 PKD
ROOT
HETATM    1  C   UNL     1     -12.281  14.689  67.770  1.00  0.00    -0.047 C  
HETATM    2  O   UNL     1     -12.292  14.021  66.515  1.00  0.00    -0.457 OA 
ENDROOT
BRANCH   2   3
HETATM    3  N   UNL     1     -11.049  14.203  65.892  1.00  0.00    -0.302 NA 
HETATM    4  H   UNL     1     -10.833  14.945  65.227  1.00  0.00     0.000 HD 
BRANCH   3   5
HETATM    5  C   UNL     1     -10.213  13.289  66.284  1.00  0.00    -0.296 C  
HETATM    6  C   UNL     1     -10.529  11.834  66.511  1.00  0.00    -0.230 C  
HETATM    7  N   UNL     1      -9.392  11.363  67.304  1.00  0.00    -0.166 NA 
HETATM    8  C   UNL     1      -8.321  12.375  67.363  1.00  0.00    -0.180 C  
HETATM    9  C   UNL     1      -8.755  13.580  66.512  1.00  0.00     0.087 C  
BRANCH   7  10
HETATM   10  C   UNL     1      -9.677  10.634  68.456  1.00  0.00    -0.174 A  
HETATM   11  N   UNL     1      -8.650  10.004  69.075  1.00  0.00    -0.142 NA 
HETATM   12  O   UNL     1     -10.408   6.826  74.399  1.00  0.00    -0.340 OA 
HETATM   13  C   UNL     1      -8.857   9.268  70.195  1.00  0.00    -0.213 A  
HETATM   14  C   UNL     1     -10.129   9.144  70.746  1.00  0.00    -0.333 A  
HETATM   15  N   UNL     1      -7.758   8.629  70.835  1.00  0.00    -0.085 NA 
HETATM   16  C   UNL     1     -10.314   8.348  71.975  1.00  0.00    -0.304 C  
HETATM   17  O   UNL     1      -8.199   6.389  74.338  1.00  0.00    -0.121 OA 
HETATM   18  C   UNL     1     -11.200   9.804  70.152  1.00  0.00    -0.324 A  
HETATM   19  F   UNL     1     -12.002  11.203  68.451  1.00  0.00    -0.365 F  
HETATM   20  C   UNL     1      -9.136   7.694  72.587  1.00  0.00    -0.209 C  
HETATM   21  O   UNL     1     -11.423   8.229  72.494  1.00  0.00    -0.378 OA 
HETATM   22  C   UNL     1     -10.965  10.556  69.006  1.00  0.00    -0.243 A  
HETATM   23  C   UNL     1      -9.184   6.910  73.835  1.00  0.00    -0.199 C  
HETATM   24  C   UNL     1      -7.962   7.868  71.969  1.00  0.00    -0.113 C  
BRANCH  15  25
HETATM   25  C   UNL     1      -6.394   9.034  70.448  1.00  0.00    -0.044 C  
HETATM   26  C   UNL     1      -5.492   9.630  71.506  1.00  0.00    -0.074 C  
HETATM   27  C   UNL     1      -5.128   8.327  70.869  1.00  0.00    -0.025 C  
ENDBRANCH  15  25
ENDBRANCH   7  10
BRANCH   9  28
HETATM   28  C   UNL     1      -8.523  14.924  67.198  1.00  0.00    -0.220 C  
HETATM   29  H1  UNL     1      -6.944  16.135  67.790  1.00  0.00     0.000 HD 
HETATM   30  N   UNL     1      -7.100  15.237  67.331  1.00  0.00    -0.196 NA 
HETATM   31  H2  UNL     1      -6.627  15.198  66.428  1.00  0.00     0.000 HD 
ENDBRANCH   9  28
ENDBRANCH   3   5
ENDBRANCH   2   3
TORSDOF 5
ENDMDL
MODEL      120
REMARK 921   NORMALIZED FREE ENERGY PREDICTED BY IDOCK:   -3.69 KCAL/MOL
REMARK 922        TOTAL FREE ENERGY PREDICTED BY IDOCK:   -5.93 KCAL/MOL
REMARK 923 INTER-LIGAND FREE ENERGY PREDICTED BY IDOCK:   -5.13 KCAL/MOL
REMARK 924 INTRA-LIGAND FREE ENERGY PREDICTED BY IDOCK:   -0.80 KCAL/MOL
REMARK 927      BINDING AFFINITY PREDICTED BY RF-SCORE:    0.00 PKD
ROOT
HETATM    1  C   UNL     1      -9.224   3.527  64.786  1.00  0.00    -0.142 C  
HETATM    2  O   UNL     1      -8.994   4.384  65.897  1.00  0.00    -0.117 OA 
ENDROOT
BRANCH   2   3
HETATM    3  N   UNL     1      -9.760   3.936  66.983  1.00  0.00    -0.277 NA 
HETATM    4  H   UNL     1      -9.950   2.957  67.199  1.00  0.00     0.000 HD 
BRANCH   3   5
HETATM    5  C   UNL     1     -10.193   4.947  67.674  1.00  0.00    -0.076 C  
HETATM    6  C   UNL     1     -10.657   6.269  67.121  1.00  0.00    -0.311 C  
HETATM    7  N   UNL     1     -10.642   7.148  68.292  1.00  0.00    -0.202 NA 
HETATM    8  C   UNL     1     -10.428   6.383  69.535  1.00  0.00    -0.230 C  
HETATM    9  C   UNL     1     -10.342   4.892  69.171  1.00  0.00    -0.103 C  
BRANCH   7  10
HETATM   10  C   UNL     1     -10.010   8.380  68.156  1.00  0.00    -0.191 A  
HETATM   11  N   UNL     1     -10.720   9.492  68.467  1.00  0.00    -0.208 NA 
HETATM   12  O   UNL     1      -7.380  14.959  67.770  1.00  0.00    -0.132 OA 
HETATM   13  C   UNL     1     -10.170  10.726  68.348  1.00  0.00    -0.175 A  
HETATM   14  C   UNL     1      -8.859  10.887  67.908  1.00  0.00    -0.134 A  
HETATM   15  N   UNL     1     -10.931  11.877  68.695  1.00  0.00    -0.215 NA 
HETATM   16  C   UNL     1      -8.289  12.244  67.807  1.00  0.00    -0.162 C  
HETATM   17  O   UNL     1      -9.372  15.749  68.467  1.00  0.00    -0.188 OA 
HETATM   18  C   UNL     1      -8.093   9.764  67.611  1.00  0.00    -0.113 A  
HETATM   19  F   UNL     1      -7.923   7.430  67.471  1.00  0.00    -0.105 F  
HETATM   20  C   UNL     1      -9.134  13.404  68.168  1.00  0.00    -0.207 C  
HETATM   21  O   UNL     1      -7.129  12.420  67.434  1.00  0.00    -0.135 OA 
HETATM   22  C   UNL     1      -8.676   8.508  67.743  1.00  0.00    -0.137 A  
HETATM   23  C   UNL     1      -8.667  14.803  68.149  1.00  0.00    -0.168 C  
HETATM   24  C   UNL     1     -10.384  13.137  68.566  1.00  0.00    -0.238 C  
BRANCH  15  25
HETATM   25  C   UNL     1     -12.175  11.684  69.463  1.00  0.00    -0.193 C  
HETATM   26  C   UNL     1     -12.088  11.026  70.823  1.00  0.00    -0.467 C  
HETATM   27  C   UNL     1     -12.549  12.445  70.712  1.00  0.00    -0.298 C  
ENDBRANCH  15  25
ENDBRANCH   7  10
BRANCH   9  28
HETATM   28  C   UNL     1      -9.184   4.166  69.851  1.00  0.00    -0.141 C  
HETATM   29  H1  UNL     1      -7.113   4.260  69.954  1.00  0.00     0.000 HD 
HETATM   30  N   UNL     1      -7.886   4.745  69.500  1.00  0.00    -0.066 NA 
HETATM   31  H2  UNL     1      -7.863   5.745  69.698  1.00  0.00     0.000 HD 
ENDBRANCH   9  28
ENDBRANCH   3   5
ENDBRANCH   2   3
TORSDOF 5
ENDMDL
MODEL      121
REMARK 921   NORMALIZED FREE ENERGY PREDICTED BY IDOCK:   -3.68 KCAL/MOL
REMARK 922        TOTAL FREE ENERGY PREDICTED BY IDOCK:   -5.91 KCAL/MOL
REMARK 923 INTER-LIGAND FREE ENERGY PREDICTED BY IDOCK:   -4.78 KCAL/MOL
REMARK 924 INTRA-LIGAND FREE ENERGY PREDICTED BY IDOCK:   -1.14 KCAL/MOL
REMARK 927      BINDING AFFINITY PREDICTED BY RF-SCORE:    0.00 PKD
ROOT
HETATM    1  C   UNL     1     -13.906   9.320  72.233  1.00  0.00    -0.426 C  
HETATM    2  O   UNL     1     -12.822   8.702  71.551  1.00  0.00    -0.323 OA 
ENDROOT
BRANCH   2   3
HETATM    3  N   UNL     1     -11.762   8.522  72.452  1.00  0.00    -0.377 NA 
HETATM    4  H   UNL     1     -11.867   8.273  73.435  1.00  0.00     0.000 HD 
BRANCH   3   5
HETATM    5  C   UNL     1     -10.626   8.719  71.852  1.00  0.00    -0.354 C  
HETATM    6  C   UNL     1     -10.436   9.317  70.483  1.00  0.00    -0.255 C  
HETATM    7  N   UNL     1      -9.062   8.944  70.141  1.00  0.00    -0.164 NA 
HETATM    8  C   UNL     1      -8.355   8.372  71.303  1.00  0.00    -0.143 C  
HETATM    9  C   UNL     1      -9.308   8.412  72.509  1.00  0.00    -0.346 C  
BRANCH   7  10
HETATM   10  C   UNL     1      -8.850   8.372  68.891  1.00  0.00    -0.143 A  
HETATM   11  N   UNL     1      -8.773   7.021  68.819  1.00  0.00    -0.127 NA 
HETATM   12  O   UNL     1      -7.865   4.803  62.837  1.00  0.00    -0.064 OA 
HETATM   13  C   UNL     1      -8.558   6.396  67.635  1.00  0.00    -0.115 A  
HETATM   14  C   UNL     1      -8.414   7.124  66.457  1.00  0.00    -0.125 A  
HETATM   15  N   UNL     1      -8.497   4.976  67.584  1.00  0.00    -0.105 NA 
HETATM   16  C   UNL     1      -8.196   6.409  65.185  1.00  0.00    -0.134 C  
HETATM   17  O   UNL     1      -7.919   2.882  64.012  1.00  0.00    -0.080 OA 
HETATM   18  C   UNL     1      -8.518   8.511  66.492  1.00  0.00    -0.119 A  
HETATM   19  F   UNL     1      -8.859  10.467  67.736  1.00  0.00    -0.123 F  
HETATM   20  C   UNL     1      -8.128   4.931  65.196  1.00  0.00    -0.112 C  
HETATM   21  O   UNL     1      -8.077   7.022  64.124  1.00  0.00    -0.115 OA 
HETATM   22  C   UNL     1      -8.743   9.130  67.716  1.00  0.00    -0.121 A  
HETATM   23  C   UNL     1      -7.957   4.104  63.988  1.00  0.00    -0.089 C  
HETATM   24  C   UNL     1      -8.266   4.332  66.385  1.00  0.00    -0.102 C  
BRANCH  15  25
HETATM   25  C   UNL     1      -8.977   4.216  68.753  1.00  0.00    -0.113 C  
HETATM   26  C   UNL     1      -9.438   2.790  68.547  1.00  0.00    -0.200 C  
HETATM   27  C   UNL     1      -8.242   3.067  69.402  1.00  0.00    -0.075 C  
ENDBRANCH  15  25
ENDBRANCH   7  10
BRANCH   9  28
HETATM   28  C   UNL     1      -9.336   7.109  73.304  1.00  0.00    -0.168 C  
HETATM   29  H1  UNL     1      -9.700   5.088  72.998  1.00  0.00     0.000 HD 
HETATM   30  N   UNL     1      -9.681   5.959  72.468  1.00  0.00    -0.158 NA 
HETATM   31  H2  UNL     1      -9.057   5.887  71.663  1.00  0.00     0.000 HD 
ENDBRANCH   9  28
ENDBRANCH   3   5
ENDBRANCH   2   3
TORSDOF 5
ENDMDL
MODEL      122
REMARK 921   NORMALIZED FREE ENERGY PREDICTED BY IDOCK:   -3.63 KCAL/MOL
REMARK 922        TOTAL FREE ENERGY PREDICTED BY IDOCK:   -5.85 KCAL/MOL
REMARK 923 INTER-LIGAND FREE ENERGY PREDICTED BY IDOCK:   -6.46 KCAL/MOL
REMARK 924 INTRA-LIGAND FREE ENERGY PREDICTED BY IDOCK:    0.62 KCAL/MOL
REMARK 927      BINDING AFFINITY PREDICTED BY RF-SCORE:    0.00 PKD
ROOT
HETATM    1  C   UNL     1     -13.648  12.963  72.293  1.00  0.00    -0.515 C  
HETATM    2  O   UNL     1     -14.090  14.152  72.935  1.00  0.00    -0.546 OA 
ENDROOT
BRANCH   2   3
HETATM    3  N   UNL     1     -14.347  15.127  71.960  1.00  0.00    -0.548 NA 
HETATM    4  H   UNL     1     -15.249  15.578  71.808  1.00  0.00     0.000 HD 
BRANCH   3   5
HETATM    5  C   UNL     1     -13.269  15.372  71.277  1.00  0.00    -0.510 C  
HETATM    6  C   UNL     1     -13.028  15.010  69.835  1.00  0.00     0.107 C  
HETATM    7  N   UNL     1     -11.576  15.137  69.695  1.00  0.00    -0.290 NA 
HETATM    8  C   UNL     1     -10.974  15.771  70.883  1.00  0.00    -0.239 C  
HETATM    9  C   UNL     1     -12.108  16.133  71.858  1.00  0.00    -0.548 C  
BRANCH   7  10
HETATM   10  C   UNL     1     -10.899  14.079  69.097  1.00  0.00    -0.206 A  
HETATM   11  N   UNL     1      -9.613  14.284  68.720  1.00  0.00    -0.191 NA 
HETATM   12  O   UNL     1      -6.845   9.103  66.070  1.00  0.00    -0.081 OA 
HETATM   13  C   UNL     1      -8.896  13.301  68.122  1.00  0.00    -0.187 A  
HETATM   14  C   UNL     1      -9.458  12.049  67.882  1.00  0.00    -0.196 A  
HETATM   15  N   UNL     1      -7.543  13.536  67.750  1.00  0.00    -0.145 NA 
HETATM   16  C   UNL     1      -8.642  10.998  67.243  1.00  0.00    -0.130 C  
HETATM   17  O   UNL     1      -5.162  10.597  65.969  1.00  0.00    -0.062 OA 
HETATM   18  C   UNL     1     -10.765  11.797  68.285  1.00  0.00    -0.246 A  
HETATM   19  F   UNL     1     -12.735  12.559  69.299  1.00  0.00     0.067 F  
HETATM   20  C   UNL     1      -7.245  11.307  66.865  1.00  0.00    -0.142 C  
HETATM   21  O   UNL     1      -9.104   9.878  67.028  1.00  0.00    -0.137 OA 
HETATM   22  C   UNL     1     -11.481  12.818  68.899  1.00  0.00    -0.305 A  
HETATM   23  C   UNL     1      -6.319  10.331  66.260  1.00  0.00    -0.090 C  
HETATM   24  C   UNL     1      -6.810  12.545  67.129  1.00  0.00    -0.052 C  
BRANCH  15  25
HETATM   25  C   UNL     1      -6.866  14.725  68.300  1.00  0.00    -0.114 C  
HETATM   26  C   UNL     1      -6.225  14.621  69.666  1.00  0.00    -0.133 C  
HETATM   27  C   UNL     1      -5.373  14.874  68.463  1.00  0.00    -0.102 C  
ENDBRANCH  15  25
ENDBRANCH   7  10
BRANCH   9  28
HETATM   28  C   UNL     1     -11.813  15.744  73.304  1.00  0.00    -0.377 C  
HETATM   29  H1  UNL     1     -11.975  16.545  75.212  1.00  0.00     0.000 HD 
HETATM   30  N   UNL     1     -12.172  16.805  74.246  1.00  0.00    -0.544 NA 
HETATM   31  H2  UNL     1     -13.146  17.087  74.130  1.00  0.00     0.000 HD 
ENDBRANCH   9  28
ENDBRANCH   3   5
ENDBRANCH   2   3
TORSDOF 5
ENDMDL
MODEL      123
REMARK 921   NORMALIZED FREE ENERGY PREDICTED BY IDOCK:   -3.63 KCAL/MOL
REMARK 922        TOTAL FREE ENERGY PREDICTED BY IDOCK:   -5.85 KCAL/MOL
REMARK 923 INTER-LIGAND FREE ENERGY PREDICTED BY IDOCK:   -5.51 KCAL/MOL
REMARK 924 INTRA-LIGAND FREE ENERGY PREDICTED BY IDOCK:   -0.33 KCAL/MOL
REMARK 927      BINDING AFFINITY PREDICTED BY RF-SCORE:    0.00 PKD
ROOT
HETATM    1  C   UNL     1     -11.765  12.587  68.048  1.00  0.00    -0.355 C  
HETATM    2  O   UNL     1     -11.749  11.878  66.816  1.00  0.00    -0.548 OA 
ENDROOT
BRANCH   2   3
HETATM    3  N   UNL     1     -10.454  11.931  66.278  1.00  0.00    -0.232 NA 
HETATM    4  H   UNL     1     -10.081  12.705  65.730  1.00  0.00     0.000 HD 
BRANCH   3   5
HETATM    5  C   UNL     1      -9.800  10.849  66.579  1.00  0.00    -0.204 C  
HETATM    6  C   UNL     1     -10.395   9.483  66.800  1.00  0.00    -0.228 C  
HETATM    7  N   UNL     1      -9.324   8.757  67.485  1.00  0.00    -0.135 NA 
HETATM    8  C   UNL     1      -8.063   9.522  67.474  1.00  0.00    -0.110 C  
HETATM    9  C   UNL     1      -8.300  10.823  66.688  1.00  0.00    -0.141 C  
BRANCH   7  10
HETATM   10  C   UNL     1      -9.664   8.060  68.640  1.00  0.00    -0.159 A  
HETATM   11  N   UNL     1      -9.323   6.750  68.711  1.00  0.00    -0.133 NA 
HETATM   12  O   UNL     1     -11.018   3.943  74.259  1.00  0.00    -0.171 OA 
HETATM   13  C   UNL     1      -9.632   6.007  69.803  1.00  0.00    -0.150 A  
HETATM   14  C   UNL     1     -10.304   6.569  70.885  1.00  0.00    -0.243 A  
HETATM   15  N   UNL     1      -9.250   4.638  69.860  1.00  0.00    -0.113 NA 
HETATM   16  C   UNL     1     -10.610   5.734  72.063  1.00  0.00    -0.226 C  
HETATM   17  O   UNL     1     -10.050   2.221  73.176  1.00  0.00    -0.104 OA 
HETATM   18  C   UNL     1     -10.640   7.918  70.857  1.00  0.00    -0.227 A  
HETATM   19  F   UNL     1     -10.624   9.967  69.719  1.00  0.00    -0.214 F  
HETATM   20  C   UNL     1     -10.200   4.312  72.058  1.00  0.00    -0.220 C  
HETATM   21  O   UNL     1     -11.191   6.203  73.041  1.00  0.00    -0.242 OA 
HETATM   22  C   UNL     1     -10.311   8.662  69.729  1.00  0.00    -0.212 A  
HETATM   23  C   UNL     1     -10.410   3.389  73.188  1.00  0.00    -0.162 C  
HETATM   24  C   UNL     1      -9.571   3.871  70.961  1.00  0.00    -0.181 C  
BRANCH  15  25
HETATM   25  C   UNL     1      -8.264   4.149  68.878  1.00  0.00    -0.071 C  
HETATM   26  C   UNL     1      -6.977   4.923  68.701  1.00  0.00    -0.053 C  
HETATM   27  C   UNL     1      -6.935   3.521  69.222  1.00  0.00    -0.045 C  
ENDBRANCH  15  25
ENDBRANCH   7  10
BRANCH   9  28
HETATM   28  C   UNL     1      -7.739  12.062  67.381  1.00  0.00    -0.162 C  
HETATM   29  H1  UNL     1      -6.012  13.214  67.386  1.00  0.00     0.000 HD 
HETATM   30  N   UNL     1      -6.387  12.386  66.924  1.00  0.00    -0.474 NA 
HETATM   31  H2  UNL     1      -6.355  12.484  65.908  1.00  0.00     0.000 HD 
ENDBRANCH   9  28
ENDBRANCH   3   5
ENDBRANCH   2   3
TORSDOF 5
ENDMDL
MODEL      124
REMARK 921   NORMALIZED FREE ENERGY PREDICTED BY IDOCK:   -3.60 KCAL/MOL
REMARK 922        TOTAL FREE ENERGY PREDICTED BY IDOCK:   -5.81 KCAL/MOL
REMARK 923 INTER-LIGAND FREE ENERGY PREDICTED BY IDOCK:   -6.21 KCAL/MOL
REMARK 924 INTRA-LIGAND FREE ENERGY PREDICTED BY IDOCK:    0.39 KCAL/MOL
REMARK 927      BINDING AFFINITY PREDICTED BY RF-SCORE:    0.00 PKD
ROOT
HETATM    1  C   UNL     1      -6.271  21.063  68.173  1.00  0.00    -0.308 C  
HETATM    2  O   UNL     1      -6.823  20.303  67.105  1.00  0.00    -0.220 OA 
ENDROOT
BRANCH   2   3
HETATM    3  N   UNL     1      -8.214  20.477  67.094  1.00  0.00    -0.472 NA 
HETATM    4  H   UNL     1      -8.695  21.320  66.781  1.00  0.00     0.000 HD 
BRANCH   3   5
HETATM    5  C   UNL     1      -8.803  19.408  67.542  1.00  0.00    -0.304 C  
HETATM    6  C   UNL     1      -8.213  18.401  68.494  1.00  0.00    -0.318 C  
HETATM    7  N   UNL     1      -9.096  17.243  68.348  1.00  0.00    -0.258 NA 
HETATM    8  C   UNL     1     -10.294  17.576  67.554  1.00  0.00    -0.356 C  
HETATM    9  C   UNL     1     -10.226  19.068  67.190  1.00  0.00    -0.464 C  
BRANCH   7  10
HETATM   10  C   UNL     1      -8.493  16.004  68.147  1.00  0.00    -0.169 A  
HETATM   11  N   UNL     1      -9.248  14.895  68.341  1.00  0.00    -0.183 NA 
HETATM   12  O   UNL     1      -6.084   9.394  67.222  1.00  0.00    -0.055 OA 
HETATM   13  C   UNL     1      -8.723  13.657  68.174  1.00  0.00    -0.177 A  
HETATM   14  C   UNL     1      -7.395  13.487  67.791  1.00  0.00    -0.166 A  
HETATM   15  N   UNL     1      -9.541  12.509  68.369  1.00  0.00    -0.206 NA 
HETATM   16  C   UNL     1      -6.863  12.123  67.603  1.00  0.00    -0.119 C  
HETATM   17  O   UNL     1      -8.113   8.618  67.820  1.00  0.00    -0.106 OA 
HETATM   18  C   UNL     1      -6.603  14.605  67.553  1.00  0.00    -0.113 A  
HETATM   19  F   UNL     1      -6.394  16.938  67.478  1.00  0.00    -0.131 F  
HETATM   20  C   UNL     1      -7.758  10.967  67.835  1.00  0.00    -0.104 C  
HETATM   21  O   UNL     1      -5.698  11.939  67.253  1.00  0.00    -0.097 OA 
HETATM   22  C   UNL     1      -7.162  15.865  67.728  1.00  0.00    -0.147 A  
HETATM   23  C   UNL     1      -7.357   9.562  67.640  1.00  0.00    -0.083 C  
HETATM   24  C   UNL     1      -9.012  11.243  68.213  1.00  0.00    -0.172 C  
BRANCH  15  25
HETATM   25  C   UNL     1     -11.002  12.698  68.443  1.00  0.00    -0.257 C  
HETATM   26  C   UNL     1     -11.867  12.047  67.386  1.00  0.00    -0.268 C  
HETATM   27  C   UNL     1     -11.997  11.625  68.815  1.00  0.00    -0.326 C  
ENDBRANCH  15  25
ENDBRANCH   7  10
BRANCH   9  28
HETATM   28  C   UNL     1     -10.553  19.352  65.726  1.00  0.00    -0.400 C  
HETATM   29  H1  UNL     1     -10.111  20.752  64.258  1.00  0.00     0.000 HD 
HETATM   30  N   UNL     1      -9.892  20.562  65.236  1.00  0.00    -0.225 NA 
HETATM   31  H2  UNL     1      -8.884  20.518  65.387  1.00  0.00     0.000 HD 
ENDBRANCH   9  28
ENDBRANCH   3   5
ENDBRANCH   2   3
TORSDOF 5
ENDMDL
MODEL      125
REMARK 921   NORMALIZED FREE ENERGY PREDICTED BY IDOCK:   -3.60 KCAL/MOL
REMARK 922        TOTAL FREE ENERGY PREDICTED BY IDOCK:   -5.81 KCAL/MOL
REMARK 923 INTER-LIGAND FREE ENERGY PREDICTED BY IDOCK:   -5.13 KCAL/MOL
REMARK 924 INTRA-LIGAND FREE ENERGY PREDICTED BY IDOCK:   -0.68 KCAL/MOL
REMARK 927      BINDING AFFINITY PREDICTED BY RF-SCORE:    0.00 PKD
ROOT
HETATM    1  C   UNL     1     -11.306  14.951  66.740  1.00  0.00    -0.328 C  
HETATM    2  O   UNL     1     -11.900  13.884  66.010  1.00  0.00    -0.356 OA 
ENDROOT
BRANCH   2   3
HETATM    3  N   UNL     1     -12.187  12.834  66.894  1.00  0.00    -0.439 NA 
HETATM    4  H   UNL     1     -13.107  12.638  67.289  1.00  0.00     0.000 HD 
BRANCH   3   5
HETATM    5  C   UNL     1     -11.112  12.146  67.137  1.00  0.00    -0.291 C  
HETATM    6  C   UNL     1     -10.374  11.274  66.155  1.00  0.00    -0.251 C  
HETATM    7  N   UNL     1      -9.523  10.448  67.014  1.00  0.00    -0.161 NA 
HETATM    8  C   UNL     1      -9.536  10.929  68.408  1.00  0.00    -0.177 C  
HETATM    9  C   UNL     1     -10.417  12.188  68.471  1.00  0.00    -0.248 C  
BRANCH   7  10
HETATM   10  C   UNL     1      -9.533   9.075  66.788  1.00  0.00    -0.182 A  
HETATM   11  N   UNL     1      -8.698   8.584  65.840  1.00  0.00    -0.165 NA 
HETATM   12  O   UNL     1      -9.018   2.181  65.189  1.00  0.00    -0.118 OA 
HETATM   13  C   UNL     1      -8.663   7.258  65.561  1.00  0.00    -0.024 A  
HETATM   14  C   UNL     1      -9.480   6.360  66.243  1.00  0.00    -0.133 A  
HETATM   15  N   UNL     1      -7.766   6.765  64.572  1.00  0.00    -0.107 NA 
HETATM   16  C   UNL     1      -9.403   4.921  65.924  1.00  0.00    -0.159 C  
HETATM   17  O   UNL     1      -7.468   2.701  63.638  1.00  0.00    -0.059 OA 
HETATM   18  C   UNL     1     -10.325   6.828  67.244  1.00  0.00    -0.311 A  
HETATM   19  F   UNL     1     -11.149   8.630  68.495  1.00  0.00    -0.100 F  
HETATM   20  C   UNL     1      -8.461   4.470  64.875  1.00  0.00    -0.130 C  
HETATM   21  O   UNL     1     -10.101   4.100  66.517  1.00  0.00    -0.203 OA 
HETATM   22  C   UNL     1     -10.343   8.191  67.516  1.00  0.00    -0.261 A  
HETATM   23  C   UNL     1      -8.263   3.059  64.495  1.00  0.00    -0.086 C  
HETATM   24  C   UNL     1      -7.732   5.418  64.273  1.00  0.00    -0.086 C  
BRANCH  15  25
HETATM   25  C   UNL     1      -6.689   7.656  64.103  1.00  0.00    -0.053 C  
HETATM   26  C   UNL     1      -5.336   7.567  64.774  1.00  0.00    -0.029 C  
HETATM   27  C   UNL     1      -5.472   7.211  63.328  1.00  0.00    -0.033 C  
ENDBRANCH  15  25
ENDBRANCH   7  10
BRANCH   9  28
HETATM   28  C   UNL     1     -11.394  12.188  69.644  1.00  0.00    -0.153 C  
HETATM   29  H1  UNL     1     -12.381  13.543  70.868  1.00  0.00     0.000 HD 
HETATM   30  N   UNL     1     -11.729  13.543  70.084  1.00  0.00    -0.492 NA 
HETATM   31  H2  UNL     1     -12.082  14.105  69.310  1.00  0.00     0.000 HD 
ENDBRANCH   9  28
ENDBRANCH   3   5
ENDBRANCH   2   3
TORSDOF 5
ENDMDL
MODEL      126
REMARK 921   NORMALIZED FREE ENERGY PREDICTED BY IDOCK:   -3.60 KCAL/MOL
REMARK 922        TOTAL FREE ENERGY PREDICTED BY IDOCK:   -5.81 KCAL/MOL
REMARK 923 INTER-LIGAND FREE ENERGY PREDICTED BY IDOCK:   -4.77 KCAL/MOL
REMARK 924 INTRA-LIGAND FREE ENERGY PREDICTED BY IDOCK:   -1.04 KCAL/MOL
REMARK 927      BINDING AFFINITY PREDICTED BY RF-SCORE:    0.00 PKD
ROOT
HETATM    1  C   UNL     1      -8.778  15.060  67.491  1.00  0.00    -0.184 C  
HETATM    2  O   UNL     1      -8.967  13.968  68.382  1.00  0.00    -0.188 OA 
ENDROOT
BRANCH   2   3
HETATM    3  N   UNL     1      -9.119  12.792  67.633  1.00  0.00    -0.184 NA 
HETATM    4  H   UNL     1      -9.007  12.725  66.621  1.00  0.00     0.000 HD 
BRANCH   3   5
HETATM    5  C   UNL     1      -9.424  11.800  68.415  1.00  0.00    -0.188 C  
HETATM    6  C   UNL     1      -8.562  10.599  68.704  1.00  0.00    -0.144 C  
HETATM    7  N   UNL     1      -9.505   9.642  69.286  1.00  0.00    -0.169 NA 
HETATM    8  C   UNL     1     -10.806  10.275  69.574  1.00  0.00    -0.256 C  
HETATM    9  C   UNL     1     -10.705  11.764  69.203  1.00  0.00    -0.169 C  
BRANCH   7  10
HETATM   10  C   UNL     1      -9.498   8.348  68.771  1.00  0.00    -0.147 A  
HETATM   11  N   UNL     1      -9.133   8.186  67.476  1.00  0.00    -0.137 NA 
HETATM   12  O   UNL     1      -9.170   2.038  65.542  1.00  0.00    -0.113 OA 
HETATM   13  C   UNL     1      -9.115   6.955  66.907  1.00  0.00    -0.139 A  
HETATM   14  C   UNL     1      -9.465   5.822  67.637  1.00  0.00    -0.114 A  
HETATM   15  N   UNL     1      -8.713   6.809  65.550  1.00  0.00    -0.088 NA 
HETATM   16  C   UNL     1      -9.417   4.498  66.988  1.00  0.00    -0.169 C  
HETATM   17  O   UNL     1      -8.520   3.086  63.656  1.00  0.00    -0.086 OA 
HETATM   18  C   UNL     1      -9.814   5.952  68.977  1.00  0.00    -0.193 A  
HETATM   19  F   UNL     1     -10.145   7.334  70.840  1.00  0.00    -0.188 F  
HETATM   20  C   UNL     1      -9.005   4.410  65.569  1.00  0.00    -0.135 C  
HETATM   21  O   UNL     1      -9.708   3.476  67.608  1.00  0.00    -0.173 OA 
HETATM   22  C   UNL     1      -9.823   7.222  69.542  1.00  0.00    -0.163 A  
HETATM   23  C   UNL     1      -8.878   3.144  64.824  1.00  0.00    -0.118 C  
HETATM   24  C   UNL     1      -8.702   5.562  64.958  1.00  0.00    -0.094 C  
BRANCH  15  25
HETATM   25  C   UNL     1      -8.035   7.945  64.898  1.00  0.00    -0.138 C  
HETATM   26  C   UNL     1      -7.509   7.759  63.491  1.00  0.00    -0.115 C  
HETATM   27  C   UNL     1      -8.600   8.750  63.752  1.00  0.00    -0.061 C  
ENDBRANCH  15  25
ENDBRANCH   7  10
BRANCH   9  28
HETATM   28  C   UNL     1     -11.902  12.272  68.404  1.00  0.00    -0.304 C  
HETATM   29  H1  UNL     1     -12.634  12.218  66.462  1.00  0.00     0.000 HD 
HETATM   30  N   UNL     1     -11.835  11.878  66.996  1.00  0.00    -0.613 NA 
HETATM   31  H2  UNL     1     -11.730  10.867  66.901  1.00  0.00     0.000 HD 
ENDBRANCH   9  28
ENDBRANCH   3   5
ENDBRANCH   2   3
TORSDOF 5
ENDMDL
MODEL      127
REMARK 921   NORMALIZED FREE ENERGY PREDICTED BY IDOCK:   -3.57 KCAL/MOL
REMARK 922        TOTAL FREE ENERGY PREDICTED BY IDOCK:   -5.77 KCAL/MOL
REMARK 923 INTER-LIGAND FREE ENERGY PREDICTED BY IDOCK:   -4.70 KCAL/MOL
REMARK 924 INTRA-LIGAND FREE ENERGY PREDICTED BY IDOCK:   -1.07 KCAL/MOL
REMARK 927      BINDING AFFINITY PREDICTED BY RF-SCORE:    0.00 PKD
ROOT
HETATM    1  C   UNL     1      -8.197   7.811  73.993  1.00  0.00    -0.220 C  
HETATM    2  O   UNL     1      -9.590   7.604  73.797  1.00  0.00    -0.285 OA 
ENDROOT
BRANCH   2   3
HETATM    3  N   UNL     1      -9.979   8.229  72.604  1.00  0.00    -0.291 NA 
HETATM    4  H   UNL     1      -9.998   9.238  72.452  1.00  0.00     0.000 HD 
BRANCH   3   5
HETATM    5  C   UNL     1     -10.313   7.338  71.720  1.00  0.00    -0.196 C  
HETATM    6  C   UNL     1      -9.387   6.348  71.063  1.00  0.00    -0.164 C  
HETATM    7  N   UNL     1     -10.156   5.885  69.906  1.00  0.00    -0.183 NA 
HETATM    8  C   UNL     1     -11.552   6.357  69.965  1.00  0.00    -0.377 C  
HETATM    9  C   UNL     1     -11.736   7.145  71.272  1.00  0.00    -0.342 C  
BRANCH   7  10
HETATM   10  C   UNL     1      -9.511   5.882  68.672  1.00  0.00    -0.122 A  
HETATM   11  N   UNL     1      -9.451   7.050  67.988  1.00  0.00    -0.126 NA 
HETATM   12  O   UNL     1      -6.311   6.592  62.379  1.00  0.00    -0.034 OA 
HETATM   13  C   UNL     1      -8.847   7.118  66.776  1.00  0.00    -0.130 A  
HETATM   14  C   UNL     1      -8.266   5.990  66.201  1.00  0.00    -0.121 A  
HETATM   15  N   UNL     1      -8.784   8.359  66.084  1.00  0.00    -0.142 NA 
HETATM   16  C   UNL     1      -7.604   6.105  64.887  1.00  0.00    -0.090 C  
HETATM   17  O   UNL     1      -6.894   8.768  62.377  1.00  0.00    -0.095 OA 
HETATM   18  C   UNL     1      -8.283   4.783  66.892  1.00  0.00    -0.107 A  
HETATM   19  F   UNL     1      -8.900   3.572  68.801  1.00  0.00    -0.104 F  
HETATM   20  C   UNL     1      -7.582   7.420  64.209  1.00  0.00    -0.112 C  
HETATM   21  O   UNL     1      -7.069   5.132  64.358  1.00  0.00    -0.048 OA 
HETATM   22  C   UNL     1      -8.904   4.737  68.135  1.00  0.00    -0.104 A  
HETATM   23  C   UNL     1      -6.917   7.672  62.917  1.00  0.00    -0.073 C  
HETATM   24  C   UNL     1      -8.182   8.435  64.844  1.00  0.00    -0.153 C  
BRANCH  15  25
HETATM   25  C   UNL     1      -9.096   9.591  66.833  1.00  0.00    -0.135 C  
HETATM   26  C   UNL     1      -8.025  10.653  66.951  1.00  0.00    -0.124 C  
HETATM   27  C   UNL     1      -9.293  10.954  66.216  1.00  0.00    -0.203 C  
ENDBRANCH  15  25
ENDBRANCH   7  10
BRANCH   9  28
HETATM   28  C   UNL     1     -12.479   8.465  71.086  1.00  0.00    -0.173 C  
HETATM   29  H1  UNL     1     -12.250  10.271  70.088  1.00  0.00     0.000 HD 
HETATM   30  N   UNL     1     -11.754   9.388  70.212  1.00  0.00    -0.450 NA 
HETATM   31  H2  UNL     1     -11.541   8.955  69.314  1.00  0.00     0.000 HD 
ENDBRANCH   9  28
ENDBRANCH   3   5
ENDBRANCH   2   3
TORSDOF 5
ENDMDL
MODEL      128
REMARK 921   NORMALIZED FREE ENERGY PREDICTED BY IDOCK:   -3.50 KCAL/MOL
REMARK 922        TOTAL FREE ENERGY PREDICTED BY IDOCK:   -5.68 KCAL/MOL
REMARK 923 INTER-LIGAND FREE ENERGY PREDICTED BY IDOCK:   -5.06 KCAL/MOL
REMARK 924 INTRA-LIGAND FREE ENERGY PREDICTED BY IDOCK:   -0.63 KCAL/MOL
REMARK 927      BINDING AFFINITY PREDICTED BY RF-SCORE:    0.00 PKD
ROOT
HETATM    1  C   UNL     1     -12.765  13.854  63.804  1.00  0.00     0.295 C  
HETATM    2  O   UNL     1     -13.331  13.672  65.096  1.00  0.00    -0.677 OA 
ENDROOT
BRANCH   2   3
HETATM    3  N   UNL     1     -12.363  13.980  66.063  1.00  0.00    -0.469 NA 
HETATM    4  H   UNL     1     -12.435  14.740  66.739  1.00  0.00     0.000 HD 
BRANCH   3   5
HETATM    5  C   UNL     1     -11.362  13.156  65.973  1.00  0.00    -0.308 C  
HETATM    6  C   UNL     1     -11.424  11.660  66.135  1.00  0.00    -0.127 C  
HETATM    7  N   UNL     1     -10.024  11.286  66.340  1.00  0.00    -0.208 NA 
HETATM    8  C   UNL     1      -9.120  12.421  66.079  1.00  0.00     0.030 C  
HETATM    9  C   UNL     1      -9.973  13.617  65.623  1.00  0.00    -0.261 C  
BRANCH   7  10
HETATM   10  C   UNL     1      -9.739  10.448  67.414  1.00  0.00    -0.163 A  
HETATM   11  N   UNL     1      -9.754   9.110  67.193  1.00  0.00    -0.170 NA 
HETATM   12  O   UNL     1      -8.302   5.619  72.412  1.00  0.00    -0.114 OA 
HETATM   13  C   UNL     1      -9.496   8.235  68.196  1.00  0.00    -0.137 A  
HETATM   14  C   UNL     1      -9.203   8.684  69.481  1.00  0.00    -0.150 A  
HETATM   15  N   UNL     1      -9.502   6.836  67.935  1.00  0.00    -0.119 NA 
HETATM   16  C   UNL     1      -8.911   7.702  70.544  1.00  0.00    -0.151 C  
HETATM   17  O   UNL     1      -8.652   3.999  70.885  1.00  0.00    -0.073 OA 
HETATM   18  C   UNL     1      -9.149  10.051  69.733  1.00  0.00    -0.219 A  
HETATM   19  F   UNL     1      -9.342  12.247  68.939  1.00  0.00    -0.096 F  
HETATM   20  C   UNL     1      -8.947   6.260  70.215  1.00  0.00    -0.154 C  
HETATM   21  O   UNL     1      -8.636   8.066  71.686  1.00  0.00    -0.112 OA 
HETATM   22  C   UNL     1      -9.413  10.930  68.690  1.00  0.00    -0.190 A  
HETATM   23  C   UNL     1      -8.634   5.187  71.177  1.00  0.00    -0.122 C  
HETATM   24  C   UNL     1      -9.253   5.938  68.952  1.00  0.00    -0.119 C  
BRANCH  15  25
HETATM   25  C   UNL     1      -9.481   6.390  66.529  1.00  0.00    -0.156 C  
HETATM   26  C   UNL     1      -8.149   6.028  65.908  1.00  0.00    -0.119 C  
HETATM   27  C   UNL     1      -9.202   4.978  66.072  1.00  0.00    -0.154 C  
ENDBRANCH  15  25
ENDBRANCH   7  10
BRANCH   9  28
HETATM   28  C   UNL     1      -9.597  14.928  66.310  1.00  0.00    -0.307 C  
HETATM   29  H1  UNL     1      -9.804  16.972  66.016  1.00  0.00     0.000 HD 
HETATM   30  N   UNL     1     -10.055  16.096  65.558  1.00  0.00    -0.503 NA 
HETATM   31  H2  UNL     1     -11.058  16.049  65.376  1.00  0.00     0.000 HD 
ENDBRANCH   9  28
ENDBRANCH   3   5
ENDBRANCH   2   3
TORSDOF 5
ENDMDL
MODEL      129
REMARK 921   NORMALIZED FREE ENERGY PREDICTED BY IDOCK:   -3.49 KCAL/MOL
REMARK 922        TOTAL FREE ENERGY PREDICTED BY IDOCK:   -5.67 KCAL/MOL
REMARK 923 INTER-LIGAND FREE ENERGY PREDICTED BY IDOCK:   -4.98 KCAL/MOL
REMARK 924 INTRA-LIGAND FREE ENERGY PREDICTED BY IDOCK:   -0.69 KCAL/MOL
REMARK 927      BINDING AFFINITY PREDICTED BY RF-SCORE:    0.00 PKD
ROOT
HETATM    1  C   UNL     1      -7.237  18.392  65.720  1.00  0.00    -0.187 C  
HETATM    2  O   UNL     1      -7.766  17.582  66.762  1.00  0.00    -0.198 OA 
ENDROOT
BRANCH   2   3
HETATM    3  N   UNL     1      -7.837  16.255  66.314  1.00  0.00    -0.216 NA 
HETATM    4  H   UNL     1      -7.585  15.941  65.376  1.00  0.00     0.000 HD 
BRANCH   3   5
HETATM    5  C   UNL     1      -8.269  15.483  67.265  1.00  0.00    -0.197 C  
HETATM    6  C   UNL     1      -7.670  14.166  67.684  1.00  0.00    -0.174 C  
HETATM    7  N   UNL     1      -8.735  13.550  68.478  1.00  0.00    -0.130 NA 
HETATM    8  C   UNL     1      -9.825  14.506  68.750  1.00  0.00    -0.220 C  
HETATM    9  C   UNL     1      -9.437  15.861  68.136  1.00  0.00    -0.203 C  
BRANCH   7  10
HETATM   10  C   UNL     1      -9.070  12.232  68.181  1.00  0.00    -0.196 A  
HETATM   11  N   UNL     1      -8.467  11.251  68.896  1.00  0.00    -0.107 NA 
HETATM   12  O   UNL     1     -10.371   5.320  67.245  1.00  0.00    -0.206 OA 
HETATM   13  C   UNL     1      -8.738   9.945  68.653  1.00  0.00    -0.124 A  
HETATM   14  C   UNL     1      -9.648   9.573  67.666  1.00  0.00    -0.163 A  
HETATM   15  N   UNL     1      -8.103   8.934  69.427  1.00  0.00    -0.102 NA 
HETATM   16  C   UNL     1      -9.929   8.142  67.441  1.00  0.00    -0.209 C  
HETATM   17  O   UNL     1      -8.879   4.863  68.869  1.00  0.00    -0.091 OA 
HETATM   18  C   UNL     1     -10.307  10.557  66.937  1.00  0.00    -0.293 A  
HETATM   19  F   UNL     1     -10.670  12.832  66.507  1.00  0.00    -0.256 F  
HETATM   20  C   UNL     1      -9.227   7.136  68.268  1.00  0.00    -0.132 C  
HETATM   21  O   UNL     1     -10.737   7.781  66.586  1.00  0.00    -0.231 OA 
HETATM   22  C   UNL     1     -10.016  11.890  67.205  1.00  0.00    -0.194 A  
HETATM   23  C   UNL     1      -9.454   5.682  68.167  1.00  0.00    -0.110 C  
HETATM   24  C   UNL     1      -8.364   7.601  69.179  1.00  0.00    -0.131 C  
BRANCH  15  25
HETATM   25  C   UNL     1      -7.414   9.336  70.667  1.00  0.00    -0.136 C  
HETATM   26  C   UNL     1      -7.239   8.306  71.761  1.00  0.00    -0.095 C  
HETATM   27  C   UNL     1      -6.036   8.877  71.080  1.00  0.00    -0.053 C  
ENDBRANCH  15  25
ENDBRANCH   7  10
BRANCH   9  28
HETATM   28  C   UNL     1     -10.569  16.519  67.351  1.00  0.00    -0.300 C  
HETATM   29  H1  UNL     1     -11.364  16.509  65.434  1.00  0.00     0.000 HD 
HETATM   30  N   UNL     1     -10.609  16.070  65.959  1.00  0.00    -0.328 NA 
HETATM   31  H2  UNL     1     -10.661  15.052  65.901  1.00  0.00     0.000 HD 
ENDBRANCH   9  28
ENDBRANCH   3   5
ENDBRANCH   2   3
TORSDOF 5
ENDMDL
MODEL      130
REMARK 921   NORMALIZED FREE ENERGY PREDICTED BY IDOCK:   -3.45 KCAL/MOL
REMARK 922        TOTAL FREE ENERGY PREDICTED BY IDOCK:   -5.62 KCAL/MOL
REMARK 923 INTER-LIGAND FREE ENERGY PREDICTED BY IDOCK:   -4.90 KCAL/MOL
REMARK 924 INTRA-LIGAND FREE ENERGY PREDICTED BY IDOCK:   -0.72 KCAL/MOL
REMARK 927      BINDING AFFINITY PREDICTED BY RF-SCORE:    0.00 PKD
ROOT
HETATM    1  C   UNL     1     -11.376  16.212  64.636  1.00  0.00    -0.282 C  
HETATM    2  O   UNL     1     -10.588  15.589  65.642  1.00  0.00    -0.327 OA 
ENDROOT
BRANCH   2   3
HETATM    3  N   UNL     1      -9.847  16.573  66.312  1.00  0.00    -0.297 NA 
HETATM    4  H   UNL     1      -9.854  17.567  66.083  1.00  0.00     0.000 HD 
BRANCH   3   5
HETATM    5  C   UNL     1      -9.150  16.035  67.268  1.00  0.00    -0.204 C  
HETATM    6  C   UNL     1      -8.035  15.036  67.102  1.00  0.00    -0.206 C  
HETATM    7  N   UNL     1      -7.882  14.476  68.446  1.00  0.00    -0.127 NA 
HETATM    8  C   UNL     1      -8.666  15.236  69.438  1.00  0.00    -0.216 C  
HETATM    9  C   UNL     1      -9.346  16.409  68.712  1.00  0.00    -0.245 C  
BRANCH   7  10
HETATM   10  C   UNL     1      -7.844  13.089  68.557  1.00  0.00    -0.105 A  
HETATM   11  N   UNL     1      -8.708  12.370  67.799  1.00  0.00    -0.166 NA 
HETATM   12  O   UNL     1      -8.126   5.998  68.570  1.00  0.00    -0.105 OA 
HETATM   13  C   UNL     1      -8.732  11.016  67.865  1.00  0.00    -0.133 A  
HETATM   14  C   UNL     1      -7.866  10.323  68.707  1.00  0.00    -0.106 A  
HETATM   15  N   UNL     1      -9.639  10.284  67.048  1.00  0.00    -0.167 NA 
HETATM   16  C   UNL     1      -7.911   8.849  68.740  1.00  0.00    -0.101 C  
HETATM   17  O   UNL     1      -9.796   6.106  67.061  1.00  0.00    -0.132 OA 
HETATM   18  C   UNL     1      -6.946  11.030  69.474  1.00  0.00    -0.126 A  
HETATM   19  F   UNL     1      -6.032  13.089  70.120  1.00  0.00    -0.119 F  
HETATM   20  C   UNL     1      -8.885   8.143  67.878  1.00  0.00    -0.131 C  
HETATM   21  O   UNL     1      -7.150   8.206  69.463  1.00  0.00    -0.049 OA 
HETATM   22  C   UNL     1      -6.936  12.418  69.389  1.00  0.00     0.084 A  
HETATM   23  C   UNL     1      -8.997   6.675  67.791  1.00  0.00    -0.112 C  
HETATM   24  C   UNL     1      -9.679   8.906  67.117  1.00  0.00    -0.184 C  
BRANCH  15  25
HETATM   25  C   UNL     1     -10.302  10.990  65.937  1.00  0.00    -0.257 C  
HETATM   26  C   UNL     1      -9.440  11.712  64.924  1.00  0.00    -0.104 C  
HETATM   27  C   UNL     1     -10.278  10.550  64.492  1.00  0.00    -0.355 C  
ENDBRANCH  15  25
ENDBRANCH   7  10
BRANCH   9  28
HETATM   28  C   UNL     1     -10.817  16.581  69.081  1.00  0.00    -0.334 C  
HETATM   29  H1  UNL     1     -12.500  15.413  69.416  1.00  0.00     0.000 HD 
HETATM   30  N   UNL     1     -11.518  15.299  69.170  1.00  0.00    -0.295 NA 
HETATM   31  H2  UNL     1     -11.046  14.665  69.815  1.00  0.00     0.000 HD 
ENDBRANCH   9  28
ENDBRANCH   3   5
ENDBRANCH   2   3
TORSDOF 5
ENDMDL
MODEL      131
REMARK 921   NORMALIZED FREE ENERGY PREDICTED BY IDOCK:   -3.40 KCAL/MOL
REMARK 922        TOTAL FREE ENERGY PREDICTED BY IDOCK:   -5.56 KCAL/MOL
REMARK 923 INTER-LIGAND FREE ENERGY PREDICTED BY IDOCK:   -5.30 KCAL/MOL
REMARK 924 INTRA-LIGAND FREE ENERGY PREDICTED BY IDOCK:   -0.25 KCAL/MOL
REMARK 927      BINDING AFFINITY PREDICTED BY RF-SCORE:    0.00 PKD
ROOT
HETATM    1  C   UNL     1     -11.911  13.564  63.664  1.00  0.00    -0.385 C  
HETATM    2  O   UNL     1     -11.226  13.835  64.880  1.00  0.00    -0.322 OA 
ENDROOT
BRANCH   2   3
HETATM    3  N   UNL     1     -10.065  13.050  64.932  1.00  0.00    -0.499 NA 
HETATM    4  H   UNL     1      -9.133  13.368  64.669  1.00  0.00     0.000 HD 
BRANCH   3   5
HETATM    5  C   UNL     1     -10.349  11.858  65.365  1.00  0.00    -0.267 C  
HETATM    6  C   UNL     1     -11.137  11.527  66.606  1.00  0.00    -0.295 C  
HETATM    7  N   UNL     1     -10.822  10.117  66.838  1.00  0.00    -0.161 NA 
HETATM    8  C   UNL     1     -10.092   9.533  65.696  1.00  0.00    -0.087 C  
HETATM    9  C   UNL     1      -9.956  10.616  64.613  1.00  0.00    -0.401 C  
BRANCH   7  10
HETATM   10  C   UNL     1     -10.434   9.754  68.125  1.00  0.00    -0.216 A  
HETATM   11  N   UNL     1      -9.354   8.946  68.255  1.00  0.00    -0.142 NA 
HETATM   12  O   UNL     1      -7.872   7.591  74.378  1.00  0.00    -0.141 OA 
HETATM   13  C   UNL     1      -8.927   8.545  69.478  1.00  0.00    -0.149 A  
HETATM   14  C   UNL     1      -9.581   8.956  70.636  1.00  0.00    -0.262 A  
HETATM   15  N   UNL     1      -7.781   7.709  69.588  1.00  0.00    -0.097 NA 
HETATM   16  C   UNL     1      -9.078   8.512  71.950  1.00  0.00    -0.244 C  
HETATM   17  O   UNL     1      -6.277   6.441  73.278  1.00  0.00    -0.061 OA 
HETATM   18  C   UNL     1     -10.674   9.810  70.538  1.00  0.00    -0.381 A  
HETATM   19  F   UNL     1     -12.138  11.051  69.192  1.00  0.00    -0.356 F  
HETATM   20  C   UNL     1      -7.890   7.631  72.001  1.00  0.00    -0.106 C  
HETATM   21  O   UNL     1      -9.626   8.867  72.993  1.00  0.00     0.014 OA 
HETATM   22  C   UNL     1     -11.093  10.212  69.275  1.00  0.00    -0.225 A  
HETATM   23  C   UNL     1      -7.269   7.156  73.252  1.00  0.00    -0.072 C  
HETATM   24  C   UNL     1      -7.346   7.286  70.828  1.00  0.00    -0.071 C  
BRANCH  15  25
HETATM   25  C   UNL     1      -6.912   7.558  68.407  1.00  0.00    -0.079 C  
HETATM   26  C   UNL     1      -6.296   8.800  67.800  1.00  0.00    -0.057 C  
HETATM   27  C   UNL     1      -5.414   7.751  68.401  1.00  0.00    -0.028 C  
ENDBRANCH  15  25
ENDBRANCH   7  10
BRANCH   9  28
HETATM   28  C   UNL     1      -8.553  10.707  64.018  1.00  0.00    -0.098 C  
HETATM   29  H1  UNL     1      -6.873   9.515  63.763  1.00  0.00     0.000 HD 
HETATM   30  N   UNL     1      -7.811   9.454  64.159  1.00  0.00    -0.118 NA 
HETATM   31  H2  UNL     1      -8.330   8.671  63.762  1.00  0.00     0.000 HD 
ENDBRANCH   9  28
ENDBRANCH   3   5
ENDBRANCH   2   3
TORSDOF 5
ENDMDL
MODEL      132
REMARK 921   NORMALIZED FREE ENERGY PREDICTED BY IDOCK:   -3.40 KCAL/MOL
REMARK 922        TOTAL FREE ENERGY PREDICTED BY IDOCK:   -5.55 KCAL/MOL
REMARK 923 INTER-LIGAND FREE ENERGY PREDICTED BY IDOCK:   -5.13 KCAL/MOL
REMARK 924 INTRA-LIGAND FREE ENERGY PREDICTED BY IDOCK:   -0.42 KCAL/MOL
REMARK 927      BINDING AFFINITY PREDICTED BY RF-SCORE:    0.00 PKD
ROOT
HETATM    1  C   UNL     1     -14.073   7.846  71.421  1.00  0.00    -0.331 C  
HETATM    2  O   UNL     1     -13.006   6.906  71.419  1.00  0.00    -0.355 OA 
ENDROOT
BRANCH   2   3
HETATM    3  N   UNL     1     -12.524   6.768  70.109  1.00  0.00    -0.457 NA 
HETATM    4  H   UNL     1     -13.109   6.660  69.280  1.00  0.00     0.000 HD 
BRANCH   3   5
HETATM    5  C   UNL     1     -11.225   6.796  70.104  1.00  0.00    -0.335 C  
HETATM    6  C   UNL     1     -10.352   7.690  70.946  1.00  0.00    -0.201 C  
HETATM    7  N   UNL     1      -9.051   7.612  70.281  1.00  0.00    -0.149 NA 
HETATM    8  C   UNL     1      -9.036   6.558  69.249  1.00  0.00    -0.137 C  
HETATM    9  C   UNL     1     -10.405   5.857  69.262  1.00  0.00    -0.312 C  
BRANCH   7  10
HETATM   10  C   UNL     1      -8.401   8.812  70.009  1.00  0.00    -0.127 A  
HETATM   11  N   UNL     1      -9.108   9.785  69.382  1.00  0.00    -0.187 NA 
HETATM   12  O   UNL     1      -5.739  15.190  68.398  1.00  0.00    -0.095 OA 
HETATM   13  C   UNL     1      -8.535  10.975  69.077  1.00  0.00    -0.076 A  
HETATM   14  C   UNL     1      -7.207  11.237  69.404  1.00  0.00    -0.063 A  
HETATM   15  N   UNL     1      -9.303  11.985  68.432  1.00  0.00    -0.197 NA 
HETATM   16  C   UNL     1      -6.623  12.550  69.070  1.00  0.00    -0.100 C  
HETATM   17  O   UNL     1      -7.726  15.741  67.489  1.00  0.00    -0.135 OA 
HETATM   18  C   UNL     1      -6.465  10.272  70.076  1.00  0.00    -0.116 A  
HETATM   19  F   UNL     1      -6.352   8.141  71.046  1.00  0.00    -0.036 F  
HETATM   20  C   UNL     1      -7.466  13.556  68.386  1.00  0.00    -0.124 C  
HETATM   21  O   UNL     1      -5.457  12.818  69.357  1.00  0.00    -0.074 OA 
HETATM   22  C   UNL     1      -7.072   9.059  70.382  1.00  0.00    -0.065 A  
HETATM   23  C   UNL     1      -7.012  14.915  68.039  1.00  0.00    -0.140 C  
HETATM   24  C   UNL     1      -8.725  13.196  68.107  1.00  0.00    -0.193 C  
BRANCH  15  25
HETATM   25  C   UNL     1     -10.769  11.829  68.394  1.00  0.00    -0.219 C  
HETATM   26  C   UNL     1     -11.452  11.766  67.046  1.00  0.00    -0.368 C  
HETATM   27  C   UNL     1     -11.496  10.580  67.957  1.00  0.00    -0.230 C  
ENDBRANCH  15  25
ENDBRANCH   7  10
BRANCH   9  28
HETATM   28  C   UNL     1     -10.994   5.649  67.869  1.00  0.00     0.081 C  
HETATM   29  H1  UNL     1     -10.949   6.538  65.994  1.00  0.00     0.000 HD 
HETATM   30  N   UNL     1     -10.556   6.677  66.924  1.00  0.00    -0.390 NA 
HETATM   31  H2  UNL     1      -9.538   6.736  66.890  1.00  0.00     0.000 HD 
ENDBRANCH   9  28
ENDBRANCH   3   5
ENDBRANCH   2   3
TORSDOF 5
ENDMDL
MODEL      133
REMARK 921   NORMALIZED FREE ENERGY PREDICTED BY IDOCK:   -3.37 KCAL/MOL
REMARK 922        TOTAL FREE ENERGY PREDICTED BY IDOCK:   -5.51 KCAL/MOL
REMARK 923 INTER-LIGAND FREE ENERGY PREDICTED BY IDOCK:   -5.26 KCAL/MOL
REMARK 924 INTRA-LIGAND FREE ENERGY PREDICTED BY IDOCK:   -0.25 KCAL/MOL
REMARK 927      BINDING AFFINITY PREDICTED BY RF-SCORE:    0.00 PKD
ROOT
HETATM    1  C   UNL     1      -9.681   3.793  70.590  1.00  0.00    -0.165 C  
HETATM    2  O   UNL     1     -10.064   5.064  71.099  1.00  0.00    -0.204 OA 
ENDROOT
BRANCH   2   3
HETATM    3  N   UNL     1      -9.132   5.467  72.066  1.00  0.00    -0.137 NA 
HETATM    4  H   UNL     1      -8.849   4.909  72.872  1.00  0.00     0.000 HD 
BRANCH   3   5
HETATM    5  C   UNL     1      -8.682   6.653  71.787  1.00  0.00    -0.129 C  
HETATM    6  C   UNL     1      -9.472   7.935  71.820  1.00  0.00    -0.158 C  
HETATM    7  N   UNL     1      -8.636   8.864  71.058  1.00  0.00    -0.190 NA 
HETATM    8  C   UNL     1      -7.307   8.288  70.778  1.00  0.00    -0.056 C  
HETATM    9  C   UNL     1      -7.239   6.902  71.441  1.00  0.00    -0.080 C  
BRANCH   7  10
HETATM   10  C   UNL     1      -9.258   9.607  70.058  1.00  0.00    -0.241 A  
HETATM   11  N   UNL     1      -8.595  10.680  69.563  1.00  0.00    -0.041 NA 
HETATM   12  O   UNL     1     -11.804  13.770  64.907  1.00  0.00    -0.344 OA 
HETATM   13  C   UNL     1      -9.145  11.454  68.595  1.00  0.00    -0.135 A  
HETATM   14  C   UNL     1     -10.405  11.166  68.078  1.00  0.00    -0.208 A  
HETATM   15  N   UNL     1      -8.421  12.566  68.081  1.00  0.00    -0.175 NA 
HETATM   16  C   UNL     1     -10.965  12.022  67.014  1.00  0.00    -0.274 C  
HETATM   17  O   UNL     1      -9.929  15.012  65.044  1.00  0.00    -0.307 OA 
HETATM   18  C   UNL     1     -11.099  10.054  68.542  1.00  0.00    -0.219 A  
HETATM   19  F   UNL     1     -11.185   8.191  69.962  1.00  0.00    -0.255 F  
HETATM   20  C   UNL     1     -10.172  13.173  66.529  1.00  0.00    -0.277 C  
HETATM   21  O   UNL     1     -12.071  11.788  66.526  1.00  0.00    -0.498 OA 
HETATM   22  C   UNL     1     -10.515   9.272  69.532  1.00  0.00    -0.220 A  
HETATM   23  C   UNL     1     -10.604  14.074  65.445  1.00  0.00    -0.341 C  
HETATM   24  C   UNL     1      -8.979  13.366  67.104  1.00  0.00    -0.226 C  
BRANCH  15  25
HETATM   25  C   UNL     1      -6.982  12.662  68.386  1.00  0.00    -0.094 C  
HETATM   26  C   UNL     1      -5.999  12.010  67.439  1.00  0.00    -0.130 C  
HETATM   27  C   UNL     1      -5.986  13.496  67.616  1.00  0.00    -0.100 C  
ENDBRANCH  15  25
ENDBRANCH   7  10
BRANCH   9  28
HETATM   28  C   UNL     1      -6.657   5.822  70.531  1.00  0.00    -0.044 C  
HETATM   29  H1  UNL     1      -4.854   5.332  69.627  1.00  0.00     0.000 HD 
HETATM   30  N   UNL     1      -5.243   6.053  70.235  1.00  0.00    -0.012 NA 
HETATM   31  H2  UNL     1      -4.697   6.148  71.092  1.00  0.00     0.000 HD 
ENDBRANCH   9  28
ENDBRANCH   3   5
ENDBRANCH   2   3
TORSDOF 5
ENDMDL
MODEL      134
REMARK 921   NORMALIZED FREE ENERGY PREDICTED BY IDOCK:   -3.27 KCAL/MOL
REMARK 922        TOTAL FREE ENERGY PREDICTED BY IDOCK:   -5.39 KCAL/MOL
REMARK 923 INTER-LIGAND FREE ENERGY PREDICTED BY IDOCK:   -5.27 KCAL/MOL
REMARK 924 INTRA-LIGAND FREE ENERGY PREDICTED BY IDOCK:   -0.12 KCAL/MOL
REMARK 927      BINDING AFFINITY PREDICTED BY RF-SCORE:    0.00 PKD
ROOT
HETATM    1  C   UNL     1      -6.236   4.232  63.436  1.00  0.00    -0.018 C  
HETATM    2  O   UNL     1      -6.738   5.188  64.362  1.00  0.00    -0.044 OA 
ENDROOT
BRANCH   2   3
HETATM    3  N   UNL     1      -7.766   4.599  65.111  1.00  0.00    -0.084 NA 
HETATM    4  H   UNL     1      -8.541   4.064  64.720  1.00  0.00     0.000 HD 
BRANCH   3   5
HETATM    5  C   UNL     1      -7.589   4.834  66.377  1.00  0.00    -0.087 C  
HETATM    6  C   UNL     1      -8.415   4.281  67.508  1.00  0.00    -0.099 C  
HETATM    7  N   UNL     1      -8.066   5.148  68.635  1.00  0.00    -0.086 NA 
HETATM    8  C   UNL     1      -6.923   6.021  68.307  1.00  0.00    -0.076 C  
HETATM    9  C   UNL     1      -6.452   5.678  66.885  1.00  0.00    -0.047 C  
BRANCH   7  10
HETATM   10  C   UNL     1      -9.115   5.682  69.377  1.00  0.00    -0.117 A  
HETATM   11  N   UNL     1      -9.339   7.015  69.284  1.00  0.00    -0.146 NA 
HETATM   12  O   UNL     1     -14.334   9.040  72.817  1.00  0.00    -0.596 OA 
HETATM   13  C   UNL     1     -10.338   7.605  69.987  1.00  0.00    -0.223 A  
HETATM   14  C   UNL     1     -11.165   6.857  70.821  1.00  0.00    -0.338 A  
HETATM   15  N   UNL     1     -10.563   9.004  69.860  1.00  0.00    -0.223 NA 
HETATM   16  C   UNL     1     -12.252   7.531  71.558  1.00  0.00    -0.331 C  
HETATM   17  O   UNL     1     -13.642  10.973  71.889  1.00  0.00    -0.242 OA 
HETATM   18  C   UNL     1     -10.981   5.482  70.914  1.00  0.00    -0.194 A  
HETATM   19  F   UNL     1      -9.795   3.567  70.266  1.00  0.00    -0.255 F  
HETATM   20  C   UNL     1     -12.428   8.991  71.397  1.00  0.00    -0.378 C  
HETATM   21  O   UNL     1     -13.008   6.897  72.293  1.00  0.00    -0.077 OA 
HETATM   22  C   UNL     1      -9.953   4.897  70.182  1.00  0.00    -0.255 A  
HETATM   23  C   UNL     1     -13.500   9.769  72.046  1.00  0.00    -0.407 C  
HETATM   24  C   UNL     1     -11.569   9.614  70.581  1.00  0.00    -0.299 C  
BRANCH  15  25
HETATM   25  C   UNL     1      -9.915   9.715  68.743  1.00  0.00    -0.173 C  
HETATM   26  C   UNL     1     -10.212  11.187  68.556  1.00  0.00    -0.209 C  
HETATM   27  C   UNL     1      -8.822  10.747  68.890  1.00  0.00    -0.154 C  
ENDBRANCH  15  25
ENDBRANCH   7  10
BRANCH   9  28
HETATM   28  C   UNL     1      -6.198   6.908  66.016  1.00  0.00    -0.039 C  
HETATM   29  H1  UNL     1      -7.148   8.670  65.469  1.00  0.00     0.000 HD 
HETATM   30  N   UNL     1      -7.318   7.849  66.050  1.00  0.00    -0.073 NA 
HETATM   31  H2  UNL     1      -7.548   8.114  67.007  1.00  0.00     0.000 HD 
ENDBRANCH   9  28
ENDBRANCH   3   5
ENDBRANCH   2   3
TORSDOF 5
ENDMDL
MODEL      135
REMARK 921   NORMALIZED FREE ENERGY PREDICTED BY IDOCK:   -3.20 KCAL/MOL
REMARK 922        TOTAL FREE ENERGY PREDICTED BY IDOCK:   -5.29 KCAL/MOL
REMARK 923 INTER-LIGAND FREE ENERGY PREDICTED BY IDOCK:   -4.62 KCAL/MOL
REMARK 924 INTRA-LIGAND FREE ENERGY PREDICTED BY IDOCK:   -0.67 KCAL/MOL
REMARK 927      BINDING AFFINITY PREDICTED BY RF-SCORE:    0.00 PKD
ROOT
HETATM    1  C   UNL     1     -11.121   6.087  72.222  1.00  0.00    -0.278 C  
HETATM    2  O   UNL     1     -10.060   6.025  71.277  1.00  0.00    -0.184 OA 
ENDROOT
BRANCH   2   3
HETATM    3  N   UNL     1      -8.847   5.879  71.964  1.00  0.00    -0.137 NA 
HETATM    4  H   UNL     1      -8.664   5.180  72.685  1.00  0.00     0.000 HD 
BRANCH   3   5
HETATM    5  C   UNL     1      -7.988   6.761  71.550  1.00  0.00    -0.102 C  
HETATM    6  C   UNL     1      -8.015   8.237  71.851  1.00  0.00    -0.127 C  
HETATM    7  N   UNL     1      -7.106   8.801  70.851  1.00  0.00    -0.066 NA 
HETATM    8  C   UNL     1      -6.369   7.741  70.137  1.00  0.00    -0.033 C  
HETATM    9  C   UNL     1      -6.780   6.386  70.735  1.00  0.00    -0.058 C  
BRANCH   7  10
HETATM   10  C   UNL     1      -7.560   9.896  70.122  1.00  0.00    -0.175 A  
HETATM   11  N   UNL     1      -8.885   9.963  69.842  1.00  0.00    -0.210 NA 
HETATM   12  O   UNL     1     -10.554  15.231  66.527  1.00  0.00    -0.292 OA 
HETATM   13  C   UNL     1      -9.395  10.996  69.127  1.00  0.00    -0.021 A  
HETATM   14  C   UNL     1      -8.574  12.022  68.665  1.00  0.00    -0.011 A  
HETATM   15  N   UNL     1     -10.791  11.051  68.859  1.00  0.00    -0.202 NA 
HETATM   16  C   UNL     1      -9.167  13.139  67.904  1.00  0.00    -0.207 C  
HETATM   17  O   UNL     1     -12.546  14.200  66.742  1.00  0.00    -0.306 OA 
HETATM   18  C   UNL     1      -7.216  11.999  68.963  1.00  0.00    -0.053 A  
HETATM   19  F   UNL     1      -5.405  10.928  69.997  1.00  0.00    -0.043 F  
HETATM   20  C   UNL     1     -10.624  13.134  67.644  1.00  0.00    -0.235 C  
HETATM   21  O   UNL     1      -8.472  14.067  67.493  1.00  0.00    -0.170 OA 
HETATM   22  C   UNL     1      -6.715  10.932  69.700  1.00  0.00    -0.131 A  
HETATM   23  C   UNL     1     -11.339  14.211  66.934  1.00  0.00    -0.331 C  
HETATM   24  C   UNL     1     -11.317  12.093  68.122  1.00  0.00    -0.293 C  
BRANCH  15  25
HETATM   25  C   UNL     1     -11.683  10.159  69.622  1.00  0.00    -0.098 C  
HETATM   26  C   UNL     1     -11.624  10.201  71.133  1.00  0.00    -0.430 C  
HETATM   27  C   UNL     1     -12.878  10.609  70.427  1.00  0.00    -0.277 C  
ENDBRANCH  15  25
ENDBRANCH   7  10
BRANCH   9  28
HETATM   28  C   UNL     1      -7.089   5.325  69.681  1.00  0.00    -0.059 C  
HETATM   29  H1  UNL     1      -7.920   5.189  67.784  1.00  0.00     0.000 HD 
HETATM   30  N   UNL     1      -7.714   5.897  68.488  1.00  0.00    -0.093 NA 
HETATM   31  H2  UNL     1      -7.146   6.650  68.099  1.00  0.00     0.000 HD 
ENDBRANCH   9  28
ENDBRANCH   3   5
ENDBRANCH   2   3
TORSDOF 5
ENDMDL
MODEL      136
REMARK 921   NORMALIZED FREE ENERGY PREDICTED BY IDOCK:   -3.18 KCAL/MOL
REMARK 922        TOTAL FREE ENERGY PREDICTED BY IDOCK:   -5.27 KCAL/MOL
REMARK 923 INTER-LIGAND FREE ENERGY PREDICTED BY IDOCK:   -4.57 KCAL/MOL
REMARK 924 INTRA-LIGAND FREE ENERGY PREDICTED BY IDOCK:   -0.70 KCAL/MOL
REMARK 927      BINDING AFFINITY PREDICTED BY RF-SCORE:    0.00 PKD
ROOT
HETATM    1  C   UNL     1      -6.854  18.429  69.607  1.00  0.00     0.039 C  
HETATM    2  O   UNL     1      -7.091  18.281  68.213  1.00  0.00    -0.232 OA 
ENDROOT
BRANCH   2   3
HETATM    3  N   UNL     1      -8.412  17.851  68.020  1.00  0.00    -0.249 NA 
HETATM    4  H   UNL     1      -9.137  18.388  67.544  1.00  0.00     0.000 HD 
BRANCH   3   5
HETATM    5  C   UNL     1      -8.579  16.670  68.535  1.00  0.00    -0.234 C  
HETATM    6  C   UNL     1      -7.551  15.570  68.585  1.00  0.00    -0.141 C  
HETATM    7  N   UNL     1      -8.350  14.378  68.880  1.00  0.00    -0.122 NA 
HETATM    8  C   UNL     1      -9.737  14.734  69.235  1.00  0.00    -0.091 C  
HETATM    9  C   UNL     1      -9.855  16.267  69.223  1.00  0.00    -0.252 C  
BRANCH   7  10
HETATM   10  C   UNL     1      -8.139  13.257  68.083  1.00  0.00    -0.159 A  
HETATM   11  N   UNL     1      -8.912  13.112  66.979  1.00  0.00    -0.226 NA 
HETATM   12  O   UNL     1      -7.540   7.833  63.547  1.00  0.00    -0.111 OA 
HETATM   13  C   UNL     1      -8.768  12.038  66.163  1.00  0.00     0.044 A  
HETATM   14  C   UNL     1      -7.818  11.057  66.432  1.00  0.00    -0.150 A  
HETATM   15  N   UNL     1      -9.581  11.917  65.002  1.00  0.00    -0.153 NA 
HETATM   16  C   UNL     1      -7.679   9.911  65.513  1.00  0.00    -0.124 C  
HETATM   17  O   UNL     1      -9.219   8.719  62.335  1.00  0.00     0.049 OA 
HETATM   18  C   UNL     1      -6.987  11.192  67.539  1.00  0.00    -0.088 A  
HETATM   19  F   UNL     1      -6.332  12.432  69.417  1.00  0.00    -0.090 F  
HETATM   20  C   UNL     1      -8.563   9.831  64.329  1.00  0.00    -0.202 C  
HETATM   21  O   UNL     1      -6.840   9.033  65.714  1.00  0.00    -0.074 OA 
HETATM   22  C   UNL     1      -7.150  12.302  68.361  1.00  0.00    -0.094 A  
HETATM   23  C   UNL     1      -8.493   8.761  63.317  1.00  0.00    -0.119 C  
HETATM   24  C   UNL     1      -9.450  10.822  64.173  1.00  0.00    -0.268 C  
BRANCH  15  25
HETATM   25  C   UNL     1     -10.334  13.103  64.552  1.00  0.00    -0.368 C  
HETATM   26  C   UNL     1     -11.527  12.897  63.646  1.00  0.00    -0.506 C  
HETATM   27  C   UNL     1     -11.723  13.474  65.012  1.00  0.00    -0.354 C  
ENDBRANCH  15  25
ENDBRANCH   7  10
BRANCH   9  28
HETATM   28  C   UNL     1     -11.099  16.774  68.498  1.00  0.00    -0.260 C  
HETATM   29  H1  UNL     1     -11.928  16.755  66.595  1.00  0.00     0.000 HD 
HETATM   30  N   UNL     1     -11.097  16.416  67.079  1.00  0.00    -0.033 NA 
HETATM   31  H2  UNL     1     -10.980  15.411  66.953  1.00  0.00     0.000 HD 
ENDBRANCH   9  28
ENDBRANCH   3   5
ENDBRANCH   2   3
TORSDOF 5
ENDMDL
MODEL      137
REMARK 921   NORMALIZED FREE ENERGY PREDICTED BY IDOCK:   -3.14 KCAL/MOL
REMARK 922        TOTAL FREE ENERGY PREDICTED BY IDOCK:   -5.22 KCAL/MOL
REMARK 923 INTER-LIGAND FREE ENERGY PREDICTED BY IDOCK:   -5.49 KCAL/MOL
REMARK 924 INTRA-LIGAND FREE ENERGY PREDICTED BY IDOCK:    0.28 KCAL/MOL
REMARK 927      BINDING AFFINITY PREDICTED BY RF-SCORE:    0.00 PKD
ROOT
HETATM    1  C   UNL     1     -10.788  20.124  65.350  1.00  0.00     0.080 C  
HETATM    2  O   UNL     1      -9.838  20.199  66.405  1.00  0.00    -0.424 OA 
ENDROOT
BRANCH   2   3
HETATM    3  N   UNL     1      -8.641  19.601  65.981  1.00  0.00    -0.402 NA 
HETATM    4  H   UNL     1      -8.231  19.709  65.054  1.00  0.00     0.000 HD 
BRANCH   3   5
HETATM    5  C   UNL     1      -8.131  18.892  66.942  1.00  0.00    -0.265 C  
HETATM    6  C   UNL     1      -7.131  17.775  66.789  1.00  0.00    -0.201 C  
HETATM    7  N   UNL     1      -7.206  17.078  68.074  1.00  0.00    -0.164 NA 
HETATM    8  C   UNL     1      -8.004  17.839  69.053  1.00  0.00    -0.075 C  
HETATM    9  C   UNL     1      -8.449  19.153  68.390  1.00  0.00    -0.384 C  
BRANCH   7  10
HETATM   10  C   UNL     1      -7.346  15.694  68.040  1.00  0.00    -0.127 A  
HETATM   11  N   UNL     1      -8.545  15.171  68.396  1.00  0.00    -0.154 NA 
HETATM   12  O   UNL     1      -8.769   8.742  68.017  1.00  0.00    -0.138 OA 
HETATM   13  C   UNL     1      -8.749  13.831  68.396  1.00  0.00    -0.162 A  
HETATM   14  C   UNL     1      -7.734  12.952  68.026  1.00  0.00    -0.143 A  
HETATM   15  N   UNL     1     -10.022  13.308  68.758  1.00  0.00    -0.112 NA 
HETATM   16  C   UNL     1      -7.998  11.500  68.023  1.00  0.00    -0.130 C  
HETATM   17  O   UNL     1     -10.851   9.210  68.739  1.00  0.00    -0.171 OA 
HETATM   18  C   UNL     1      -6.502  13.457  67.626  1.00  0.00    -0.169 A  
HETATM   19  F   UNL     1      -5.128  15.314  67.226  1.00  0.00    -0.019 F  
HETATM   20  C   UNL     1      -9.337  11.014  68.424  1.00  0.00    -0.179 C  
HETATM   21  O   UNL     1      -7.127  10.697  67.689  1.00  0.00    -0.081 OA 
HETATM   22  C   UNL     1      -6.316  14.835  67.630  1.00  0.00    -0.116 A  
HETATM   23  C   UNL     1      -9.735   9.594  68.421  1.00  0.00    -0.150 C  
HETATM   24  C   UNL     1     -10.234  11.944  68.773  1.00  0.00    -0.143 C  
BRANCH  15  25
HETATM   25  C   UNL     1     -11.165  14.238  68.821  1.00  0.00    -0.262 C  
HETATM   26  C   UNL     1     -12.333  13.885  69.714  1.00  0.00    -0.330 C  
HETATM   27  C   UNL     1     -11.515  15.102  70.008  1.00  0.00    -0.315 C  
ENDBRANCH  15  25
ENDBRANCH   7  10
BRANCH   9  28
HETATM   28  C   UNL     1      -9.923  19.480  68.618  1.00  0.00    -0.449 C  
HETATM   29  H1  UNL     1     -11.767  18.527  68.593  1.00  0.00     0.000 HD 
HETATM   30  N   UNL     1     -10.783  18.309  68.441  1.00  0.00    -0.307 NA 
HETATM   31  H2  UNL     1     -10.480  17.536  69.033  1.00  0.00     0.000 HD 
ENDBRANCH   9  28
ENDBRANCH   3   5
ENDBRANCH   2   3
TORSDOF 5
ENDMDL
MODEL      138
REMARK 921   NORMALIZED FREE ENERGY PREDICTED BY IDOCK:   -3.14 KCAL/MOL
REMARK 922        TOTAL FREE ENERGY PREDICTED BY IDOCK:   -5.21 KCAL/MOL
REMARK 923 INTER-LIGAND FREE ENERGY PREDICTED BY IDOCK:   -4.68 KCAL/MOL
REMARK 924 INTRA-LIGAND FREE ENERGY PREDICTED BY IDOCK:   -0.54 KCAL/MOL
REMARK 927      BINDING AFFINITY PREDICTED BY RF-SCORE:    0.00 PKD
ROOT
HETATM    1  C   UNL     1     -12.550  13.895  65.809  1.00  0.00    -0.494 C  
HETATM    2  O   UNL     1     -11.728  12.907  66.418  1.00  0.00    -0.355 OA 
ENDROOT
BRANCH   2   3
HETATM    3  N   UNL     1     -12.139  12.729  67.747  1.00  0.00    -0.321 NA 
HETATM    4  H   UNL     1     -12.989  13.121  68.152  1.00  0.00     0.000 HD 
BRANCH   3   5
HETATM    5  C   UNL     1     -11.280  11.993  68.386  1.00  0.00    -0.262 C  
HETATM    6  C   UNL     1      -9.887  11.651  67.928  1.00  0.00    -0.184 C  
HETATM    7  N   UNL     1      -9.523  10.516  68.779  1.00  0.00    -0.172 NA 
HETATM    8  C   UNL     1     -10.507  10.315  69.859  1.00  0.00    -0.256 C  
HETATM    9  C   UNL     1     -11.571  11.420  69.747  1.00  0.00    -0.407 C  
BRANCH   7  10
HETATM   10  C   UNL     1      -8.993   9.393  68.150  1.00  0.00    -0.128 A  
HETATM   11  N   UNL     1      -8.834   9.439  66.804  1.00  0.00    -0.127 NA 
HETATM   12  O   UNL     1      -6.282   4.065  64.328  1.00  0.00    -0.024 OA 
HETATM   13  C   UNL     1      -8.334   8.377  66.125  1.00  0.00    -0.125 A  
HETATM   14  C   UNL     1      -7.963   7.211  66.790  1.00  0.00    -0.108 A  
HETATM   15  N   UNL     1      -8.163   8.455  64.715  1.00  0.00    -0.161 NA 
HETATM   16  C   UNL     1      -7.408   6.082  66.020  1.00  0.00    -0.077 C  
HETATM   17  O   UNL     1      -6.562   5.311  62.472  1.00  0.00    -0.025 OA 
HETATM   18  C   UNL     1      -8.084   7.144  68.174  1.00  0.00    -0.124 A  
HETATM   19  F   UNL     1      -8.693   8.177  70.188  1.00  0.00    -0.123 F  
HETATM   20  C   UNL     1      -7.267   6.217  64.553  1.00  0.00    -0.064 C  
HETATM   21  O   UNL     1      -7.058   5.043  66.578  1.00  0.00    -0.066 OA 
HETATM   22  C   UNL     1      -8.597   8.245  68.851  1.00  0.00    -0.132 A  
HETATM   23  C   UNL     1      -6.687   5.178  63.681  1.00  0.00    -0.041 C  
HETATM   24  C   UNL     1      -7.666   7.375  64.014  1.00  0.00    -0.121 C  
BRANCH  15  25
HETATM   25  C   UNL     1      -8.239   9.782  64.077  1.00  0.00    -0.158 C  
HETATM   26  C   UNL     1      -7.083  10.233  63.210  1.00  0.00    -0.099 C  
HETATM   27  C   UNL     1      -8.432  10.024  62.599  1.00  0.00    -0.180 C  
ENDBRANCH  15  25
ENDBRANCH   7  10
BRANCH   9  28
HETATM   28  C   UNL     1     -13.001  10.901  69.874  1.00  0.00     0.223 C  
HETATM   29  H1  UNL     1     -14.030   9.323  70.746  1.00  0.00     0.000 HD 
HETATM   30  N   UNL     1     -13.075   9.670  70.662  1.00  0.00    -0.570 NA 
HETATM   31  H2  UNL     1     -12.644   9.793  71.578  1.00  0.00     0.000 HD 
ENDBRANCH   9  28
ENDBRANCH   3   5
ENDBRANCH   2   3
TORSDOF 5
ENDMDL
MODEL      139
REMARK 921   NORMALIZED FREE ENERGY PREDICTED BY IDOCK:   -3.09 KCAL/MOL
REMARK 922        TOTAL FREE ENERGY PREDICTED BY IDOCK:   -5.15 KCAL/MOL
REMARK 923 INTER-LIGAND FREE ENERGY PREDICTED BY IDOCK:   -4.85 KCAL/MOL
REMARK 924 INTRA-LIGAND FREE ENERGY PREDICTED BY IDOCK:   -0.31 KCAL/MOL
REMARK 927      BINDING AFFINITY PREDICTED BY RF-SCORE:    0.00 PKD
ROOT
HETATM    1  C   UNL     1      -6.812   4.857  63.701  1.00  0.00    -0.043 C  
HETATM    2  O   UNL     1      -7.069   6.043  64.442  1.00  0.00    -0.050 OA 
ENDROOT
BRANCH   2   3
HETATM    3  N   UNL     1      -8.190   5.835  65.259  1.00  0.00    -0.134 NA 
HETATM    4  H   UNL     1      -9.066   5.411  64.952  1.00  0.00     0.000 HD 
BRANCH   3   5
HETATM    5  C   UNL     1      -7.952   6.261  66.463  1.00  0.00    -0.109 C  
HETATM    6  C   UNL     1      -8.825   6.045  67.671  1.00  0.00    -0.106 C  
HETATM    7  N   UNL     1      -8.327   7.036  68.627  1.00  0.00    -0.121 NA 
HETATM    8  C   UNL     1      -7.076   7.658  68.154  1.00  0.00    -0.081 C  
HETATM    9  C   UNL     1      -6.692   7.003  66.817  1.00  0.00    -0.060 C  
BRANCH   7  10
HETATM   10  C   UNL     1      -9.270   7.842  69.258  1.00  0.00    -0.148 A  
HETATM   11  N   UNL     1      -9.406   9.117  68.817  1.00  0.00    -0.139 NA 
HETATM   12  O   UNL     1     -13.929  12.461  71.962  1.00  0.00    -0.071 OA 
HETATM   13  C   UNL     1     -10.297   9.962  69.392  1.00  0.00    -0.222 A  
HETATM   14  C   UNL     1     -11.103   9.543  70.448  1.00  0.00    -0.330 A  
HETATM   15  N   UNL     1     -10.433  11.290  68.901  1.00  0.00    -0.207 NA 
HETATM   16  C   UNL     1     -12.073  10.486  71.039  1.00  0.00    -0.387 C  
HETATM   17  O   UNL     1     -13.182  14.004  70.499  1.00  0.00    -0.166 OA 
HETATM   18  C   UNL     1     -11.009   8.232  70.903  1.00  0.00    -0.275 A  
HETATM   19  F   UNL     1     -10.021   6.114  70.732  1.00  0.00    -0.193 F  
HETATM   20  C   UNL     1     -12.158  11.860  70.495  1.00  0.00    -0.422 C  
HETATM   21  O   UNL     1     -12.808  10.144  71.964  1.00  0.00    -0.411 OA 
HETATM   22  C   UNL     1     -10.091   7.382  70.297  1.00  0.00    -0.197 A  
HETATM   23  C   UNL     1     -13.113  12.877  70.970  1.00  0.00     0.003 C  
HETATM   24  C   UNL     1     -11.329  12.161  69.488  1.00  0.00    -0.207 C  
BRANCH  15  25
HETATM   25  C   UNL     1      -9.832  11.614  67.594  1.00  0.00    -0.186 C  
HETATM   26  C   UNL     1     -10.431  12.743  66.785  1.00  0.00    -0.253 C  
HETATM   27  C   UNL     1      -9.029  12.857  67.293  1.00  0.00    -0.208 C  
ENDBRANCH  15  25
ENDBRANCH   7  10
BRANCH   9  28
HETATM   28  C   UNL     1      -6.279   8.008  65.745  1.00  0.00    -0.041 C  
HETATM   29  H1  UNL     1      -7.065   9.644  64.737  1.00  0.00     0.000 HD 
HETATM   30  N   UNL     1      -7.341   8.972  65.454  1.00  0.00    -0.084 NA 
HETATM   31  H2  UNL     1      -7.653   9.445  66.302  1.00  0.00     0.000 HD 
ENDBRANCH   9  28
ENDBRANCH   3   5
ENDBRANCH   2   3
TORSDOF 5
ENDMDL
MODEL      140
REMARK 921   NORMALIZED FREE ENERGY PREDICTED BY IDOCK:   -3.09 KCAL/MOL
REMARK 922        TOTAL FREE ENERGY PREDICTED BY IDOCK:   -5.15 KCAL/MOL
REMARK 923 INTER-LIGAND FREE ENERGY PREDICTED BY IDOCK:   -5.33 KCAL/MOL
REMARK 924 INTRA-LIGAND FREE ENERGY PREDICTED BY IDOCK:    0.18 KCAL/MOL
REMARK 927      BINDING AFFINITY PREDICTED BY RF-SCORE:    0.00 PKD
ROOT
HETATM    1  C   UNL     1      -8.994   6.879  72.210  1.00  0.00    -0.134 C  
HETATM    2  O   UNL     1      -8.136   7.990  71.983  1.00  0.00    -0.110 OA 
ENDROOT
BRANCH   2   3
HETATM    3  N   UNL     1      -8.909   9.084  71.567  1.00  0.00    -0.336 NA 
HETATM    4  H   UNL     1      -9.570   9.589  72.156  1.00  0.00     0.000 HD 
BRANCH   3   5
HETATM    5  C   UNL     1      -8.660   9.360  70.322  1.00  0.00    -0.221 C  
HETATM    6  C   UNL     1      -7.575  10.273  69.813  1.00  0.00    -0.162 C  
HETATM    7  N   UNL     1      -7.982  10.542  68.433  1.00  0.00    -0.111 NA 
HETATM    8  C   UNL     1      -9.099   9.670  68.022  1.00  0.00    -0.125 C  
HETATM    9  C   UNL     1      -9.424   8.727  69.191  1.00  0.00    -0.157 C  
BRANCH   7  10
HETATM   10  C   UNL     1      -7.994  11.871  68.020  1.00  0.00    -0.147 A  
HETATM   11  N   UNL     1      -9.128  12.344  67.446  1.00  0.00    -0.176 NA 
HETATM   12  O   UNL     1      -8.767  18.554  65.763  1.00  0.00    -0.429 OA 
HETATM   13  C   UNL     1      -9.206  13.626  67.011  1.00  0.00    -0.250 A  
HETATM   14  C   UNL     1      -8.127  14.495  67.144  1.00  0.00    -0.196 A  
HETATM   15  N   UNL     1     -10.413  14.102  66.426  1.00  0.00    -0.279 NA 
HETATM   16  C   UNL     1      -8.255  15.888  66.673  1.00  0.00    -0.282 C  
HETATM   17  O   UNL     1     -10.859  18.043  65.102  1.00  0.00    -0.665 OA 
HETATM   18  C   UNL     1      -6.960  14.050  67.757  1.00  0.00    -0.188 A  
HETATM   19  F   UNL     1      -5.778  12.318  68.804  1.00  0.00    -0.053 F  
HETATM   20  C   UNL     1      -9.530  16.322  66.060  1.00  0.00    -0.369 C  
HETATM   21  O   UNL     1      -7.325  16.685  66.789  1.00  0.00    -0.199 OA 
HETATM   22  C   UNL     1      -6.902  12.733  68.199  1.00  0.00    -0.094 A  
HETATM   23  C   UNL     1      -9.794  17.695  65.591  1.00  0.00     0.222 C  
HETATM   24  C   UNL     1     -10.498  15.402  65.969  1.00  0.00    -0.321 C  
BRANCH  15  25
HETATM   25  C   UNL     1     -11.634  13.293  66.592  1.00  0.00    -0.365 C  
HETATM   26  C   UNL     1     -11.652  12.227  67.664  1.00  0.00    -0.421 C  
HETATM   27  C   UNL     1     -12.587  13.391  67.759  1.00  0.00     0.582 C  
ENDBRANCH  15  25
ENDBRANCH   7  10
BRANCH   9  28
HETATM   28  C   UNL     1     -10.918   8.612  69.482  1.00  0.00    -0.055 C  
HETATM   29  H1  UNL     1     -12.415   9.667  70.459  1.00  0.00     0.000 HD 
HETATM   30  N   UNL     1     -11.417   9.744  70.264  1.00  0.00    -0.293 NA 
HETATM   31  H2  UNL     1     -11.196  10.631  69.812  1.00  0.00     0.000 HD 
ENDBRANCH   9  28
ENDBRANCH   3   5
ENDBRANCH   2   3
TORSDOF 5
ENDMDL
MODEL      141
REMARK 921   NORMALIZED FREE ENERGY PREDICTED BY IDOCK:   -3.04 KCAL/MOL
REMARK 922        TOTAL FREE ENERGY PREDICTED BY IDOCK:   -5.08 KCAL/MOL
REMARK 923 INTER-LIGAND FREE ENERGY PREDICTED BY IDOCK:   -4.92 KCAL/MOL
REMARK 924 INTRA-LIGAND FREE ENERGY PREDICTED BY IDOCK:   -0.16 KCAL/MOL
REMARK 927      BINDING AFFINITY PREDICTED BY RF-SCORE:    0.00 PKD
ROOT
HETATM    1  C   UNL     1     -10.327   8.690  68.526  1.00  0.00    -0.196 C  
HETATM    2  O   UNL     1     -10.335   9.019  67.142  1.00  0.00    -0.243 OA 
ENDROOT
BRANCH   2   3
HETATM    3  N   UNL     1     -10.221  10.410  67.005  1.00  0.00    -0.215 NA 
HETATM    4  H   UNL     1     -10.961  11.026  66.667  1.00  0.00     0.000 HD 
BRANCH   3   5
HETATM    5  C   UNL     1      -9.038  10.801  67.372  1.00  0.00    -0.143 C  
HETATM    6  C   UNL     1      -8.719  11.692  68.544  1.00  0.00    -0.130 C  
HETATM    7  N   UNL     1      -7.350  12.131  68.270  1.00  0.00    -0.092 NA 
HETATM    8  C   UNL     1      -6.759  11.382  67.145  1.00  0.00    -0.121 C  
HETATM    9  C   UNL     1      -7.788  10.341  66.672  1.00  0.00    -0.116 C  
BRANCH   7  10
HETATM   10  C   UNL     1      -7.087  13.495  68.366  1.00  0.00    -0.107 A  
HETATM   11  N   UNL     1      -7.822  14.335  67.596  1.00  0.00    -0.163 NA 
HETATM   12  O   UNL     1      -6.329  20.550  68.419  1.00  0.00    -0.299 OA 
HETATM   13  C   UNL     1      -7.612  15.674  67.631  1.00  0.00    -0.158 A  
HETATM   14  C   UNL     1      -6.641  16.226  68.463  1.00  0.00    -0.130 A  
HETATM   15  N   UNL     1      -8.407  16.536  66.825  1.00  0.00    -0.211 NA 
HETATM   16  C   UNL     1      -6.453  17.690  68.486  1.00  0.00    -0.196 C  
HETATM   17  O   UNL     1      -7.954  20.692  66.865  1.00  0.00    -0.277 OA 
HETATM   18  C   UNL     1      -5.893  15.394  69.288  1.00  0.00    -0.104 A  
HETATM   19  F   UNL     1      -5.410  13.231  70.051  1.00  0.00    -0.082 F  
HETATM   20  C   UNL     1      -7.299  18.534  67.614  1.00  0.00    -0.223 C  
HETATM   21  O   UNL     1      -5.613  18.210  69.218  1.00  0.00    -0.198 OA 
HETATM   22  C   UNL     1      -6.126  14.024  69.238  1.00  0.00    -0.100 A  
HETATM   23  C   UNL     1      -7.236  20.007  67.579  1.00  0.00    -0.277 C  
HETATM   24  C   UNL     1      -8.193  17.900  66.845  1.00  0.00    -0.237 C  
BRANCH  15  25
HETATM   25  C   UNL     1      -9.632  15.987  66.215  1.00  0.00    -0.307 C  
HETATM   26  C   UNL     1     -10.725  15.477  67.128  1.00  0.00    -0.315 C  
HETATM   27  C   UNL     1     -10.987  16.653  66.241  1.00  0.00     0.123 C  
ENDBRANCH  15  25
ENDBRANCH   7  10
BRANCH   9  28
HETATM   28  C   UNL     1      -7.948  10.292  65.154  1.00  0.00    -0.147 C  
HETATM   29  H1  UNL     1      -9.342   9.689  63.739  1.00  0.00     0.000 HD 
HETATM   30  N   UNL     1      -9.235   9.722  64.752  1.00  0.00    -0.250 NA 
HETATM   31  H2  UNL     1     -10.011  10.219  65.190  1.00  0.00     0.000 HD 
ENDBRANCH   9  28
ENDBRANCH   3   5
ENDBRANCH   2   3
TORSDOF 5
ENDMDL
MODEL      142
REMARK 921   NORMALIZED FREE ENERGY PREDICTED BY IDOCK:   -3.00 KCAL/MOL
REMARK 922        TOTAL FREE ENERGY PREDICTED BY IDOCK:   -5.04 KCAL/MOL
REMARK 923 INTER-LIGAND FREE ENERGY PREDICTED BY IDOCK:   -5.12 KCAL/MOL
REMARK 924 INTRA-LIGAND FREE ENERGY PREDICTED BY IDOCK:    0.09 KCAL/MOL
REMARK 927      BINDING AFFINITY PREDICTED BY RF-SCORE:    0.00 PKD
ROOT
HETATM    1  C   UNL     1     -10.562   6.623  69.795  1.00  0.00    -0.228 C  
HETATM    2  O   UNL     1      -9.827   7.416  70.719  1.00  0.00    -0.179 OA 
ENDROOT
BRANCH   2   3
HETATM    3  N   UNL     1      -8.510   6.938  70.781  1.00  0.00    -0.134 NA 
HETATM    4  H   UNL     1      -8.231   6.047  71.193  1.00  0.00     0.000 HD 
BRANCH   3   5
HETATM    5  C   UNL     1      -7.697   7.793  70.237  1.00  0.00    -0.089 C  
HETATM    6  C   UNL     1      -7.623   9.266  70.541  1.00  0.00    -0.139 C  
HETATM    7  N   UNL     1      -6.865   9.806  69.411  1.00  0.00    -0.053 NA 
HETATM    8  C   UNL     1      -6.290   8.727  68.585  1.00  0.00    -0.053 C  
HETATM    9  C   UNL     1      -6.649   7.382  69.238  1.00  0.00    -0.037 C  
BRANCH   7  10
HETATM   10  C   UNL     1      -7.390  10.922  68.767  1.00  0.00    -0.104 A  
HETATM   11  N   UNL     1      -8.312  10.716  67.795  1.00  0.00    -0.115 NA 
HETATM   12  O   UNL     1     -10.526  16.157  65.144  1.00  0.00    -0.560 OA 
HETATM   13  C   UNL     1      -8.858  11.757  67.119  1.00  0.00    -0.173 A  
HETATM   14  C   UNL     1      -8.491  13.069  67.407  1.00  0.00    -0.200 A  
HETATM   15  N   UNL     1      -9.835  11.514  66.114  1.00  0.00    -0.213 NA 
HETATM   16  C   UNL     1      -9.118  14.178  66.661  1.00  0.00    -0.216 C  
HETATM   17  O   UNL     1     -11.679  14.605  63.986  1.00  0.00    -0.223 OA 
HETATM   18  C   UNL     1      -7.571  13.316  68.420  1.00  0.00    -0.137 A  
HETATM   19  F   UNL     1      -6.152  12.485  70.090  1.00  0.00    -0.132 F  
HETATM   20  C   UNL     1     -10.118  13.863  65.616  1.00  0.00    -0.332 C  
HETATM   21  O   UNL     1      -8.826  15.349  66.900  1.00  0.00    -0.215 OA 
HETATM   22  C   UNL     1      -7.027  12.235  69.102  1.00  0.00    -0.041 A  
HETATM   23  C   UNL     1     -10.843  14.881  64.835  1.00  0.00    -0.413 C  
HETATM   24  C   UNL     1     -10.387  12.567  65.412  1.00  0.00    -0.282 C  
BRANCH  15  25
HETATM   25  C   UNL     1     -10.452  10.177  66.050  1.00  0.00    -0.095 C  
HETATM   26  C   UNL     1      -9.566   8.988  65.751  1.00  0.00    -0.287 C  
HETATM   27  C   UNL     1     -10.259   9.084  67.073  1.00  0.00    -0.336 C  
ENDBRANCH  15  25
ENDBRANCH   7  10
BRANCH   9  28
HETATM   28  C   UNL     1      -7.160   6.341  68.245  1.00  0.00    -0.083 C  
HETATM   29  H1  UNL     1      -7.522   4.299  68.154  1.00  0.00     0.000 HD 
HETATM   30  N   UNL     1      -7.181   4.995  68.817  1.00  0.00    -0.057 NA 
HETATM   31  H2  UNL     1      -7.717   4.971  69.685  1.00  0.00     0.000 HD 
ENDBRANCH   9  28
ENDBRANCH   3   5
ENDBRANCH   2   3
TORSDOF 5
ENDMDL
MODEL      143
REMARK 921   NORMALIZED FREE ENERGY PREDICTED BY IDOCK:   -2.99 KCAL/MOL
REMARK 922        TOTAL FREE ENERGY PREDICTED BY IDOCK:   -5.02 KCAL/MOL
REMARK 923 INTER-LIGAND FREE ENERGY PREDICTED BY IDOCK:   -4.10 KCAL/MOL
REMARK 924 INTRA-LIGAND FREE ENERGY PREDICTED BY IDOCK:   -0.92 KCAL/MOL
REMARK 927      BINDING AFFINITY PREDICTED BY RF-SCORE:    0.00 PKD
ROOT
HETATM    1  C   UNL     1      -6.392  11.915  69.844  1.00  0.00    -0.104 C  
HETATM    2  O   UNL     1      -6.947  11.115  68.808  1.00  0.00    -0.074 OA 
ENDROOT
BRANCH   2   3
HETATM    3  N   UNL     1      -8.007  11.814  68.212  1.00  0.00    -0.140 NA 
HETATM    4  H   UNL     1      -7.916  12.704  67.722  1.00  0.00     0.000 HD 
BRANCH   3   5
HETATM    5  C   UNL     1      -9.120  11.163  68.373  1.00  0.00    -0.168 C  
HETATM    6  C   UNL     1      -9.727  10.753  69.689  1.00  0.00     0.126 C  
HETATM    7  N   UNL     1     -10.710   9.739  69.304  1.00  0.00    -0.218 NA 
HETATM    8  C   UNL     1     -10.888   9.690  67.840  1.00  0.00    -0.215 C  
HETATM    9  C   UNL     1      -9.999  10.778  67.214  1.00  0.00    -0.219 C  
BRANCH   7  10
HETATM   10  C   UNL     1     -10.696   8.539  70.008  1.00  0.00    -0.232 A  
HETATM   11  N   UNL     1      -9.639   7.710  69.823  1.00  0.00    -0.164 NA 
HETATM   12  O   UNL     1      -9.949   2.316  73.335  1.00  0.00    -0.094 OA 
HETATM   13  C   UNL     1      -9.565   6.520  70.469  1.00  0.00    -0.169 A  
HETATM   14  C   UNL     1     -10.569   6.116  71.345  1.00  0.00    -0.294 A  
HETATM   15  N   UNL     1      -8.438   5.675  70.269  1.00  0.00    -0.121 NA 
HETATM   16  C   UNL     1     -10.447   4.822  72.042  1.00  0.00    -0.155 C  
HETATM   17  O   UNL     1      -8.005   2.011  72.236  1.00  0.00    -0.050 OA 
HETATM   18  C   UNL     1     -11.651   6.958  71.580  1.00  0.00    -0.325 A  
HETATM   19  F   UNL     1     -12.746   8.987  71.158  1.00  0.00    -0.325 F  
HETATM   20  C   UNL     1      -9.258   3.979  71.783  1.00  0.00    -0.184 C  
HETATM   21  O   UNL     1     -11.310   4.441  72.832  1.00  0.00    -0.129 OA 
HETATM   22  C   UNL     1     -11.706   8.175  70.911  1.00  0.00    -0.244 A  
HETATM   23  C   UNL     1      -9.001   2.688  72.448  1.00  0.00    -0.081 C  
HETATM   24  C   UNL     1      -8.360   4.457  70.913  1.00  0.00    -0.087 C  
BRANCH  15  25
HETATM   25  C   UNL     1      -7.246   6.247  69.616  1.00  0.00    -0.078 C  
HETATM   26  C   UNL     1      -6.042   5.355  69.405  1.00  0.00    -0.025 C  
HETATM   27  C   UNL     1      -6.774   5.907  68.223  1.00  0.00    -0.057 C  
ENDBRANCH  15  25
ENDBRANCH   7  10
BRANCH   9  28
HETATM   28  C   UNL     1      -9.202  10.291  66.007  1.00  0.00    -0.164 C  
HETATM   29  H1  UNL     1      -7.306   9.574  65.561  1.00  0.00     0.000 HD 
HETATM   30  N   UNL     1      -7.838   9.899  66.367  1.00  0.00    -0.106 NA 
HETATM   31  H2  UNL     1      -7.839   9.204  67.114  1.00  0.00     0.000 HD 
ENDBRANCH   9  28
ENDBRANCH   3   5
ENDBRANCH   2   3
TORSDOF 5
ENDMDL
MODEL      144
REMARK 921   NORMALIZED FREE ENERGY PREDICTED BY IDOCK:   -2.89 KCAL/MOL
REMARK 922        TOTAL FREE ENERGY PREDICTED BY IDOCK:   -4.89 KCAL/MOL
REMARK 923 INTER-LIGAND FREE ENERGY PREDICTED BY IDOCK:   -4.18 KCAL/MOL
REMARK 924 INTRA-LIGAND FREE ENERGY PREDICTED BY IDOCK:   -0.72 KCAL/MOL
REMARK 927      BINDING AFFINITY PREDICTED BY RF-SCORE:    0.00 PKD
ROOT
HETATM    1  C   UNL     1     -11.973  15.243  64.252  1.00  0.00    -0.223 C  
HETATM    2  O   UNL     1     -11.198  14.514  65.195  1.00  0.00    -0.332 OA 
ENDROOT
BRANCH   2   3
HETATM    3  N   UNL     1     -10.523  15.420  66.026  1.00  0.00    -0.305 NA 
HETATM    4  H   UNL     1     -10.545  16.434  65.923  1.00  0.00     0.000 HD 
BRANCH   3   5
HETATM    5  C   UNL     1      -9.865  14.780  66.945  1.00  0.00    -0.243 C  
HETATM    6  C   UNL     1      -8.540  14.085  66.770  1.00  0.00    -0.055 C  
HETATM    7  N   UNL     1      -8.456  13.218  67.947  1.00  0.00    -0.164 NA 
HETATM    8  C   UNL     1      -9.525  13.523  68.917  1.00  0.00     0.165 C  
HETATM    9  C   UNL     1     -10.344  14.704  68.370  1.00  0.00    -0.237 C  
BRANCH   7  10
HETATM   10  C   UNL     1      -8.119  11.885  67.733  1.00  0.00    -0.146 A  
HETATM   11  N   UNL     1      -8.610  11.279  66.624  1.00  0.00    -0.162 NA 
HETATM   12  O   UNL     1      -6.733   5.147  65.993  1.00  0.00    -0.051 OA 
HETATM   13  C   UNL     1      -8.331   9.979  66.359  1.00  0.00    -0.126 A  
HETATM   14  C   UNL     1      -7.526   9.230  67.213  1.00  0.00    -0.091 A  
HETATM   15  N   UNL     1      -8.846   9.371  65.180  1.00  0.00    -0.184 NA 
HETATM   16  C   UNL     1      -7.231   7.822  66.883  1.00  0.00    -0.089 C  
HETATM   17  O   UNL     1      -8.021   5.400  64.162  1.00  0.00    -0.104 OA 
HETATM   18  C   UNL     1      -6.981   9.831  68.342  1.00  0.00    -0.068 A  
HETATM   19  F   UNL     1      -6.733  11.741  69.678  1.00  0.00    -0.110 F  
HETATM   20  C   UNL     1      -7.807   7.240  65.651  1.00  0.00    -0.112 C  
HETATM   21  O   UNL     1      -6.513   7.137  67.610  1.00  0.00    -0.044 OA 
HETATM   22  C   UNL     1      -7.278  11.166  68.594  1.00  0.00    -0.098 A  
HETATM   23  C   UNL     1      -7.551   5.862  65.192  1.00  0.00    -0.088 C  
HETATM   24  C   UNL     1      -8.576   8.045  64.908  1.00  0.00     0.027 C  
BRANCH  15  25
HETATM   25  C   UNL     1      -9.404  10.244  64.132  1.00  0.00    -0.287 C  
HETATM   26  C   UNL     1      -8.448  11.043  63.274  1.00  0.00     0.067 C  
HETATM   27  C   UNL     1      -9.305   9.989  62.647  1.00  0.00    -0.296 C  
ENDBRANCH  15  25
ENDBRANCH   7  10
BRANCH   9  28
HETATM   28  C   UNL     1     -11.853  14.496  68.473  1.00  0.00    -0.320 C  
HETATM   29  H1  UNL     1     -13.387  14.764  69.845  1.00  0.00     0.000 HD 
HETATM   30  N   UNL     1     -12.379  14.903  69.776  1.00  0.00    -0.503 NA 
HETATM   31  H2  UNL     1     -12.123  15.866  69.993  1.00  0.00     0.000 HD 
ENDBRANCH   9  28
ENDBRANCH   3   5
ENDBRANCH   2   3
TORSDOF 5
ENDMDL
MODEL      145
REMARK 921   NORMALIZED FREE ENERGY PREDICTED BY IDOCK:   -2.86 KCAL/MOL
REMARK 922        TOTAL FREE ENERGY PREDICTED BY IDOCK:   -4.85 KCAL/MOL
REMARK 923 INTER-LIGAND FREE ENERGY PREDICTED BY IDOCK:   -5.67 KCAL/MOL
REMARK 924 INTRA-LIGAND FREE ENERGY PREDICTED BY IDOCK:    0.82 KCAL/MOL
REMARK 927      BINDING AFFINITY PREDICTED BY RF-SCORE:    0.00 PKD
ROOT
HETATM    1  C   UNL     1      -6.835  18.541  69.777  1.00  0.00     0.132 C  
HETATM    2  O   UNL     1      -7.022  19.081  68.475  1.00  0.00    -0.253 OA 
ENDROOT
BRANCH   2   3
HETATM    3  N   UNL     1      -8.276  19.706  68.418  1.00  0.00    -0.334 NA 
HETATM    4  H   UNL     1      -8.529  20.554  68.924  1.00  0.00     0.000 HD 
BRANCH   3   5
HETATM    5  C   UNL     1      -9.068  19.048  67.626  1.00  0.00    -0.291 C  
HETATM    6  C   UNL     1     -10.169  18.111  68.047  1.00  0.00    -0.380 C  
HETATM    7  N   UNL     1     -10.459  17.360  66.824  1.00  0.00    -0.292 NA 
HETATM    8  C   UNL     1      -9.771  17.946  65.658  1.00  0.00     0.390 C  
HETATM    9  C   UNL     1      -9.014  19.198  66.129  1.00  0.00    -0.232 C  
BRANCH   7  10
HETATM   10  C   UNL     1     -10.520  15.973  66.927  1.00  0.00    -0.306 A  
HETATM   11  N   UNL     1     -10.722  15.440  68.157  1.00  0.00    -0.263 NA 
HETATM   12  O   UNL     1     -11.015   9.002  68.155  1.00  0.00    -0.087 OA 
HETATM   13  C   UNL     1     -10.782  14.096  68.333  1.00  0.00    -0.256 A  
HETATM   14  C   UNL     1     -10.643  13.226  67.255  1.00  0.00    -0.250 A  
HETATM   15  N   UNL     1     -11.010  13.561  69.631  1.00  0.00     0.012 NA 
HETATM   16  C   UNL     1     -10.730  11.770  67.482  1.00  0.00    -0.221 C  
HETATM   17  O   UNL     1     -11.303   9.452  70.344  1.00  0.00    -0.250 OA 
HETATM   18  C   UNL     1     -10.466  13.743  65.976  1.00  0.00    -0.297 A  
HETATM   19  F   UNL     1     -10.257  15.612  64.577  1.00  0.00    -0.219 F  
HETATM   20  C   UNL     1     -10.954  11.272  68.857  1.00  0.00    -0.274 C  
HETATM   21  O   UNL     1     -10.624  10.975  66.549  1.00  0.00    -0.249 OA 
HETATM   22  C   UNL     1     -10.411  15.123  65.818  1.00  0.00    -0.339 A  
HETATM   23  C   UNL     1     -11.101   9.847  69.205  1.00  0.00    -0.159 C  
HETATM   24  C   UNL     1     -11.061  12.195  69.821  1.00  0.00     0.113 C  
BRANCH  15  25
HETATM   25  C   UNL     1     -11.483  14.475  70.688  1.00  0.00    -0.163 C  
HETATM   26  C   UNL     1     -12.316  15.672  70.286  1.00  0.00    -0.402 C  
HETATM   27  C   UNL     1     -12.916  14.604  71.145  1.00  0.00    -0.415 C  
ENDBRANCH  15  25
ENDBRANCH   7  10
BRANCH   9  28
HETATM   28  C   UNL     1      -7.585  19.279  65.598  1.00  0.00    -0.039 C  
HETATM   29  H1  UNL     1      -6.428  20.495  64.377  1.00  0.00     0.000 HD 
HETATM   30  N   UNL     1      -7.382  20.441  64.732  1.00  0.00    -0.345 NA 
HETATM   31  H2  UNL     1      -7.650  21.305  65.205  1.00  0.00     0.000 HD 
ENDBRANCH   9  28
ENDBRANCH   3   5
ENDBRANCH   2   3
TORSDOF 5
ENDMDL
MODEL      146
REMARK 921   NORMALIZED FREE ENERGY PREDICTED BY IDOCK:   -2.85 KCAL/MOL
REMARK 922        TOTAL FREE ENERGY PREDICTED BY IDOCK:   -4.83 KCAL/MOL
REMARK 923 INTER-LIGAND FREE ENERGY PREDICTED BY IDOCK:   -5.85 KCAL/MOL
REMARK 924 INTRA-LIGAND FREE ENERGY PREDICTED BY IDOCK:    1.02 KCAL/MOL
REMARK 927      BINDING AFFINITY PREDICTED BY RF-SCORE:    0.00 PKD
ROOT
HETATM    1  C   UNL     1      -7.122  21.266  63.528  1.00  0.00     0.445 C  
HETATM    2  O   UNL     1      -6.024  20.838  64.324  1.00  0.00    -0.262 OA 
ENDROOT
BRANCH   2   3
HETATM    3  N   UNL     1      -5.939  19.439  64.265  1.00  0.00    -0.373 NA 
HETATM    4  H   UNL     1      -5.916  18.891  63.405  1.00  0.00     0.000 HD 
BRANCH   3   5
HETATM    5  C   UNL     1      -5.893  18.943  65.465  1.00  0.00    -0.202 C  
HETATM    6  C   UNL     1      -6.285  17.544  65.864  1.00  0.00    -0.091 C  
HETATM    7  N   UNL     1      -6.428  17.637  67.318  1.00  0.00    -0.152 NA 
HETATM    8  C   UNL     1      -5.924  18.926  67.827  1.00  0.00    -0.200 C  
HETATM    9  C   UNL     1      -5.365  19.724  66.637  1.00  0.00    -0.162 C  
BRANCH   7  10
HETATM   10  C   UNL     1      -7.590  17.113  67.878  1.00  0.00    -0.175 A  
HETATM   11  N   UNL     1      -7.763  15.770  67.834  1.00  0.00    -0.128 NA 
HETATM   12  O   UNL     1     -13.229  13.782  70.610  1.00  0.00    -0.119 OA 
HETATM   13  C   UNL     1      -8.876  15.193  68.351  1.00  0.00    -0.174 A  
HETATM   14  C   UNL     1      -9.871  15.963  68.948  1.00  0.00    -0.226 A  
HETATM   15  N   UNL     1      -9.027  13.779  68.306  1.00  0.00    -0.185 NA 
HETATM   16  C   UNL     1     -11.061  15.298  69.514  1.00  0.00    -0.281 C  
HETATM   17  O   UNL     1     -12.352  11.825  69.920  1.00  0.00    -0.223 OA 
HETATM   18  C   UNL     1      -9.709  17.341  69.037  1.00  0.00    -0.201 A  
HETATM   19  F   UNL     1      -8.404  19.241  68.610  1.00  0.00    -0.361 F  
HETATM   20  C   UNL     1     -11.169  13.825  69.424  1.00  0.00    -0.259 C  
HETATM   21  O   UNL     1     -11.952  15.948  70.060  1.00  0.00    -0.342 OA 
HETATM   22  C   UNL     1      -8.559  17.912  68.503  1.00  0.00    -0.293 A  
HETATM   23  C   UNL     1     -12.285  13.044  69.988  1.00  0.00    -0.236 C  
HETATM   24  C   UNL     1     -10.161  13.184  68.819  1.00  0.00    -0.097 C  
BRANCH  15  25
HETATM   25  C   UNL     1      -7.842  12.962  67.984  1.00  0.00    -0.149 C  
HETATM   26  C   UNL     1      -7.804  11.527  68.462  1.00  0.00    -0.140 C  
HETATM   27  C   UNL     1      -7.819  11.821  66.995  1.00  0.00    -0.161 C  
ENDBRANCH  15  25
ENDBRANCH   7  10
BRANCH   9  28
HETATM   28  C   UNL     1      -5.811  21.184  66.621  1.00  0.00    -0.279 C  
HETATM   29  H1  UNL     1      -7.445  22.334  67.183  1.00  0.00     0.000 HD 
HETATM   30  N   UNL     1      -7.146  21.360  67.194  1.00  0.00    -0.823 NA 
HETATM   31  H2  UNL     1      -7.198  20.968  68.135  1.00  0.00     0.000 HD 
ENDBRANCH   9  28
ENDBRANCH   3   5
ENDBRANCH   2   3
TORSDOF 5
ENDMDL
MODEL      147
REMARK 921   NORMALIZED FREE ENERGY PREDICTED BY IDOCK:   -2.77 KCAL/MOL
REMARK 922        TOTAL FREE ENERGY PREDICTED BY IDOCK:   -4.73 KCAL/MOL
REMARK 923 INTER-LIGAND FREE ENERGY PREDICTED BY IDOCK:   -4.27 KCAL/MOL
REMARK 924 INTRA-LIGAND FREE ENERGY PREDICTED BY IDOCK:   -0.47 KCAL/MOL
REMARK 927      BINDING AFFINITY PREDICTED BY RF-SCORE:    0.00 PKD
ROOT
HETATM    1  C   UNL     1      -8.381  16.837  68.262  1.00  0.00    -0.213 C  
HETATM    2  O   UNL     1      -9.189  15.797  68.799  1.00  0.00    -0.191 OA 
ENDROOT
BRANCH   2   3
HETATM    3  N   UNL     1      -9.227  14.733  67.886  1.00  0.00    -0.188 NA 
HETATM    4  H   UNL     1      -8.888  14.776  66.925  1.00  0.00     0.000 HD 
BRANCH   3   5
HETATM    5  C   UNL     1      -9.756  13.685  68.442  1.00  0.00    -0.217 C  
HETATM    6  C   UNL     1      -9.036  12.414  68.808  1.00  0.00     0.152 C  
HETATM    7  N   UNL     1     -10.126  11.456  69.009  1.00  0.00    -0.145 NA 
HETATM    8  C   UNL     1     -11.439  12.130  69.016  1.00  0.00    -0.297 C  
HETATM    9  C   UNL     1     -11.202  13.641  68.857  1.00  0.00    -0.309 C  
BRANCH   7  10
HETATM   10  C   UNL     1     -10.018  10.225  68.370  1.00  0.00    -0.157 A  
HETATM   11  N   UNL     1      -9.250  10.156  67.256  1.00  0.00    -0.138 NA 
HETATM   12  O   UNL     1      -8.971   4.258  64.676  1.00  0.00    -0.134 OA 
HETATM   13  C   UNL     1      -9.109   8.991  66.577  1.00  0.00    -0.163 A  
HETATM   14  C   UNL     1      -9.744   7.829  67.007  1.00  0.00    -0.259 A  
HETATM   15  N   UNL     1      -8.284   8.942  65.418  1.00  0.00    -0.122 NA 
HETATM   16  C   UNL     1      -9.554   6.576  66.252  1.00  0.00    -0.046 C  
HETATM   17  O   UNL     1      -7.671   5.421  63.249  1.00  0.00    -0.069 OA 
HETATM   18  C   UNL     1     -10.514   7.859  68.165  1.00  0.00    -0.227 A  
HETATM   19  F   UNL     1     -11.374   9.077  69.973  1.00  0.00    -0.241 F  
HETATM   20  C   UNL     1      -8.696   6.590  65.046  1.00  0.00     0.144 C  
HETATM   21  O   UNL     1     -10.090   5.529  66.613  1.00  0.00    -0.169 OA 
HETATM   22  C   UNL     1     -10.643   9.063  68.848  1.00  0.00    -0.180 A  
HETATM   23  C   UNL     1      -8.396   5.396  64.234  1.00  0.00    -0.124 C  
HETATM   24  C   UNL     1      -8.144   7.763  64.714  1.00  0.00    -0.131 C  
BRANCH  15  25
HETATM   25  C   UNL     1      -7.366  10.069  65.168  1.00  0.00    -0.139 C  
HETATM   26  C   UNL     1      -5.992  10.033  65.799  1.00  0.00    -0.077 C  
HETATM   27  C   UNL     1      -6.126  10.003  64.309  1.00  0.00    -0.131 C  
ENDBRANCH  15  25
ENDBRANCH   7  10
BRANCH   9  28
HETATM   28  C   UNL     1     -12.128  14.296  67.835  1.00  0.00    -0.261 C  
HETATM   29  H1  UNL     1     -12.064  15.768  66.373  1.00  0.00     0.000 HD 
HETATM   30  N   UNL     1     -11.446  15.330  67.055  1.00  0.00    -0.235 NA 
HETATM   31  H2  UNL     1     -10.606  14.961  66.609  1.00  0.00     0.000 HD 
ENDBRANCH   9  28
ENDBRANCH   3   5
ENDBRANCH   2   3
TORSDOF 5
ENDMDL
MODEL      148
REMARK 921   NORMALIZED FREE ENERGY PREDICTED BY IDOCK:   -2.75 KCAL/MOL
REMARK 922        TOTAL FREE ENERGY PREDICTED BY IDOCK:   -4.71 KCAL/MOL
REMARK 923 INTER-LIGAND FREE ENERGY PREDICTED BY IDOCK:   -5.18 KCAL/MOL
REMARK 924 INTRA-LIGAND FREE ENERGY PREDICTED BY IDOCK:    0.47 KCAL/MOL
REMARK 927      BINDING AFFINITY PREDICTED BY RF-SCORE:    0.00 PKD
ROOT
HETATM    1  C   UNL     1     -10.803  20.462  65.322  1.00  0.00     0.445 C  
HETATM    2  O   UNL     1      -9.936  20.096  66.388  1.00  0.00    -0.440 OA 
ENDROOT
BRANCH   2   3
HETATM    3  N   UNL     1      -8.798  19.473  65.855  1.00  0.00    -0.406 NA 
HETATM    4  H   UNL     1      -8.355  19.724  64.972  1.00  0.00     0.000 HD 
BRANCH   3   5
HETATM    5  C   UNL     1      -8.391  18.530  66.650  1.00  0.00    -0.272 C  
HETATM    6  C   UNL     1      -7.789  17.213  66.233  1.00  0.00    -0.316 C  
HETATM    7  N   UNL     1      -7.889  16.399  67.445  1.00  0.00    -0.145 NA 
HETATM    8  C   UNL     1      -8.291  17.212  68.608  1.00  0.00    -0.257 C  
HETATM    9  C   UNL     1      -8.420  18.674  68.148  1.00  0.00    -0.336 C  
BRANCH   7  10
HETATM   10  C   UNL     1      -8.429  15.123  67.313  1.00  0.00    -0.198 A  
HETATM   11  N   UNL     1      -7.633  14.067  67.611  1.00  0.00    -0.165 NA 
HETATM   12  O   UNL     1     -10.560   8.365  66.937  1.00  0.00    -0.305 OA 
HETATM   13  C   UNL     1      -8.090  12.795  67.495  1.00  0.00    -0.180 A  
HETATM   14  C   UNL     1      -9.391  12.537  67.071  1.00  0.00    -0.210 A  
HETATM   15  N   UNL     1      -7.240  11.704  67.829  1.00  0.00    -0.094 NA 
HETATM   16  C   UNL     1      -9.858  11.141  66.972  1.00  0.00    -0.185 C  
HETATM   17  O   UNL     1      -8.506   7.726  67.607  1.00  0.00    -0.120 OA 
HETATM   18  C   UNL     1     -10.242  13.600  66.788  1.00  0.00    -0.268 A  
HETATM   19  F   UNL     1     -10.589  15.914  66.657  1.00  0.00    -0.301 F  
HETATM   20  C   UNL     1      -8.924  10.047  67.319  1.00  0.00    -0.144 C  
HETATM   21  O   UNL     1     -11.006  10.879  66.614  1.00  0.00    -0.235 OA 
HETATM   22  C   UNL     1      -9.754  14.895  66.916  1.00  0.00    -0.240 A  
HETATM   23  C   UNL     1      -9.285   8.617  67.301  1.00  0.00    -0.140 C  
HETATM   24  C   UNL     1      -7.693  10.406  67.703  1.00  0.00    -0.093 C  
BRANCH  15  25
HETATM   25  C   UNL     1      -6.005  11.988  68.583  1.00  0.00    -0.054 C  
HETATM   26  C   UNL     1      -6.107  12.220  70.074  1.00  0.00    -0.130 C  
HETATM   27  C   UNL     1      -5.346  11.041  69.556  1.00  0.00    -0.038 C  
ENDBRANCH  15  25
ENDBRANCH   7  10
BRANCH   9  28
HETATM   28  C   UNL     1      -9.690  19.358  68.648  1.00  0.00    -0.433 C  
HETATM   29  H1  UNL     1     -10.964  19.304  70.286  1.00  0.00     0.000 HD 
HETATM   30  N   UNL     1     -10.116  18.847  69.952  1.00  0.00     0.076 NA 
HETATM   31  H2  UNL     1      -9.364  18.916  70.638  1.00  0.00     0.000 HD 
ENDBRANCH   9  28
ENDBRANCH   3   5
ENDBRANCH   2   3
TORSDOF 5
ENDMDL
MODEL      149
REMARK 921   NORMALIZED FREE ENERGY PREDICTED BY IDOCK:   -2.62 KCAL/MOL
REMARK 922        TOTAL FREE ENERGY PREDICTED BY IDOCK:   -4.54 KCAL/MOL
REMARK 923 INTER-LIGAND FREE ENERGY PREDICTED BY IDOCK:   -4.50 KCAL/MOL
REMARK 924 INTRA-LIGAND FREE ENERGY PREDICTED BY IDOCK:   -0.04 KCAL/MOL
REMARK 927      BINDING AFFINITY PREDICTED BY RF-SCORE:    0.00 PKD
ROOT
HETATM    1  C   UNL     1      -7.117  18.092  66.300  1.00  0.00    -0.272 C  
HETATM    2  O   UNL     1      -7.791  17.367  67.320  1.00  0.00    -0.190 OA 
ENDROOT
BRANCH   2   3
HETATM    3  N   UNL     1      -7.723  15.997  67.026  1.00  0.00    -0.206 NA 
HETATM    4  H   UNL     1      -7.093  15.578  66.342  1.00  0.00     0.000 HD 
BRANCH   3   5
HETATM    5  C   UNL     1      -8.578  15.341  67.751  1.00  0.00    -0.158 C  
HETATM    6  C   UNL     1      -8.268  14.179  68.658  1.00  0.00    -0.116 C  
HETATM    7  N   UNL     1      -9.582  13.581  68.900  1.00  0.00     0.038 NA 
HETATM    8  C   UNL     1     -10.667  14.441  68.390  1.00  0.00    -0.245 C  
HETATM    9  C   UNL     1     -10.033  15.718  67.814  1.00  0.00    -0.227 C  
BRANCH   7  10
HETATM   10  C   UNL     1      -9.695  12.204  68.731  1.00  0.00     0.012 A  
HETATM   11  N   UNL     1      -8.665  11.553  68.136  1.00  0.00    -0.151 NA 
HETATM   12  O   UNL     1      -9.579   5.194  67.633  1.00  0.00    -0.128 OA 
HETATM   13  C   UNL     1      -8.712  10.214  67.930  1.00  0.00    -0.122 A  
HETATM   14  C   UNL     1      -9.817   9.466  68.328  1.00  0.00    -0.180 A  
HETATM   15  N   UNL     1      -7.611   9.552  67.319  1.00  0.00    -0.091 NA 
HETATM   16  C   UNL     1      -9.827   8.008  68.102  1.00  0.00    -0.170 C  
HETATM   17  O   UNL     1      -7.551   5.421  66.678  1.00  0.00    -0.086 OA 
HETATM   18  C   UNL     1     -10.877  10.099  68.969  1.00  0.00    -0.257 A  
HETATM   19  F   UNL     1     -11.828  12.071  69.808  1.00  0.00    -0.327 F  
HETATM   20  C   UNL     1      -8.658   7.378  67.448  1.00  0.00    -0.118 C  
HETATM   21  O   UNL     1     -10.782   7.317  68.453  1.00  0.00    -0.189 OA 
HETATM   22  C   UNL     1     -10.807  11.472  69.173  1.00  0.00    -0.195 A  
HETATM   23  C   UNL     1      -8.531   5.929  67.205  1.00  0.00    -0.103 C  
HETATM   24  C   UNL     1      -7.656   8.191  67.094  1.00  0.00    -0.096 C  
BRANCH  15  25
HETATM   25  C   UNL     1      -6.334  10.281  67.210  1.00  0.00    -0.066 C  
HETATM   26  C   UNL     1      -5.793  10.585  65.830  1.00  0.00    -0.120 C  
HETATM   27  C   UNL     1      -6.187  11.707  66.738  1.00  0.00    -0.123 C  
ENDBRANCH  15  25
ENDBRANCH   7  10
BRANCH   9  28
HETATM   28  C   UNL     1     -10.598  16.116  66.453  1.00  0.00    -0.269 C  
HETATM   29  H1  UNL     1     -10.101  15.975  64.443  1.00  0.00     0.000 HD 
HETATM   30  N   UNL     1      -9.725  15.709  65.352  1.00  0.00    -0.340 NA 
HETATM   31  H2  UNL     1      -9.524  14.710  65.391  1.00  0.00     0.000 HD 
ENDBRANCH   9  28
ENDBRANCH   3   5
ENDBRANCH   2   3
TORSDOF 5
ENDMDL
MODEL      150
REMARK 921   NORMALIZED FREE ENERGY PREDICTED BY IDOCK:   -2.35 KCAL/MOL
REMARK 922        TOTAL FREE ENERGY PREDICTED BY IDOCK:   -4.19 KCAL/MOL
REMARK 923 INTER-LIGAND FREE ENERGY PREDICTED BY IDOCK:   -3.61 KCAL/MOL
REMARK 924 INTRA-LIGAND FREE ENERGY PREDICTED BY IDOCK:   -0.57 KCAL/MOL
REMARK 927      BINDING AFFINITY PREDICTED BY RF-SCORE:    0.00 PKD
ROOT
HETATM    1  C   UNL     1      -9.286   4.943  62.491  1.00  0.00     0.021 C  
HETATM    2  O   UNL     1      -8.686   4.221  63.559  1.00  0.00    -0.109 OA 
ENDROOT
BRANCH   2   3
HETATM    3  N   UNL     1      -9.685   3.524  64.254  1.00  0.00    -0.159 NA 
HETATM    4  H   UNL     1     -10.316   2.839  63.838  1.00  0.00     0.000 HD 
BRANCH   3   5
HETATM    5  C   UNL     1      -9.690   3.877  65.504  1.00  0.00    -0.176 C  
HETATM    6  C   UNL     1     -10.159   5.199  66.053  1.00  0.00    -0.168 C  
HETATM    7  N   UNL     1      -9.588   5.225  67.401  1.00  0.00    -0.127 NA 
HETATM    8  C   UNL     1      -9.013   3.917  67.767  1.00  0.00    -0.129 C  
HETATM    9  C   UNL     1      -9.262   2.943  66.604  1.00  0.00    -0.134 C  
BRANCH   7  10
HETATM   10  C   UNL     1      -8.905   6.377  67.781  1.00  0.00    -0.112 A  
HETATM   11  N   UNL     1      -8.945   7.441  66.943  1.00  0.00    -0.130 NA 
HETATM   12  O   UNL     1      -5.721  12.572  69.134  1.00  0.00    -0.068 OA 
HETATM   13  C   UNL     1      -8.294   8.591  67.245  1.00  0.00    -0.115 A  
HETATM   14  C   UNL     1      -7.570   8.716  68.428  1.00  0.00    -0.096 A  
HETATM   15  N   UNL     1      -8.365   9.700  66.355  1.00  0.00    -0.119 NA 
HETATM   16  C   UNL     1      -6.887   9.988  68.730  1.00  0.00    -0.057 C  
HETATM   17  O   UNL     1      -6.487  13.347  67.162  1.00  0.00    -0.220 OA 
HETATM   18  C   UNL     1      -7.535   7.653  69.324  1.00  0.00    -0.094 A  
HETATM   19  F   UNL     1      -8.186   5.470  69.876  1.00  0.00    -0.096 F  
HETATM   20  C   UNL     1      -6.984  11.101  67.759  1.00  0.00    -0.078 C  
HETATM   21  O   UNL     1      -6.249  10.135  69.772  1.00  0.00    -0.046 OA 
HETATM   22  C   UNL     1      -8.212   6.484  68.996  1.00  0.00    -0.116 A  
HETATM   23  C   UNL     1      -6.383  12.432  67.967  1.00  0.00    -0.082 C  
HETATM   24  C   UNL     1      -7.695  10.870  66.649  1.00  0.00    -0.146 C  
BRANCH  15  25
HETATM   25  C   UNL     1      -9.387   9.676  65.293  1.00  0.00    -0.260 C  
HETATM   26  C   UNL     1     -10.058  10.977  64.909  1.00  0.00    -0.359 C  
HETATM   27  C   UNL     1      -9.213  10.253  63.909  1.00  0.00    -0.312 C  
ENDBRANCH  15  25
ENDBRANCH   7  10
BRANCH   9  28
HETATM   28  C   UNL     1      -8.034   2.117  66.230  1.00  0.00    -0.078 C  
HETATM   29  H1  UNL     1      -5.973   2.332  66.106  1.00  0.00     0.000 HD 
HETATM   30  N   UNL     1      -6.793   2.883  66.356  1.00  0.00    -0.051 NA 
HETATM   31  H2  UNL     1      -6.700   3.282  67.291  1.00  0.00     0.000 HD 
ENDBRANCH   9  28
ENDBRANCH   3   5
ENDBRANCH   2   3
TORSDOF 5
ENDMDL
MODEL      151
REMARK 921   NORMALIZED FREE ENERGY PREDICTED BY IDOCK:   -2.25 KCAL/MOL
REMARK 922        TOTAL FREE ENERGY PREDICTED BY IDOCK:   -4.07 KCAL/MOL
REMARK 923 INTER-LIGAND FREE ENERGY PREDICTED BY IDOCK:   -3.09 KCAL/MOL
REMARK 924 INTRA-LIGAND FREE ENERGY PREDICTED BY IDOCK:   -0.98 KCAL/MOL
REMARK 927      BINDING AFFINITY PREDICTED BY RF-SCORE:    0.00 PKD
ROOT
HETATM    1  C   UNL     1      -5.728  14.292  67.997  1.00  0.00    -0.131 C  
HETATM    2  O   UNL     1      -6.591  13.165  68.082  1.00  0.00    -0.082 OA 
ENDROOT
BRANCH   2   3
HETATM    3  N   UNL     1      -7.671  13.353  67.207  1.00  0.00    -0.329 NA 
HETATM    4  H   UNL     1      -7.628  13.869  66.329  1.00  0.00     0.000 HD 
BRANCH   3   5
HETATM    5  C   UNL     1      -8.734  12.773  67.677  1.00  0.00    -0.180 C  
HETATM    6  C   UNL     1      -8.846  12.058  68.998  1.00  0.00     0.360 C  
HETATM    7  N   UNL     1     -10.073  11.273  68.853  1.00  0.00    -0.196 NA 
HETATM    8  C   UNL     1     -10.813  11.653  67.634  1.00  0.00    -0.225 C  
HETATM    9  C   UNL     1     -10.051  12.799  66.950  1.00  0.00    -0.234 C  
BRANCH   7  10
HETATM   10  C   UNL     1     -10.013   9.926  69.197  1.00  0.00    -0.198 A  
HETATM   11  N   UNL     1      -9.786   9.031  68.205  1.00  0.00    -0.160 NA 
HETATM   12  O   UNL     1      -9.505   2.928  70.256  1.00  0.00    -0.154 OA 
HETATM   13  C   UNL     1      -9.725   7.702  68.466  1.00  0.00    -0.158 A  
HETATM   14  C   UNL     1      -9.888   7.217  69.761  1.00  0.00    -0.177 A  
HETATM   15  N   UNL     1      -9.471   6.783  67.409  1.00  0.00    -0.131 NA 
HETATM   16  C   UNL     1      -9.799   5.766  70.010  1.00  0.00    -0.180 C  
HETATM   17  O   UNL     1      -9.171   2.662  68.044  1.00  0.00    -0.170 OA 
HETATM   18  C   UNL     1     -10.091   8.113  70.806  1.00  0.00    -0.211 A  
HETATM   19  F   UNL     1     -10.326  10.328  71.535  1.00  0.00     0.285 F  
HETATM   20  C   UNL     1      -9.547   4.858  68.869  1.00  0.00    -0.224 C  
HETATM   21  O   UNL     1      -9.926   5.307  71.144  1.00  0.00    -0.182 OA 
HETATM   22  C   UNL     1     -10.147   9.471  70.517  1.00  0.00    -0.285 A  
HETATM   23  C   UNL     1      -9.396   3.397  68.995  1.00  0.00    -0.169 C  
HETATM   24  C   UNL     1      -9.419   5.427  67.664  1.00  0.00    -0.122 C  
BRANCH  15  25
HETATM   25  C   UNL     1      -8.975   7.316  66.127  1.00  0.00    -0.149 C  
HETATM   26  C   UNL     1      -7.747   6.684  65.510  1.00  0.00    -0.097 C  
HETATM   27  C   UNL     1      -9.061   6.602  64.800  1.00  0.00     0.768 C  
ENDBRANCH  15  25
ENDBRANCH   7  10
BRANCH   9  28
HETATM   28  C   UNL     1      -9.895  12.611  65.443  1.00  0.00    -0.141 C  
HETATM   29  H1  UNL     1      -8.623  11.669  64.100  1.00  0.00     0.000 HD 
HETATM   30  N   UNL     1      -8.727  11.795  65.106  1.00  0.00    -0.214 NA 
HETATM   31  H2  UNL     1      -8.752  10.897  65.591  1.00  0.00     0.000 HD 
ENDBRANCH   9  28
ENDBRANCH   3   5
ENDBRANCH   2   3
TORSDOF 5
ENDMDL
MODEL      152
REMARK 921   NORMALIZED FREE ENERGY PREDICTED BY IDOCK:   -2.20 KCAL/MOL
REMARK 922        TOTAL FREE ENERGY PREDICTED BY IDOCK:   -4.00 KCAL/MOL
REMARK 923 INTER-LIGAND FREE ENERGY PREDICTED BY IDOCK:   -3.31 KCAL/MOL
REMARK 924 INTRA-LIGAND FREE ENERGY PREDICTED BY IDOCK:   -0.69 KCAL/MOL
REMARK 927      BINDING AFFINITY PREDICTED BY RF-SCORE:    0.00 PKD
ROOT
HETATM    1  C   UNL     1     -11.599   7.969  72.521  1.00  0.00    -0.403 C  
HETATM    2  O   UNL     1     -10.889   6.810  72.104  1.00  0.00    -0.217 OA 
ENDROOT
BRANCH   2   3
HETATM    3  N   UNL     1      -9.842   6.569  73.005  1.00  0.00    -0.162 NA 
HETATM    4  H   UNL     1      -9.815   6.899  73.970  1.00  0.00     0.000 HD 
BRANCH   3   5
HETATM    5  C   UNL     1      -8.911   5.866  72.433  1.00  0.00    -0.137 C  
HETATM    6  C   UNL     1      -7.876   6.379  71.468  1.00  0.00    -0.101 C  
HETATM    7  N   UNL     1      -7.366   5.158  70.841  1.00  0.00    -0.070 NA 
HETATM    8  C   UNL     1      -7.860   3.952  71.533  1.00  0.00    -0.061 C  
HETATM    9  C   UNL     1      -8.716   4.403  72.728  1.00  0.00    -0.111 C  
BRANCH   7  10
HETATM   10  C   UNL     1      -7.290   5.138  69.452  1.00  0.00    -0.057 A  
HETATM   11  N   UNL     1      -7.871   6.158  68.773  1.00  0.00    -0.099 NA 
HETATM   12  O   UNL     1      -7.209   5.706  62.379  1.00  0.00    -0.042 OA 
HETATM   13  C   UNL     1      -7.845   6.198  67.418  1.00  0.00    -0.098 A  
HETATM   14  C   UNL     1      -7.215   5.196  66.684  1.00  0.00    -0.081 A  
HETATM   15  N   UNL     1      -8.448   7.288  66.730  1.00  0.00    -0.118 NA 
HETATM   16  C   UNL     1      -7.193   5.282  65.211  1.00  0.00    -0.067 C  
HETATM   17  O   UNL     1      -8.393   7.615  62.562  1.00  0.00    -0.123 OA 
HETATM   18  C   UNL     1      -6.583   4.153  67.351  1.00  0.00    -0.046 A  
HETATM   19  F   UNL     1      -5.991   3.130  69.375  1.00  0.00    -0.020 F  
HETATM   20  C   UNL     1      -7.851   6.431  64.550  1.00  0.00    -0.115 C  
HETATM   21  O   UNL     1      -6.635   4.420  64.533  1.00  0.00    -0.041 OA 
HETATM   22  C   UNL     1      -6.619   4.133  68.741  1.00  0.00    -0.045 A  
HETATM   23  C   UNL     1      -7.860   6.650  63.092  1.00  0.00    -0.103 C  
HETATM   24  C   UNL     1      -8.437   7.330  65.351  1.00  0.00    -0.087 C  
BRANCH  15  25
HETATM   25  C   UNL     1      -8.808   8.488  67.506  1.00  0.00    -0.135 C  
HETATM   26  C   UNL     1      -8.271   9.828  67.053  1.00  0.00    -0.117 C  
HETATM   27  C   UNL     1      -9.745   9.575  67.037  1.00  0.00    -0.229 C  
ENDBRANCH  15  25
ENDBRANCH   7  10
BRANCH   9  28
HETATM   28  C   UNL     1     -10.036   3.646  72.849  1.00  0.00    -0.154 C  
HETATM   29  H1  UNL     1     -11.856   3.806  73.835  1.00  0.00     0.000 HD 
HETATM   30  N   UNL     1     -10.974   4.312  73.753  1.00  0.00    -0.270 NA 
HETATM   31  H2  UNL     1     -11.129   5.282  73.476  1.00  0.00     0.000 HD 
ENDBRANCH   9  28
ENDBRANCH   3   5
ENDBRANCH   2   3
TORSDOF 5
ENDMDL
MODEL      153
REMARK 921   NORMALIZED FREE ENERGY PREDICTED BY IDOCK:   -2.09 KCAL/MOL
REMARK 922        TOTAL FREE ENERGY PREDICTED BY IDOCK:   -3.86 KCAL/MOL
REMARK 923 INTER-LIGAND FREE ENERGY PREDICTED BY IDOCK:   -4.53 KCAL/MOL
REMARK 924 INTRA-LIGAND FREE ENERGY PREDICTED BY IDOCK:    0.67 KCAL/MOL
REMARK 927      BINDING AFFINITY PREDICTED BY RF-SCORE:    0.00 PKD
ROOT
HETATM    1  C   UNL     1     -10.444  10.083  70.294  1.00  0.00    -0.272 C  
HETATM    2  O   UNL     1      -9.316   9.339  70.735  1.00  0.00    -0.241 OA 
ENDROOT
BRANCH   2   3
HETATM    3  N   UNL     1      -9.629   8.718  71.953  1.00  0.00    -0.300 NA 
HETATM    4  H   UNL     1      -9.671   9.191  72.856  1.00  0.00     0.000 HD 
BRANCH   3   5
HETATM    5  C   UNL     1      -9.857   7.453  71.766  1.00  0.00    -0.167 C  
HETATM    6  C   UNL     1      -8.863   6.434  71.274  1.00  0.00    -0.138 C  
HETATM    7  N   UNL     1      -9.708   5.309  70.868  1.00  0.00    -0.174 NA 
HETATM    8  C   UNL     1     -11.105   5.502  71.300  1.00  0.00    -0.064 C  
HETATM    9  C   UNL     1     -11.183   6.820  72.088  1.00  0.00    -0.294 C  
BRANCH   7  10
HETATM   10  C   UNL     1      -9.475   4.759  69.611  1.00  0.00    -0.153 A  
HETATM   11  N   UNL     1      -9.025   5.584  68.633  1.00  0.00    -0.114 NA 
HETATM   12  O   UNL     1      -8.010   2.604  63.010  1.00  0.00    -0.067 OA 
HETATM   13  C   UNL     1      -8.788   5.118  67.382  1.00  0.00    -0.105 A  
HETATM   14  C   UNL     1      -8.993   3.777  67.066  1.00  0.00    -0.157 A  
HETATM   15  N   UNL     1      -8.301   6.001  66.378  1.00  0.00    -0.115 NA 
HETATM   16  C   UNL     1      -8.708   3.303  65.698  1.00  0.00    -0.124 C  
HETATM   17  O   UNL     1      -7.438   4.721  62.493  1.00  0.00    -0.042 OA 
HETATM   18  C   UNL     1      -9.424   2.899  68.054  1.00  0.00    -0.214 A  
HETATM   19  F   UNL     1     -10.057   2.537  70.281  1.00  0.00    -0.051 F  
HETATM   20  C   UNL     1      -8.217   4.271  64.692  1.00  0.00    -0.104 C  
HETATM   21  O   UNL     1      -8.866   2.123  65.389  1.00  0.00    -0.116 OA 
HETATM   22  C   UNL     1      -9.658   3.397  69.331  1.00  0.00    -0.073 A  
HETATM   23  C   UNL     1      -7.858   3.912  63.308  1.00  0.00    -0.074 C  
HETATM   24  C   UNL     1      -8.068   5.538  65.099  1.00  0.00    -0.124 C  
BRANCH  15  25
HETATM   25  C   UNL     1      -7.776   7.313  66.799  1.00  0.00    -0.109 C  
HETATM   26  C   UNL     1      -8.158   7.837  68.166  1.00  0.00    -0.123 C  
HETATM   27  C   UNL     1      -6.727   7.526  67.863  1.00  0.00    -0.066 C  
ENDBRANCH  15  25
ENDBRANCH   7  10
BRANCH   9  28
HETATM   28  C   UNL     1     -12.367   7.697  71.687  1.00  0.00    -0.326 C  
HETATM   29  H1  UNL     1     -13.608   9.139  72.518  1.00  0.00     0.000 HD 
HETATM   30  N   UNL     1     -12.817   8.553  72.786  1.00  0.00    -0.626 NA 
HETATM   31  H2  UNL     1     -12.049   9.114  73.155  1.00  0.00     0.000 HD 
ENDBRANCH   9  28
ENDBRANCH   3   5
ENDBRANCH   2   3
TORSDOF 5
ENDMDL
MODEL      154
REMARK 921   NORMALIZED FREE ENERGY PREDICTED BY IDOCK:   -1.98 KCAL/MOL
REMARK 922        TOTAL FREE ENERGY PREDICTED BY IDOCK:   -3.72 KCAL/MOL
REMARK 923 INTER-LIGAND FREE ENERGY PREDICTED BY IDOCK:   -4.44 KCAL/MOL
REMARK 924 INTRA-LIGAND FREE ENERGY PREDICTED BY IDOCK:    0.72 KCAL/MOL
REMARK 927      BINDING AFFINITY PREDICTED BY RF-SCORE:    0.00 PKD
ROOT
HETATM    1  C   UNL     1      -7.227  21.259  62.749  1.00  0.00     0.455 C  
HETATM    2  O   UNL     1      -6.361  20.945  63.832  1.00  0.00    -0.315 OA 
ENDROOT
BRANCH   2   3
HETATM    3  N   UNL     1      -5.929  19.617  63.698  1.00  0.00    -0.378 NA 
HETATM    4  H   UNL     1      -5.799  19.132  62.811  1.00  0.00     0.000 HD 
BRANCH   3   5
HETATM    5  C   UNL     1      -5.718  19.095  64.869  1.00  0.00    -0.250 C  
HETATM    6  C   UNL     1      -5.823  17.634  65.223  1.00  0.00     0.376 C  
HETATM    7  N   UNL     1      -5.888  17.647  66.686  1.00  0.00    -0.163 NA 
HETATM    8  C   UNL     1      -5.595  18.988  67.226  1.00  0.00    -0.164 C  
HETATM    9  C   UNL     1      -5.267  19.917  66.046  1.00  0.00    -0.167 C  
BRANCH   7  10
HETATM   10  C   UNL     1      -6.898  16.899  67.285  1.00  0.00    -0.166 A  
HETATM   11  N   UNL     1      -7.978  17.564  67.761  1.00  0.00    -0.205 NA 
HETATM   12  O   UNL     1     -12.431  13.707  70.375  1.00  0.00    -0.326 OA 
HETATM   13  C   UNL     1      -8.994  16.900  68.366  1.00  0.00    -0.244 A  
HETATM   14  C   UNL     1      -8.960  15.516  68.510  1.00  0.00    -0.191 A  
HETATM   15  N   UNL     1     -10.125  17.620  68.844  1.00  0.00    -0.362 NA 
HETATM   16  C   UNL     1     -10.092  14.826  69.160  1.00  0.00    -0.197 C  
HETATM   17  O   UNL     1     -13.382  15.730  70.661  1.00  0.00    -0.486 OA 
HETATM   18  C   UNL     1      -7.880  14.801  68.004  1.00  0.00    -0.134 A  
HETATM   19  F   UNL     1      -5.821  14.800  66.885  1.00  0.00     0.394 F  
HETATM   20  C   UNL     1     -11.234  15.629  69.650  1.00  0.00    -0.310 C  
HETATM   21  O   UNL     1     -10.099  13.602  69.292  1.00  0.00     0.078 OA 
HETATM   22  C   UNL     1      -6.851  15.501  67.385  1.00  0.00    -0.189 A  
HETATM   23  C   UNL     1     -12.439  15.054  70.276  1.00  0.00    -0.337 C  
HETATM   24  C   UNL     1     -11.158  16.954  69.471  1.00  0.00     0.071 C  
BRANCH  15  25
HETATM   25  C   UNL     1     -10.305  19.013  68.395  1.00  0.00    -0.308 C  
HETATM   26  C   UNL     1     -10.106  19.330  66.930  1.00  0.00    -0.467 C  
HETATM   27  C   UNL     1     -11.454  19.510  67.552  1.00  0.00     0.574 C  
ENDBRANCH  15  25
ENDBRANCH   7  10
BRANCH   9  28
HETATM   28  C   UNL     1      -5.971  21.270  66.123  1.00  0.00    -0.256 C  
HETATM   29  H1  UNL     1      -7.580  22.151  67.094  1.00  0.00     0.000 HD 
HETATM   30  N   UNL     1      -7.109  21.248  67.043  1.00  0.00    -0.776 NA 
HETATM   31  H2  UNL     1      -6.828  20.924  67.969  1.00  0.00     0.000 HD 
ENDBRANCH   9  28
ENDBRANCH   3   5
ENDBRANCH   2   3
TORSDOF 5
ENDMDL
MODEL      155
REMARK 921   NORMALIZED FREE ENERGY PREDICTED BY IDOCK:   -1.47 KCAL/MOL
REMARK 922        TOTAL FREE ENERGY PREDICTED BY IDOCK:   -3.05 KCAL/MOL
REMARK 923 INTER-LIGAND FREE ENERGY PREDICTED BY IDOCK:   -2.85 KCAL/MOL
REMARK 924 INTRA-LIGAND FREE ENERGY PREDICTED BY IDOCK:   -0.21 KCAL/MOL
REMARK 927      BINDING AFFINITY PREDICTED BY RF-SCORE:    0.00 PKD
ROOT
HETATM    1  C   UNL     1     -11.453  13.879  64.435  1.00  0.00    -0.361 C  
HETATM    2  O   UNL     1     -11.838  12.948  65.439  1.00  0.00    -0.357 OA 
ENDROOT
BRANCH   2   3
HETATM    3  N   UNL     1     -11.584  13.508  66.699  1.00  0.00    -0.346 NA 
HETATM    4  H   UNL     1     -12.288  13.933  67.302  1.00  0.00     0.000 HD 
BRANCH   3   5
HETATM    5  C   UNL     1     -10.321  13.407  66.988  1.00  0.00    -0.247 C  
HETATM    6  C   UNL     1      -9.387  12.321  66.522  1.00  0.00    -0.230 C  
HETATM    7  N   UNL     1      -8.244  12.449  67.427  1.00  0.00    -0.171 NA 
HETATM    8  C   UNL     1      -8.336  13.678  68.239  1.00  0.00    -0.165 C  
HETATM    9  C   UNL     1      -9.600  14.441  67.809  1.00  0.00    -0.216 C  
BRANCH   7  10
HETATM   10  C   UNL     1      -7.781  11.288  68.037  1.00  0.00    -0.108 A  
HETATM   11  N   UNL     1      -7.595  10.195  67.256  1.00  0.00    -0.095 NA 
HETATM   12  O   UNL     1      -5.369   5.075  70.476  1.00  0.00    -0.004 OA 
HETATM   13  C   UNL     1      -7.156   9.027  67.786  1.00  0.00    -0.079 A  
HETATM   14  C   UNL     1      -6.877   8.916  69.146  1.00  0.00    -0.055 A  
HETATM   15  N   UNL     1      -6.954   7.898  66.942  1.00  0.00    -0.072 NA 
HETATM   16  C   UNL     1      -6.385   7.632  69.683  1.00  0.00    -0.031 C  
HETATM   17  O   UNL     1      -5.530   4.243  68.388  1.00  0.00    -0.011 OA 
HETATM   18  C   UNL     1      -7.027  10.027  69.968  1.00  0.00    -0.135 A  
HETATM   19  F   UNL     1      -7.601  12.287  70.203  1.00  0.00     0.856 F  
HETATM   20  C   UNL     1      -6.209   6.490  68.760  1.00  0.00    -0.030 C  
HETATM   21  O   UNL     1      -6.117   7.505  70.877  1.00  0.00    -0.035 OA 
HETATM   22  C   UNL     1      -7.476  11.216  69.404  1.00  0.00    -0.026 A  
HETATM   23  C   UNL     1      -5.686   5.173  69.167  1.00  0.00    -0.015 C  
HETATM   24  C   UNL     1      -6.519   6.702  67.474  1.00  0.00    -0.045 C  
BRANCH  15  25
HETATM   25  C   UNL     1      -6.928   8.115  65.484  1.00  0.00    -0.063 C  
HETATM   26  C   UNL     1      -5.964   7.299  64.651  1.00  0.00    -0.037 C  
HETATM   27  C   UNL     1      -7.438   7.136  64.453  1.00  0.00    -0.097 C  
ENDBRANCH  15  25
ENDBRANCH   7  10
BRANCH   9  28
HETATM   28  C   UNL     1     -10.434  14.944  68.985  1.00  0.00    -0.247 C  
HETATM   29  H1  UNL     1     -11.755  14.206  70.406  1.00  0.00     0.000 HD 
HETATM   30  N   UNL     1     -11.197  13.870  69.621  1.00  0.00    -0.424 NA 
HETATM   31  H2  UNL     1     -10.588  13.101  69.903  1.00  0.00     0.000 HD 
ENDBRANCH   9  28
ENDBRANCH   3   5
ENDBRANCH   2   3
TORSDOF 5
ENDMDL
MODEL      156
REMARK 921   NORMALIZED FREE ENERGY PREDICTED BY IDOCK:   -1.46 KCAL/MOL
REMARK 922        TOTAL FREE ENERGY PREDICTED BY IDOCK:   -3.04 KCAL/MOL
REMARK 923 INTER-LIGAND FREE ENERGY PREDICTED BY IDOCK:   -2.92 KCAL/MOL
REMARK 924 INTRA-LIGAND FREE ENERGY PREDICTED BY IDOCK:   -0.12 KCAL/MOL
REMARK 927      BINDING AFFINITY PREDICTED BY RF-SCORE:    0.00 PKD
ROOT
HETATM    1  C   UNL     1     -11.765   7.004  72.888  1.00  0.00     0.065 C  
HETATM    2  O   UNL     1     -11.245   5.895  72.166  1.00  0.00    -0.266 OA 
ENDROOT
BRANCH   2   3
HETATM    3  N   UNL     1     -10.175   5.345  72.887  1.00  0.00    -0.179 NA 
HETATM    4  H   UNL     1     -10.259   4.868  73.784  1.00  0.00     0.000 HD 
BRANCH   3   5
HETATM    5  C   UNL     1      -9.060   5.533  72.246  1.00  0.00    -0.142 C  
HETATM    6  C   UNL     1      -8.716   6.724  71.391  1.00  0.00    -0.131 C  
HETATM    7  N   UNL     1      -7.568   6.258  70.611  1.00  0.00    -0.094 NA 
HETATM    8  C   UNL     1      -7.069   4.963  71.111  1.00  0.00    -0.052 C  
HETATM    9  C   UNL     1      -7.911   4.566  72.334  1.00  0.00    -0.090 C  
BRANCH   7  10
HETATM   10  C   UNL     1      -7.606   6.465  69.235  1.00  0.00    -0.099 A  
HETATM   11  N   UNL     1      -7.645   7.745  68.790  1.00  0.00    -0.099 NA 
HETATM   12  O   UNL     1      -7.729   8.238  62.365  1.00  0.00    -0.115 OA 
HETATM   13  C   UNL     1      -7.694   8.020  67.463  1.00  0.00    -0.106 A  
HETATM   14  C   UNL     1      -7.699   6.997  66.519  1.00  0.00    -0.104 A  
HETATM   15  N   UNL     1      -7.719   9.373  67.021  1.00  0.00    -0.091 NA 
HETATM   16  C   UNL     1      -7.736   7.336  65.083  1.00  0.00    -0.113 C  
HETATM   17  O   UNL     1      -7.789  10.407  62.971  1.00  0.00    -0.150 OA 
HETATM   18  C   UNL     1      -7.627   5.674  66.942  1.00  0.00    -0.096 A  
HETATM   19  F   UNL     1      -7.489   4.135  68.704  1.00  0.00    -0.054 F  
HETATM   20  C   UNL     1      -7.776   8.760  64.684  1.00  0.00    -0.119 C  
HETATM   21  O   UNL     1      -7.728   6.456  64.223  1.00  0.00    -0.096 OA 
HETATM   22  C   UNL     1      -7.575   5.414  68.307  1.00  0.00    -0.081 A  
HETATM   23  C   UNL     1      -7.773   9.225  63.285  1.00  0.00    -0.116 C  
HETATM   24  C   UNL     1      -7.780   9.662  65.673  1.00  0.00    -0.107 C  
BRANCH  15  25
HETATM   25  C   UNL     1      -7.379  10.429  67.992  1.00  0.00    -0.085 C  
HETATM   26  C   UNL     1      -7.203  11.844  67.485  1.00  0.00    -0.125 C  
HETATM   27  C   UNL     1      -8.313  11.529  68.438  1.00  0.00    -0.154 C  
ENDBRANCH  15  25
ENDBRANCH   7  10
BRANCH   9  28
HETATM   28  C   UNL     1      -8.365   3.108  72.312  1.00  0.00    -0.074 C  
HETATM   29  H1  UNL     1      -8.278   1.454  71.061  1.00  0.00     0.000 HD 
HETATM   30  N   UNL     1      -7.975   2.427  71.077  1.00  0.00    -0.049 NA 
HETATM   31  H2  UNL     1      -6.970   2.503  70.915  1.00  0.00     0.000 HD 
ENDBRANCH   9  28
ENDBRANCH   3   5
ENDBRANCH   2   3
TORSDOF 5
ENDMDL
MODEL      157
REMARK 921   NORMALIZED FREE ENERGY PREDICTED BY IDOCK:   -1.45 KCAL/MOL
REMARK 922        TOTAL FREE ENERGY PREDICTED BY IDOCK:   -3.03 KCAL/MOL
REMARK 923 INTER-LIGAND FREE ENERGY PREDICTED BY IDOCK:   -2.86 KCAL/MOL
REMARK 924 INTRA-LIGAND FREE ENERGY PREDICTED BY IDOCK:   -0.17 KCAL/MOL
REMARK 927      BINDING AFFINITY PREDICTED BY RF-SCORE:    0.00 PKD
ROOT
HETATM    1  C   UNL     1     -11.195  18.046  68.429  1.00  0.00     0.702 C  
HETATM    2  O   UNL     1      -9.798  18.311  68.429  1.00  0.00    -0.329 OA 
ENDROOT
BRANCH   2   3
HETATM    3  N   UNL     1      -9.145  17.311  69.164  1.00  0.00    -0.080 NA 
HETATM    4  H   UNL     1      -8.897  17.380  70.151  1.00  0.00     0.000 HD 
BRANCH   3   5
HETATM    5  C   UNL     1      -8.903  16.284  68.406  1.00  0.00    -0.202 C  
HETATM    6  C   UNL     1      -9.781  15.071  68.244  1.00  0.00    -0.215 C  
HETATM    7  N   UNL     1      -8.887  14.087  67.631  1.00  0.00    -0.179 NA 
HETATM    8  C   UNL     1      -7.616  14.706  67.209  1.00  0.00    -0.143 C  
HETATM    9  C   UNL     1      -7.690  16.210  67.518  1.00  0.00    -0.170 C  
BRANCH   7  10
HETATM   10  C   UNL     1      -8.847  12.819  68.203  1.00  0.00    -0.194 A  
HETATM   11  N   UNL     1      -7.708  12.448  68.837  1.00  0.00     0.002 NA 
HETATM   12  O   UNL     1      -7.994   6.541  71.399  1.00  0.00    -0.105 OA 
HETATM   13  C   UNL     1      -7.595  11.223  69.407  1.00  0.00     0.050 A  
HETATM   14  C   UNL     1      -8.648  10.312  69.364  1.00  0.00    -0.167 A  
HETATM   15  N   UNL     1      -6.395  10.863  70.081  1.00  0.00    -0.143 NA 
HETATM   16  C   UNL     1      -8.495   8.994  70.010  1.00  0.00    -0.145 C  
HETATM   17  O   UNL     1      -5.903   7.162  71.964  1.00  0.00    -0.037 OA 
HETATM   18  C   UNL     1      -9.841  10.675  68.748  1.00  0.00    -0.196 A  
HETATM   19  F   UNL     1     -11.098  12.283  67.595  1.00  0.00    -0.245 F  
HETATM   20  C   UNL     1      -7.217   8.671  70.682  1.00  0.00    -0.058 C  
HETATM   21  O   UNL     1      -9.411   8.172  70.000  1.00  0.00    -0.158 OA 
HETATM   22  C   UNL     1      -9.936  11.937  68.172  1.00  0.00    -0.197 A  
HETATM   23  C   UNL     1      -6.958   7.408  71.398  1.00  0.00    -0.055 C  
HETATM   24  C   UNL     1      -6.267   9.614  70.654  1.00  0.00    -0.084 C  
BRANCH  15  25
HETATM   25  C   UNL     1      -5.433  11.931  70.409  1.00  0.00    -0.142 C  
HETATM   26  C   UNL     1      -5.970  13.272  70.857  1.00  0.00     0.007 C  
HETATM   27  C   UNL     1      -5.151  12.447  71.799  1.00  0.00    -0.022 C  
ENDBRANCH  15  25
ENDBRANCH   7  10
BRANCH   9  28
HETATM   28  C   UNL     1      -6.433  16.754  68.193  1.00  0.00    -0.143 C  
HETATM   29  H1  UNL     1      -5.568  16.830  70.078  1.00  0.00     0.000 HD 
HETATM   30  N   UNL     1      -6.407  16.466  69.627  1.00  0.00    -0.212 NA 
HETATM   31  H2  UNL     1      -6.519  15.468  69.806  1.00  0.00     0.000 HD 
ENDBRANCH   9  28
ENDBRANCH   3   5
ENDBRANCH   2   3
TORSDOF 5
ENDMDL
MODEL      158
REMARK 921   NORMALIZED FREE ENERGY PREDICTED BY IDOCK:   -1.16 KCAL/MOL
REMARK 922        TOTAL FREE ENERGY PREDICTED BY IDOCK:   -2.66 KCAL/MOL
REMARK 923 INTER-LIGAND FREE ENERGY PREDICTED BY IDOCK:   -4.18 KCAL/MOL
REMARK 924 INTRA-LIGAND FREE ENERGY PREDICTED BY IDOCK:    1.52 KCAL/MOL
REMARK 927      BINDING AFFINITY PREDICTED BY RF-SCORE:    0.00 PKD
ROOT
HETATM    1  C   UNL     1     -10.043  10.441  64.941  1.00  0.00    -0.312 C  
HETATM    2  O   UNL     1      -8.882  11.092  65.443  1.00  0.00    -0.180 OA 
ENDROOT
BRANCH   2   3
HETATM    3  N   UNL     1      -7.789  10.220  65.335  1.00  0.00    -0.146 NA 
HETATM    4  H   UNL     1      -6.836  10.504  65.110  1.00  0.00     0.000 HD 
BRANCH   3   5
HETATM    5  C   UNL     1      -8.167   8.998  65.562  1.00  0.00    -0.122 C  
HETATM    6  C   UNL     1      -9.505   8.567  66.103  1.00  0.00    -0.217 C  
HETATM    7  N   UNL     1      -9.266   7.189  66.534  1.00  0.00    -0.159 NA 
HETATM    8  C   UNL     1      -7.951   6.702  66.074  1.00  0.00    -0.112 C  
HETATM    9  C   UNL     1      -7.294   7.815  65.241  1.00  0.00    -0.078 C  
BRANCH   7  10
HETATM   10  C   UNL     1      -9.689   6.838  67.813  1.00  0.00    -0.124 A  
HETATM   11  N   UNL     1      -9.221   5.680  68.338  1.00  0.00    -0.117 NA 
HETATM   12  O   UNL     1     -11.375   4.495  74.295  1.00  0.00    -0.112 OA 
HETATM   13  C   UNL     1      -9.600   5.272  69.574  1.00  0.00    -0.152 A  
HETATM   14  C   UNL     1     -10.478   6.032  70.342  1.00  0.00    -0.307 A  
HETATM   15  N   UNL     1      -9.082   4.059  70.109  1.00  0.00    -0.104 NA 
HETATM   16  C   UNL     1     -10.855   5.564  71.690  1.00  0.00    -0.204 C  
HETATM   17  O   UNL     1     -10.080   2.688  73.931  1.00  0.00    -0.101 OA 
HETATM   18  C   UNL     1     -10.952   7.241  69.845  1.00  0.00    -0.262 A  
HETATM   19  F   UNL     1     -10.997   8.819  68.112  1.00  0.00    -0.202 F  
HETATM   20  C   UNL     1     -10.296   4.287  72.187  1.00  0.00    -0.193 C  
HETATM   21  O   UNL     1     -11.618   6.219  72.399  1.00  0.00    -0.291 OA 
HETATM   22  C   UNL     1     -10.547   7.643  68.576  1.00  0.00    -0.124 A  
HETATM   23  C   UNL     1     -10.563   3.736  73.528  1.00  0.00    -0.196 C  
HETATM   24  C   UNL     1      -9.472   3.630  71.362  1.00  0.00    -0.157 C  
BRANCH  15  25
HETATM   25  C   UNL     1      -7.919   3.445  69.444  1.00  0.00    -0.049 C  
HETATM   26  C   UNL     1      -6.738   3.030  70.293  1.00  0.00    -0.033 C  
HETATM   27  C   UNL     1      -7.523   1.992  69.556  1.00  0.00    -0.043 C  
ENDBRANCH  15  25
ENDBRANCH   7  10
BRANCH   9  28
HETATM   28  C   UNL     1      -5.828   8.053  65.593  1.00  0.00    -0.037 C  
HETATM   29  H1  UNL     1      -4.685   8.740  67.184  1.00  0.00     0.000 HD 
HETATM   30  N   UNL     1      -5.664   8.581  66.948  1.00  0.00    -0.041 NA 
HETATM   31  H2  UNL     1      -6.117   7.978  67.636  1.00  0.00     0.000 HD 
ENDBRANCH   9  28
ENDBRANCH   3   5
ENDBRANCH   2   3
TORSDOF 5
ENDMDL
MODEL      159
REMARK 921   NORMALIZED FREE ENERGY PREDICTED BY IDOCK:   -1.01 KCAL/MOL
REMARK 922        TOTAL FREE ENERGY PREDICTED BY IDOCK:   -2.46 KCAL/MOL
REMARK 923 INTER-LIGAND FREE ENERGY PREDICTED BY IDOCK:   -2.22 KCAL/MOL
REMARK 924 INTRA-LIGAND FREE ENERGY PREDICTED BY IDOCK:   -0.24 KCAL/MOL
REMARK 927      BINDING AFFINITY PREDICTED BY RF-SCORE:    0.00 PKD
ROOT
HETATM    1  C   UNL     1      -9.742   5.285  62.423  1.00  0.00     0.475 C  
HETATM    2  O   UNL     1      -8.920   4.260  62.967  1.00  0.00    -0.112 OA 
ENDROOT
BRANCH   2   3
HETATM    3  N   UNL     1      -9.696   3.462  63.821  1.00  0.00    -0.134 NA 
HETATM    4  H   UNL     1     -10.228   2.642  63.530  1.00  0.00     0.000 HD 
BRANCH   3   5
HETATM    5  C   UNL     1      -9.638   3.918  65.036  1.00  0.00    -0.181 C  
HETATM    6  C   UNL     1     -10.096   5.277  65.498  1.00  0.00     0.178 C  
HETATM    7  N   UNL     1      -9.453   5.421  66.806  1.00  0.00    -0.132 NA 
HETATM    8  C   UNL     1      -8.840   4.154  67.247  1.00  0.00    -0.116 C  
HETATM    9  C   UNL     1      -9.137   3.084  66.184  1.00  0.00    -0.146 C  
BRANCH   7  10
HETATM   10  C   UNL     1      -8.767   6.607  67.051  1.00  0.00    -0.113 A  
HETATM   11  N   UNL     1      -8.864   7.149  68.290  1.00  0.00    -0.127 NA 
HETATM   12  O   UNL     1      -5.472  12.582  69.001  1.00  0.00    -0.065 OA 
HETATM   13  C   UNL     1      -8.231   8.308  68.595  1.00  0.00    -0.120 A  
HETATM   14  C   UNL     1      -7.458   8.974  67.648  1.00  0.00    -0.085 A  
HETATM   15  N   UNL     1      -8.336   8.848  69.908  1.00  0.00    -0.120 NA 
HETATM   16  C   UNL     1      -6.771  10.225  68.021  1.00  0.00    -0.066 C  
HETATM   17  O   UNL     1      -6.389  12.367  71.048  1.00  0.00     0.134 OA 
HETATM   18  C   UNL     1      -7.313   8.428  66.377  1.00  0.00    -0.083 A  
HETATM   19  F   UNL     1      -7.808   6.710  64.861  1.00  0.00    -0.087 F  
HETATM   20  C   UNL     1      -6.929  10.746  69.397  1.00  0.00    -0.116 C  
HETATM   21  O   UNL     1      -6.070  10.831  67.211  1.00  0.00    -0.052 OA 
HETATM   22  C   UNL     1      -7.968   7.237  66.086  1.00  0.00    -0.112 A  
HETATM   23  C   UNL     1      -6.261  11.959  69.902  1.00  0.00    -0.139 C  
HETATM   24  C   UNL     1      -7.705  10.034  70.224  1.00  0.00    -0.073 C  
BRANCH  15  25
HETATM   25  C   UNL     1      -8.866   7.982  70.977  1.00  0.00    -0.139 C  
HETATM   26  C   UNL     1      -8.210   8.033  72.339  1.00  0.00    -0.193 C  
HETATM   27  C   UNL     1      -9.634   8.466  72.184  1.00  0.00    -0.367 C  
ENDBRANCH  15  25
ENDBRANCH   7  10
BRANCH   9  28
HETATM   28  C   UNL     1      -7.919   2.242  65.812  1.00  0.00    -0.082 C  
HETATM   29  H1  UNL     1      -5.862   2.448  65.631  1.00  0.00     0.000 HD 
HETATM   30  N   UNL     1      -6.675   3.010  65.879  1.00  0.00    -0.043 NA 
HETATM   31  H2  UNL     1      -6.559   3.444  66.795  1.00  0.00     0.000 HD 
ENDBRANCH   9  28
ENDBRANCH   3   5
ENDBRANCH   2   3
TORSDOF 5
ENDMDL
MODEL      160
REMARK 921   NORMALIZED FREE ENERGY PREDICTED BY IDOCK:   -0.54 KCAL/MOL
REMARK 922        TOTAL FREE ENERGY PREDICTED BY IDOCK:   -1.86 KCAL/MOL
REMARK 923 INTER-LIGAND FREE ENERGY PREDICTED BY IDOCK:   -2.31 KCAL/MOL
REMARK 924 INTRA-LIGAND FREE ENERGY PREDICTED BY IDOCK:    0.45 KCAL/MOL
REMARK 927      BINDING AFFINITY PREDICTED BY RF-SCORE:    0.00 PKD
ROOT
HETATM    1  C   UNL     1     -11.842   6.945  73.140  1.00  0.00     0.553 C  
HETATM    2  O   UNL     1     -12.009   5.767  72.361  1.00  0.00    -0.275 OA 
ENDROOT
BRANCH   2   3
HETATM    3  N   UNL     1     -11.205   4.750  72.896  1.00  0.00    -0.231 NA 
HETATM    4  H   UNL     1     -11.553   3.871  73.279  1.00  0.00     0.000 HD 
BRANCH   3   5
HETATM    5  C   UNL     1      -9.953   5.090  72.834  1.00  0.00    -0.160 C  
HETATM    6  C   UNL     1      -9.419   6.481  72.614  1.00  0.00    -0.147 C  
HETATM    7  N   UNL     1      -8.024   6.250  72.233  1.00  0.00    -0.104 NA 
HETATM    8  C   UNL     1      -7.637   4.842  72.439  1.00  0.00    -0.086 C  
HETATM    9  C   UNL     1      -8.841   4.098  73.042  1.00  0.00    -0.103 C  
BRANCH   7  10
HETATM   10  C   UNL     1      -7.557   6.905  71.098  1.00  0.00    -0.087 A  
HETATM   11  N   UNL     1      -8.248   6.738  69.943  1.00  0.00    -0.125 NA 
HETATM   12  O   UNL     1      -5.780  10.009  64.969  1.00  0.00    -0.078 OA 
HETATM   13  C   UNL     1      -7.843   7.338  68.796  1.00  0.00    -0.121 A  
HETATM   14  C   UNL     1      -6.711   8.147  68.772  1.00  0.00    -0.058 A  
HETATM   15  N   UNL     1      -8.594   7.159  67.601  1.00  0.00    -0.122 NA 
HETATM   16  C   UNL     1      -6.310   8.796  67.508  1.00  0.00    -0.056 C  
HETATM   17  O   UNL     1      -7.541   8.994  63.995  1.00  0.00    -0.110 OA 
HETATM   18  C   UNL     1      -5.998   8.364  69.946  1.00  0.00    -0.025 A  
HETATM   19  F   UNL     1      -5.747   7.971  72.243  1.00  0.00    -0.036 F  
HETATM   20  C   UNL     1      -7.122   8.561  66.294  1.00  0.00    -0.078 C  
HETATM   21  O   UNL     1      -5.322   9.528  67.456  1.00  0.00    -0.037 OA 
HETATM   22  C   UNL     1      -6.432   7.742  71.112  1.00  0.00    -0.038 A  
HETATM   23  C   UNL     1      -6.850   9.185  64.986  1.00  0.00    -0.080 C  
HETATM   24  C   UNL     1      -8.183   7.756  66.426  1.00  0.00    -0.116 C  
BRANCH  15  25
HETATM   25  C   UNL     1      -9.950   6.589  67.709  1.00  0.00    -0.131 C  
HETATM   26  C   UNL     1     -10.798   6.505  66.459  1.00  0.00    -0.049 C  
HETATM   27  C   UNL     1     -10.374   5.250  67.154  1.00  0.00    -0.268 C  
ENDBRANCH  15  25
ENDBRANCH   7  10
BRANCH   9  28
HETATM   28  C   UNL     1      -9.119   2.753  72.376  1.00  0.00    -0.087 C  
HETATM   29  H1  UNL     1      -8.392   1.589  70.818  1.00  0.00     0.000 HD 
HETATM   30  N   UNL     1      -8.206   2.488  71.264  1.00  0.00    -0.056 NA 
HETATM   31  H2  UNL     1      -7.232   2.558  71.561  1.00  0.00     0.000 HD 
ENDBRANCH   9  28
ENDBRANCH   3   5
ENDBRANCH   2   3
TORSDOF 5
ENDMDL
MODEL      161
REMARK 921   NORMALIZED FREE ENERGY PREDICTED BY IDOCK:   -0.45 KCAL/MOL
REMARK 922        TOTAL FREE ENERGY PREDICTED BY IDOCK:   -1.73 KCAL/MOL
REMARK 923 INTER-LIGAND FREE ENERGY PREDICTED BY IDOCK:   -3.23 KCAL/MOL
REMARK 924 INTRA-LIGAND FREE ENERGY PREDICTED BY IDOCK:    1.50 KCAL/MOL
REMARK 927      BINDING AFFINITY PREDICTED BY RF-SCORE:    0.00 PKD
ROOT
HETATM    1  C   UNL     1      -6.116  17.804  70.377  1.00  0.00     0.216 C  
HETATM    2  O   UNL     1      -5.333  18.163  69.245  1.00  0.00    -0.186 OA 
ENDROOT
BRANCH   2   3
HETATM    3  N   UNL     1      -5.910  17.602  68.097  1.00  0.00    -0.153 NA 
HETATM    4  H   UNL     1      -5.582  17.756  67.144  1.00  0.00     0.000 HD 
BRANCH   3   5
HETATM    5  C   UNL     1      -6.924  16.857  68.423  1.00  0.00    -0.173 C  
HETATM    6  C   UNL     1      -6.926  15.763  69.458  1.00  0.00    -0.191 C  
HETATM    7  N   UNL     1      -8.141  15.008  69.146  1.00  0.00    -0.188 NA 
HETATM    8  C   UNL     1      -8.973  15.714  68.153  1.00  0.00    -0.179 C  
HETATM    9  C   UNL     1      -8.288  17.049  67.819  1.00  0.00    -0.199 C  
BRANCH   7  10
HETATM   10  C   UNL     1      -8.024  13.625  69.047  1.00  0.00     0.169 A  
HETATM   11  N   UNL     1      -8.816  12.987  68.151  1.00  0.00    -0.191 NA 
HETATM   12  O   UNL     1      -7.884   6.613  67.969  1.00  0.00    -0.109 OA 
HETATM   13  C   UNL     1      -8.762  11.639  68.009  1.00  0.00    -0.157 A  
HETATM   14  C   UNL     1      -7.887  10.872  68.774  1.00  0.00    -0.132 A  
HETATM   15  N   UNL     1      -9.593  10.994  67.050  1.00  0.00    -0.176 NA 
HETATM   16  C   UNL     1      -7.845   9.410  68.580  1.00  0.00    -0.089 C  
HETATM   17  O   UNL     1      -9.501   6.862  66.421  1.00  0.00    -0.171 OA 
HETATM   18  C   UNL     1      -7.039  11.500  69.679  1.00  0.00     0.080 A  
HETATM   19  F   UNL     1      -6.273  13.481  70.672  1.00  0.00    -0.162 F  
HETATM   20  C   UNL     1      -8.744   8.794  67.578  1.00  0.00    -0.135 C  
HETATM   21  O   UNL     1      -7.074   8.705  69.231  1.00  0.00    -0.060 OA 
HETATM   22  C   UNL     1      -7.108  12.883  69.807  1.00  0.00     0.527 A  
HETATM   23  C   UNL     1      -8.764   7.354  67.264  1.00  0.00    -0.121 C  
HETATM   24  C   UNL     1      -9.553   9.622  66.907  1.00  0.00    -0.167 C  
BRANCH  15  25
HETATM   25  C   UNL     1     -10.256  11.828  66.030  1.00  0.00    -0.230 C  
HETATM   26  C   UNL     1     -11.462  11.264  65.311  1.00  0.00     0.126 C  
HETATM   27  C   UNL     1     -11.615  12.469  66.185  1.00  0.00    -0.448 C  
ENDBRANCH  15  25
ENDBRANCH   7  10
BRANCH   9  28
HETATM   28  C   UNL     1      -8.233  17.346  66.322  1.00  0.00    -0.253 C  
HETATM   29  H1  UNL     1      -9.300  16.917  64.594  1.00  0.00     0.000 HD 
HETATM   30  N   UNL     1      -9.337  16.720  65.594  1.00  0.00    -0.480 NA 
HETATM   31  H2  UNL     1     -10.239  16.987  65.990  1.00  0.00     0.000 HD 
ENDBRANCH   9  28
ENDBRANCH   3   5
ENDBRANCH   2   3
TORSDOF 5
ENDMDL
MODEL      162
REMARK 921   NORMALIZED FREE ENERGY PREDICTED BY IDOCK:   -0.25 KCAL/MOL
REMARK 922        TOTAL FREE ENERGY PREDICTED BY IDOCK:   -1.48 KCAL/MOL
REMARK 923 INTER-LIGAND FREE ENERGY PREDICTED BY IDOCK:   -3.44 KCAL/MOL
REMARK 924 INTRA-LIGAND FREE ENERGY PREDICTED BY IDOCK:    1.96 KCAL/MOL
REMARK 927      BINDING AFFINITY PREDICTED BY RF-SCORE:    0.00 PKD
ROOT
HETATM    1  C   UNL     1      -9.945  10.383  64.967  1.00  0.00    -0.330 C  
HETATM    2  O   UNL     1      -8.859  11.242  65.294  1.00  0.00    -0.133 OA 
ENDROOT
BRANCH   2   3
HETATM    3  N   UNL     1      -7.655  10.561  65.062  1.00  0.00    -0.312 NA 
HETATM    4  H   UNL     1      -6.765  11.008  64.844  1.00  0.00     0.000 HD 
BRANCH   3   5
HETATM    5  C   UNL     1      -7.839   9.279  65.164  1.00  0.00    -0.110 C  
HETATM    6  C   UNL     1      -9.095   8.596  65.637  1.00  0.00    -0.164 C  
HETATM    7  N   UNL     1      -8.645   7.236  65.939  1.00  0.00    -0.150 NA 
HETATM    8  C   UNL     1      -7.269   7.006  65.460  1.00  0.00    -0.070 C  
HETATM    9  C   UNL     1      -6.791   8.283  64.749  1.00  0.00    -0.067 C  
BRANCH   7  10
HETATM   10  C   UNL     1      -9.014   6.702  67.170  1.00  0.00    -0.118 A  
HETATM   11  N   UNL     1      -8.356   7.140  68.271  1.00  0.00    -0.124 NA 
HETATM   12  O   UNL     1     -10.440   4.465  73.751  1.00  0.00    -0.171 OA 
HETATM   13  C   UNL     1      -8.657   6.655  69.501  1.00  0.00    -0.132 A  
HETATM   14  C   UNL     1      -9.654   5.698  69.671  1.00  0.00    -0.197 A  
HETATM   15  N   UNL     1      -7.962   7.142  70.644  1.00  0.00    -0.099 NA 
HETATM   16  C   UNL     1      -9.964   5.205  71.026  1.00  0.00    -0.206 C  
HETATM   17  O   UNL     1      -8.811   5.819  74.518  1.00  0.00    -0.120 OA 
HETATM   18  C   UNL     1     -10.369   5.251  68.565  1.00  0.00    -0.182 A  
HETATM   19  F   UNL     1     -10.755   5.339  66.254  1.00  0.00    -0.286 F  
HETATM   20  C   UNL     1      -9.197   5.738  72.175  1.00  0.00    -0.154 C  
HETATM   21  O   UNL     1     -10.848   4.369  71.212  1.00  0.00     0.285 OA 
HETATM   22  C   UNL     1     -10.047   5.764  67.313  1.00  0.00    -0.176 A  
HETATM   23  C   UNL     1      -9.442   5.357  73.578  1.00  0.00    -0.137 C  
HETATM   24  C   UNL     1      -8.253   6.645  71.898  1.00  0.00    -0.103 C  
BRANCH  15  25
HETATM   25  C   UNL     1      -7.161   8.371  70.500  1.00  0.00    -0.042 C  
HETATM   26  C   UNL     1      -5.731   8.362  70.993  1.00  0.00    -0.033 C  
HETATM   27  C   UNL     1      -6.014   8.551  69.536  1.00  0.00    -0.033 C  
ENDBRANCH  15  25
ENDBRANCH   7  10
BRANCH   9  28
HETATM   28  C   UNL     1      -5.381   8.710  65.150  1.00  0.00    -0.039 C  
HETATM   29  H1  UNL     1      -4.364   9.399  66.823  1.00  0.00     0.000 HD 
HETATM   30  N   UNL     1      -5.305   9.114  66.554  1.00  0.00    -0.040 NA 
HETATM   31  H2  UNL     1      -5.658   8.380  67.169  1.00  0.00     0.000 HD 
ENDBRANCH   9  28
ENDBRANCH   3   5
ENDBRANCH   2   3
TORSDOF 5
ENDMDL
MODEL      163
REMARK 921   NORMALIZED FREE ENERGY PREDICTED BY IDOCK:    0.37 KCAL/MOL
REMARK 922        TOTAL FREE ENERGY PREDICTED BY IDOCK:   -0.67 KCAL/MOL
REMARK 923 INTER-LIGAND FREE ENERGY PREDICTED BY IDOCK:   -3.55 KCAL/MOL
REMARK 924 INTRA-LIGAND FREE ENERGY PREDICTED BY IDOCK:    2.88 KCAL/MOL
REMARK 927      BINDING AFFINITY PREDICTED BY RF-SCORE:    0.00 PKD
ROOT
HETATM    1  C   UNL     1     -10.430  15.754  70.535  1.00  0.00    -0.049 C  
HETATM    2  O   UNL     1     -10.651  16.077  69.168  1.00  0.00    -0.225 OA 
ENDROOT
BRANCH   2   3
HETATM    3  N   UNL     1     -11.343  15.021  68.558  1.00  0.00    -0.288 NA 
HETATM    4  H   UNL     1     -12.310  14.763  68.758  1.00  0.00     0.000 HD 
BRANCH   3   5
HETATM    5  C   UNL     1     -10.575  14.417  67.702  1.00  0.00    -0.260 C  
HETATM    6  C   UNL     1     -10.927  13.192  66.900  1.00  0.00    -0.276 C  
HETATM    7  N   UNL     1      -9.626  12.712  66.430  1.00  0.00    -0.247 NA 
HETATM    8  C   UNL     1      -8.560  13.695  66.702  1.00  0.00     0.078 C  
HETATM    9  C   UNL     1      -9.204  14.930  67.353  1.00  0.00    -0.198 C  
BRANCH   7  10
HETATM   10  C   UNL     1      -9.342  11.362  66.610  1.00  0.00    -0.185 A  
HETATM   11  N   UNL     1      -8.178  11.038  67.225  1.00  0.00    -0.122 NA 
HETATM   12  O   UNL     1      -7.311   4.690  67.919  1.00  0.00    -0.065 OA 
HETATM   13  C   UNL     1      -7.833   9.742  67.424  1.00  0.00    -0.099 A  
HETATM   14  C   UNL     1      -8.665   8.706  67.008  1.00  0.00    -0.135 A  
HETATM   15  N   UNL     1      -6.613   9.428  68.087  1.00  0.00    -0.058 NA 
HETATM   16  C   UNL     1      -8.263   7.308  67.256  1.00  0.00    -0.115 C  
HETATM   17  O   UNL     1      -5.426   5.494  68.855  1.00  0.00    -0.003 OA 
HETATM   18  C   UNL     1      -9.880   9.006  66.402  1.00  0.00    -0.356 A  
HETATM   19  F   UNL     1     -11.399  10.619  65.640  1.00  0.00     0.034 F  
HETATM   20  C   UNL     1      -6.975   7.044  67.936  1.00  0.00    -0.083 C  
HETATM   21  O   UNL     1      -8.981   6.370  66.913  1.00  0.00    -0.119 OA 
HETATM   22  C   UNL     1     -10.217  10.341  66.210  1.00  0.00    -0.221 A  
HETATM   23  C   UNL     1      -6.484   5.696  68.278  1.00  0.00    -0.043 C  
HETATM   24  C   UNL     1      -6.247   8.112  68.283  1.00  0.00    -0.050 C  
BRANCH  15  25
HETATM   25  C   UNL     1      -5.915  10.508  68.809  1.00  0.00    -0.040 C  
HETATM   26  C   UNL     1      -5.721  11.835  68.110  1.00  0.00    -0.047 C  
HETATM   27  C   UNL     1      -6.570  11.760  69.339  1.00  0.00    -0.113 C  
ENDBRANCH  15  25
ENDBRANCH   7  10
BRANCH   9  28
HETATM   28  C   UNL     1      -8.440  15.442  68.572  1.00  0.00    -0.163 C  
HETATM   29  H1  UNL     1      -6.500  15.477  69.311  1.00  0.00     0.000 HD 
HETATM   30  N   UNL     1      -7.011  15.135  68.497  1.00  0.00    -0.102 NA 
HETATM   31  H2  UNL     1      -6.603  15.488  67.630  1.00  0.00     0.000 HD 
ENDBRANCH   9  28
ENDBRANCH   3   5
ENDBRANCH   2   3
TORSDOF 5
ENDMDL
MODEL      164
REMARK 921   NORMALIZED FREE ENERGY PREDICTED BY IDOCK:    2.05 KCAL/MOL
REMARK 922        TOTAL FREE ENERGY PREDICTED BY IDOCK:    1.50 KCAL/MOL
REMARK 923 INTER-LIGAND FREE ENERGY PREDICTED BY IDOCK:    1.73 KCAL/MOL
REMARK 924 INTRA-LIGAND FREE ENERGY PREDICTED BY IDOCK:   -0.23 KCAL/MOL
REMARK 927      BINDING AFFINITY PREDICTED BY RF-SCORE:    0.00 PKD
ROOT
HETATM    1  C   UNL     1     -13.423  11.774  72.884  1.00  0.00     1.991 C  
HETATM    2  O   UNL     1     -13.176  11.050  71.686  1.00  0.00    -0.414 OA 
ENDROOT
BRANCH   2   3
HETATM    3  N   UNL     1     -12.189  10.084  71.933  1.00  0.00    -0.290 NA 
HETATM    4  H   UNL     1     -12.084   9.568  72.806  1.00  0.00     0.000 HD 
BRANCH   3   5
HETATM    5  C   UNL     1     -11.429   9.944  70.889  1.00  0.00    -0.376 C  
HETATM    6  C   UNL     1     -10.531  10.998  70.295  1.00  0.00     0.725 C  
HETATM    7  N   UNL     1     -10.235  10.474  68.960  1.00  0.00    -0.205 NA 
HETATM    8  C   UNL     1     -10.703   9.083  68.813  1.00  0.00    -0.108 C  
HETATM    9  C   UNL     1     -11.307   8.637  70.154  1.00  0.00    -0.083 C  
BRANCH   7  10
HETATM   10  C   UNL     1     -10.395  11.343  67.885  1.00  0.00    -0.182 A  
HETATM   11  N   UNL     1     -10.464  12.670  68.151  1.00  0.00    -0.224 NA 
HETATM   12  O   UNL     1     -11.124  16.322  62.882  1.00  0.00     2.695 OA 
HETATM   13  C   UNL     1     -10.630  13.573  67.153  1.00  0.00    -0.264 A  
HETATM   14  C   UNL     1     -10.729  13.164  65.826  1.00  0.00    -0.292 A  
HETATM   15  N   UNL     1     -10.684  14.962  67.456  1.00  0.00    -0.271 NA 
HETATM   16  C   UNL     1     -10.893  14.176  64.765  1.00  0.00    -0.413 C  
HETATM   17  O   UNL     1     -11.111  17.888  64.501  1.00  0.00    -0.516 OA 
HETATM   18  C   UNL     1     -10.630  11.812  65.517  1.00  0.00    -0.323 A  
HETATM   19  F   UNL     1     -10.346   9.602  66.245  1.00  0.00    -0.321 F  
HETATM   20  C   UNL     1     -10.957  15.606  65.143  1.00  0.00    -0.411 C  
HETATM   21  O   UNL     1     -10.970  13.849  63.581  1.00  0.00     0.353 OA 
HETATM   22  C   UNL     1     -10.457  10.903  66.555  1.00  0.00    -0.253 A  
HETATM   23  C   UNL     1     -11.076  16.711  64.174  1.00  0.00     0.877 C  
HETATM   24  C   UNL     1     -10.864  15.888  66.448  1.00  0.00    -0.193 C  
BRANCH  15  25
HETATM   25  C   UNL     1     -10.249  15.400  68.796  1.00  0.00    -0.217 C  
HETATM   26  C   UNL     1     -11.118  16.382  69.550  1.00  0.00    -0.293 C  
HETATM   27  C   UNL     1     -10.910  15.004  70.094  1.00  0.00    -0.217 C  
ENDBRANCH  15  25
ENDBRANCH   7  10
BRANCH   9  28
HETATM   28  C   UNL     1     -12.646   7.917  70.009  1.00  0.00     1.362 C  
HETATM   29  H1  UNL     1     -13.774   6.480  70.994  1.00  0.00     0.000 HD 
HETATM   30  N   UNL     1     -12.880   6.960  71.091  1.00  0.00    -0.407 NA 
HETATM   31  H2  UNL     1     -12.799   7.409  72.004  1.00  0.00     0.000 HD 
ENDBRANCH   9  28
ENDBRANCH   3   5
ENDBRANCH   2   3
TORSDOF 5
ENDMDL
MODEL      165
REMARK 921   NORMALIZED FREE ENERGY PREDICTED BY IDOCK:    2.25 KCAL/MOL
REMARK 922        TOTAL FREE ENERGY PREDICTED BY IDOCK:    1.75 KCAL/MOL
REMARK 923 INTER-LIGAND FREE ENERGY PREDICTED BY IDOCK:   -0.96 KCAL/MOL
REMARK 924 INTRA-LIGAND FREE ENERGY PREDICTED BY IDOCK:    2.71 KCAL/MOL
REMARK 927      BINDING AFFINITY PREDICTED BY RF-SCORE:    0.00 PKD
ROOT
HETATM    1  C   UNL     1      -9.387   4.839  70.329  1.00  0.00    -0.151 C  
HETATM    2  O   UNL     1      -9.696   4.797  71.717  1.00  0.00    -0.152 OA 
ENDROOT
BRANCH   2   3
HETATM    3  N   UNL     1      -8.648   5.393  72.433  1.00  0.00    -0.122 NA 
HETATM    4  H   UNL     1      -8.402   5.173  73.398  1.00  0.00     0.000 HD 
BRANCH   3   5
HETATM    5  C   UNL     1      -8.038   6.267  71.690  1.00  0.00    -0.106 C  
HETATM    6  C   UNL     1      -8.549   7.636  71.325  1.00  0.00    -0.120 C  
HETATM    7  N   UNL     1      -7.705   8.019  70.192  1.00  0.00    -0.085 NA 
HETATM    8  C   UNL     1      -6.585   7.076  70.013  1.00  0.00    -0.044 C  
HETATM    9  C   UNL     1      -6.662   6.024  71.131  1.00  0.00    -0.058 C  
BRANCH   7  10
HETATM   10  C   UNL     1      -8.346   8.507  69.057  1.00  0.00    -0.118 A  
HETATM   11  N   UNL     1      -7.641   9.325  68.236  1.00  0.00    -0.083 NA 
HETATM   12  O   UNL     1     -10.966  11.281  63.074  1.00  0.00    -0.116 OA 
HETATM   13  C   UNL     1      -8.206   9.845  67.119  1.00  0.00    -0.121 A  
HETATM   14  C   UNL     1      -9.524   9.552  66.778  1.00  0.00    -0.217 A  
HETATM   15  N   UNL     1      -7.440  10.688  66.266  1.00  0.00    -0.133 NA 
HETATM   16  C   UNL     1     -10.099  10.124  65.546  1.00  0.00    -0.268 C  
HETATM   17  O   UNL     1      -8.992  12.316  62.741  1.00  0.00     0.405 OA 
HETATM   18  C   UNL     1     -10.263   8.691  67.583  1.00  0.00    -0.300 A  
HETATM   19  F   UNL     1     -10.381   7.323  69.482  1.00  0.00    -0.198 F  
HETATM   20  C   UNL     1      -9.259  11.006  64.706  1.00  0.00    -0.198 C  
HETATM   21  O   UNL     1     -11.256   9.874  65.209  1.00  0.00     1.420 OA 
HETATM   22  C   UNL     1      -9.664   8.166  68.722  1.00  0.00    -0.153 A  
HETATM   23  C   UNL     1      -9.705  11.602  63.433  1.00  0.00    -0.348 C  
HETATM   24  C   UNL     1      -8.010  11.232  65.133  1.00  0.00     0.535 C  
BRANCH  15  25
HETATM   25  C   UNL     1      -5.978  10.721  66.449  1.00  0.00    -0.110 C  
HETATM   26  C   UNL     1      -5.424  10.618  67.853  1.00  0.00    -0.039 C  
HETATM   27  C   UNL     1      -5.128   9.542  66.857  1.00  0.00    -0.034 C  
ENDBRANCH  15  25
ENDBRANCH   7  10
BRANCH   9  28
HETATM   28  C   UNL     1      -6.474   4.593  70.633  1.00  0.00    -0.030 C  
HETATM   29  H1  UNL     1      -6.326   2.669  71.398  1.00  0.00     0.000 HD 
HETATM   30  N   UNL     1      -6.452   3.624  71.730  1.00  0.00    -0.015 NA 
HETATM   31  H2  UNL     1      -7.286   3.706  72.312  1.00  0.00     0.000 HD 
ENDBRANCH   9  28
ENDBRANCH   3   5
ENDBRANCH   2   3
TORSDOF 5
ENDMDL
MODEL      166
REMARK 921   NORMALIZED FREE ENERGY PREDICTED BY IDOCK:    2.39 KCAL/MOL
REMARK 922        TOTAL FREE ENERGY PREDICTED BY IDOCK:    1.94 KCAL/MOL
REMARK 923 INTER-LIGAND FREE ENERGY PREDICTED BY IDOCK:    1.35 KCAL/MOL
REMARK 924 INTRA-LIGAND FREE ENERGY PREDICTED BY IDOCK:    0.58 KCAL/MOL
REMARK 927      BINDING AFFINITY PREDICTED BY RF-SCORE:    0.00 PKD
ROOT
HETATM    1  C   UNL     1      -8.148  14.738  65.543  1.00  0.00     4.040 C  
HETATM    2  O   UNL     1      -7.705  13.789  66.506  1.00  0.00     0.655 OA 
ENDROOT
BRANCH   2   3
HETATM    3  N   UNL     1      -8.564  12.681  66.481  1.00  0.00    -0.421 NA 
HETATM    4  H   UNL     1      -9.371  12.581  65.864  1.00  0.00     0.000 HD 
BRANCH   3   5
HETATM    5  C   UNL     1      -8.184  11.800  67.356  1.00  0.00    -0.160 C  
HETATM    6  C   UNL     1      -7.141  10.733  67.149  1.00  0.00    -0.099 C  
HETATM    7  N   UNL     1      -7.388   9.802  68.251  1.00  0.00    -0.079 NA 
HETATM    8  C   UNL     1      -8.346  10.362  69.224  1.00  0.00    -0.155 C  
HETATM    9  C   UNL     1      -8.723  11.779  68.761  1.00  0.00     0.019 C  
BRANCH   7  10
HETATM   10  C   UNL     1      -7.481   8.450  67.935  1.00  0.00    -0.098 A  
HETATM   11  N   UNL     1      -8.333   7.688  68.664  1.00  0.00    -0.128 NA 
HETATM   12  O   UNL     1      -8.507   1.520  66.806  1.00  0.00    -0.080 OA 
HETATM   13  C   UNL     1      -8.467   6.362  68.417  1.00  0.00    -0.116 A  
HETATM   14  C   UNL     1      -7.738   5.744  67.405  1.00  0.00    -0.097 A  
HETATM   15  N   UNL     1      -9.380   5.587  69.186  1.00  0.00    -0.121 NA 
HETATM   16  C   UNL     1      -7.922   4.301  67.155  1.00  0.00    -0.097 C  
HETATM   17  O   UNL     1      -9.979   1.505  68.512  1.00  0.00    -0.030 OA 
HETATM   18  C   UNL     1      -6.879   6.504  66.618  1.00  0.00    -0.065 A  
HETATM   19  F   UNL     1      -5.940   8.591  66.110  1.00  0.00    -0.042 F  
HETATM   20  C   UNL     1      -8.875   3.545  67.997  1.00  0.00    -0.150 C  
HETATM   21  O   UNL     1      -7.303   3.728  66.259  1.00  0.00    -0.073 OA 
HETATM   22  C   UNL     1      -6.759   7.863  66.886  1.00  0.00    -0.068 A  
HETATM   23  C   UNL     1      -9.176   2.112  67.818  1.00  0.00    -0.176 C  
HETATM   24  C   UNL     1      -9.514   4.234  68.950  1.00  0.00    -0.168 C  
BRANCH  15  25
HETATM   25  C   UNL     1     -10.374   6.298  70.012  1.00  0.00    -0.199 C  
HETATM   26  C   UNL     1     -10.027   6.605  71.452  1.00  0.00    -0.198 C  
HETATM   27  C   UNL     1     -10.246   7.726  70.485  1.00  0.00    -0.201 C  
ENDBRANCH  15  25
ENDBRANCH   7  10
BRANCH   9  28
HETATM   28  C   UNL     1     -10.223  12.057  68.819  1.00  0.00    -0.129 C  
HETATM   29  H1  UNL     1     -12.020  11.053  68.550  1.00  0.00     0.000 HD 
HETATM   30  N   UNL     1     -11.018  10.868  68.512  1.00  0.00    -0.210 NA 
HETATM   31  H2  UNL     1     -10.764  10.087  69.118  1.00  0.00     0.000 HD 
ENDBRANCH   9  28
ENDBRANCH   3   5
ENDBRANCH   2   3
TORSDOF 5
ENDMDL
MODEL      167
REMARK 921   NORMALIZED FREE ENERGY PREDICTED BY IDOCK:    2.42 KCAL/MOL
REMARK 922        TOTAL FREE ENERGY PREDICTED BY IDOCK:    1.97 KCAL/MOL
REMARK 923 INTER-LIGAND FREE ENERGY PREDICTED BY IDOCK:    0.65 KCAL/MOL
REMARK 924 INTRA-LIGAND FREE ENERGY PREDICTED BY IDOCK:    1.32 KCAL/MOL
REMARK 927      BINDING AFFINITY PREDICTED BY RF-SCORE:    0.00 PKD
ROOT
HETATM    1  C   UNL     1     -11.767  18.185  68.914  1.00  0.00     3.233 C  
HETATM    2  O   UNL     1     -10.628  19.015  69.102  1.00  0.00     0.155 OA 
ENDROOT
BRANCH   2   3
HETATM    3  N   UNL     1      -9.664  18.305  69.832  1.00  0.00     0.723 NA 
HETATM    4  H   UNL     1      -9.503  18.400  70.835  1.00  0.00     0.000 HD 
BRANCH   3   5
HETATM    5  C   UNL     1      -9.005  17.508  69.045  1.00  0.00    -0.039 C  
HETATM    6  C   UNL     1      -9.589  16.399  68.210  1.00  0.00    -0.221 C  
HETATM    7  N   UNL     1      -8.420  15.593  67.856  1.00  0.00    -0.149 NA 
HETATM    8  C   UNL     1      -7.165  16.274  68.226  1.00  0.00    -0.141 C  
HETATM    9  C   UNL     1      -7.523  17.645  68.822  1.00  0.00    -0.255 C  
BRANCH   7  10
HETATM   10  C   UNL     1      -8.509  14.218  68.056  1.00  0.00    -0.164 A  
HETATM   11  N   UNL     1      -9.383  13.524  67.287  1.00  0.00    -0.224 NA 
HETATM   12  O   UNL     1      -9.410   7.193  68.491  1.00  0.00    -0.138 OA 
HETATM   13  C   UNL     1      -9.530  12.184  67.434  1.00  0.00    -0.179 A  
HETATM   14  C   UNL     1      -8.783  11.481  68.376  1.00  0.00    -0.160 A  
HETATM   15  N   UNL     1     -10.443  11.476  66.604  1.00  0.00    -0.229 NA 
HETATM   16  C   UNL     1      -8.958  10.021  68.497  1.00  0.00    -0.124 C  
HETATM   17  O   UNL     1     -10.965   7.336  66.867  1.00  0.00    -0.343 OA 
HETATM   18  C   UNL     1      -7.855  12.159  69.159  1.00  0.00     0.281 A  
HETATM   19  F   UNL     1      -6.808  14.175  69.737  1.00  0.00    -0.130 F  
HETATM   20  C   UNL     1      -9.933   9.341  67.616  1.00  0.00    -0.245 C  
HETATM   21  O   UNL     1      -8.304   9.368  69.310  1.00  0.00    -0.118 OA 
HETATM   22  C   UNL     1      -7.718  13.532  68.989  1.00  0.00     0.118 A  
HETATM   23  C   UNL     1     -10.167   7.885  67.613  1.00  0.00    -0.226 C  
HETATM   24  C   UNL     1     -10.607  10.114  66.756  1.00  0.00    -0.169 C  
BRANCH  15  25
HETATM   25  C   UNL     1     -10.970  12.158  65.408  1.00  0.00    -0.302 C  
HETATM   26  C   UNL     1     -10.175  13.304  64.822  1.00  0.00    -0.323 C  
HETATM   27  C   UNL     1     -10.379  12.057  64.022  1.00  0.00    -0.406 C  
ENDBRANCH  15  25
ENDBRANCH   7  10
BRANCH   9  28
HETATM   28  C   UNL     1      -6.762  17.967  70.106  1.00  0.00     0.634 C  
HETATM   29  H1  UNL     1      -4.805  18.060  70.793  1.00  0.00     0.000 HD 
HETATM   30  N   UNL     1      -5.314  17.845  69.935  1.00  0.00    -0.208 NA 
HETATM   31  H2  UNL     1      -4.984  18.417  69.157  1.00  0.00     0.000 HD 
ENDBRANCH   9  28
ENDBRANCH   3   5
ENDBRANCH   2   3
TORSDOF 5
ENDMDL
MODEL      168
REMARK 921   NORMALIZED FREE ENERGY PREDICTED BY IDOCK:    3.00 KCAL/MOL
REMARK 922        TOTAL FREE ENERGY PREDICTED BY IDOCK:    2.73 KCAL/MOL
REMARK 923 INTER-LIGAND FREE ENERGY PREDICTED BY IDOCK:    2.13 KCAL/MOL
REMARK 924 INTRA-LIGAND FREE ENERGY PREDICTED BY IDOCK:    0.60 KCAL/MOL
REMARK 927      BINDING AFFINITY PREDICTED BY RF-SCORE:    0.00 PKD
ROOT
HETATM    1  C   UNL     1      -8.148  14.738  65.543  1.00  0.00     4.040 C  
HETATM    2  O   UNL     1      -7.705  13.789  66.506  1.00  0.00     0.655 OA 
ENDROOT
BRANCH   2   3
HETATM    3  N   UNL     1      -8.564  12.681  66.481  1.00  0.00    -0.421 NA 
HETATM    4  H   UNL     1      -9.371  12.581  65.864  1.00  0.00     0.000 HD 
BRANCH   3   5
HETATM    5  C   UNL     1      -8.184  11.800  67.356  1.00  0.00    -0.160 C  
HETATM    6  C   UNL     1      -7.141  10.733  67.149  1.00  0.00    -0.099 C  
HETATM    7  N   UNL     1      -7.388   9.802  68.251  1.00  0.00    -0.079 NA 
HETATM    8  C   UNL     1      -8.346  10.362  69.224  1.00  0.00    -0.155 C  
HETATM    9  C   UNL     1      -8.723  11.779  68.761  1.00  0.00     0.019 C  
BRANCH   7  10
HETATM   10  C   UNL     1      -7.481   8.450  67.935  1.00  0.00    -0.098 A  
HETATM   11  N   UNL     1      -7.017   8.051  66.726  1.00  0.00    -0.072 NA 
HETATM   12  O   UNL     1      -7.575   1.711  65.716  1.00  0.00    -0.063 OA 
HETATM   13  C   UNL     1      -7.086   6.751  66.347  1.00  0.00    -0.071 A  
HETATM   14  C   UNL     1      -7.630   5.786  67.191  1.00  0.00    -0.099 A  
HETATM   15  N   UNL     1      -6.577   6.354  65.079  1.00  0.00    -0.038 NA 
HETATM   16  C   UNL     1      -7.674   4.378  66.752  1.00  0.00    -0.094 C  
HETATM   17  O   UNL     1      -6.635   2.380  63.781  1.00  0.00    -0.028 OA 
HETATM   18  C   UNL     1      -8.087   6.159  68.451  1.00  0.00    -0.108 A  
HETATM   19  F   UNL     1      -8.431   7.842  70.045  1.00  0.00    -0.124 F  
HETATM   20  C   UNL     1      -7.143   4.029  65.415  1.00  0.00    -0.063 C  
HETATM   21  O   UNL     1      -8.137   3.500  67.479  1.00  0.00    -0.081 OA 
HETATM   22  C   UNL     1      -8.004   7.496  68.820  1.00  0.00    -0.126 A  
HETATM   23  C   UNL     1      -7.093   2.655  64.881  1.00  0.00    -0.053 C  
HETATM   24  C   UNL     1      -6.654   5.035  64.680  1.00  0.00    -0.039 C  
BRANCH  15  25
HETATM   25  C   UNL     1      -5.716   7.301  64.347  1.00  0.00    -0.033 C  
HETATM   26  C   UNL     1      -6.360   8.246  63.357  1.00  0.00    -0.080 C  
HETATM   27  C   UNL     1      -5.681   8.793  64.572  1.00  0.00    -0.064 C  
ENDBRANCH  15  25
ENDBRANCH   7  10
BRANCH   9  28
HETATM   28  C   UNL     1     -10.223  12.057  68.819  1.00  0.00    -0.129 C  
HETATM   29  H1  UNL     1     -12.020  11.053  68.550  1.00  0.00     0.000 HD 
HETATM   30  N   UNL     1     -11.018  10.868  68.512  1.00  0.00    -0.210 NA 
HETATM   31  H2  UNL     1     -10.764  10.087  69.118  1.00  0.00     0.000 HD 
ENDBRANCH   9  28
ENDBRANCH   3   5
ENDBRANCH   2   3
TORSDOF 5
ENDMDL
MODEL      169
REMARK 921   NORMALIZED FREE ENERGY PREDICTED BY IDOCK:    7.23 KCAL/MOL
REMARK 922        TOTAL FREE ENERGY PREDICTED BY IDOCK:    8.19 KCAL/MOL
REMARK 923 INTER-LIGAND FREE ENERGY PREDICTED BY IDOCK:    7.32 KCAL/MOL
REMARK 924 INTRA-LIGAND FREE ENERGY PREDICTED BY IDOCK:    0.87 KCAL/MOL
REMARK 927      BINDING AFFINITY PREDICTED BY RF-SCORE:    0.00 PKD
ROOT
HETATM    1  C   UNL     1     -10.220  15.499  64.770  1.00  0.00     0.133 C  
HETATM    2  O   UNL     1     -10.150  14.123  65.123  1.00  0.00    -0.364 OA 
ENDROOT
BRANCH   2   3
HETATM    3  N   UNL     1      -9.350  13.453  64.186  1.00  0.00     0.507 NA 
HETATM    4  H   UNL     1      -9.339  13.645  63.185  1.00  0.00     0.000 HD 
BRANCH   3   5
HETATM    5  C   UNL     1      -8.624  12.553  64.779  1.00  0.00     2.203 C  
HETATM    6  C   UNL     1      -8.728  11.063  64.591  1.00  0.00     0.049 C  
HETATM    7  N   UNL     1      -8.004  10.527  65.745  1.00  0.00    -0.156 NA 
HETATM    8  C   UNL     1      -7.285  11.592  66.471  1.00  0.00    -0.009 C  
HETATM    9  C   UNL     1      -7.508  12.915  65.721  1.00  0.00     3.588 C  
BRANCH   7  10
HETATM   10  C   UNL     1      -8.633   9.531  66.486  1.00  0.00    -0.134 A  
HETATM   11  N   UNL     1      -7.987   8.348  66.632  1.00  0.00    -0.096 NA 
HETATM   12  O   UNL     1     -11.225   4.065  70.196  1.00  0.00     3.077 OA 
HETATM   13  C   UNL     1      -8.546   7.330  67.332  1.00  0.00    -0.121 A  
HETATM   14  C   UNL     1      -9.797   7.472  67.926  1.00  0.00    -0.185 A  
HETATM   15  N   UNL     1      -7.841   6.104  67.483  1.00  0.00    -0.101 NA 
HETATM   16  C   UNL     1     -10.367   6.348  68.694  1.00  0.00    -0.199 C  
HETATM   17  O   UNL     1      -9.376   2.890  69.673  1.00  0.00    -0.141 OA 
HETATM   18  C   UNL     1     -10.472   8.683  67.822  1.00  0.00    -0.287 A  
HETATM   19  F   UNL     1     -10.531  10.885  67.022  1.00  0.00    -0.236 F  
HETATM   20  C   UNL     1      -9.593   5.091  68.805  1.00  0.00    -0.209 C  
HETATM   21  O   UNL     1     -11.464   6.444  69.243  1.00  0.00    -0.381 OA 
HETATM   22  C   UNL     1      -9.879   9.715  67.103  1.00  0.00    -0.186 A  
HETATM   23  C   UNL     1     -10.035   3.915  69.577  1.00  0.00     0.168 C  
HETATM   24  C   UNL     1      -8.407   5.058  68.184  1.00  0.00    -0.096 C  
BRANCH  15  25
HETATM   25  C   UNL     1      -6.406   6.079  67.146  1.00  0.00    -0.041 C  
HETATM   26  C   UNL     1      -6.009   5.972  65.690  1.00  0.00    -0.025 C  
HETATM   27  C   UNL     1      -5.655   7.200  66.467  1.00  0.00    -0.023 C  
ENDBRANCH  15  25
ENDBRANCH   7  10
BRANCH   9  28
HETATM   28  C   UNL     1      -7.867  14.081  66.639  1.00  0.00     0.773 C  
HETATM   29  H1  UNL     1      -9.197  14.524  68.170  1.00  0.00     0.000 HD 
HETATM   30  N   UNL     1      -8.956  13.746  67.557  1.00  0.00    -0.191 NA 
HETATM   31  H2  UNL     1      -8.741  12.905  68.093  1.00  0.00     0.000 HD 
ENDBRANCH   9  28
ENDBRANCH   3   5
ENDBRANCH   2   3
TORSDOF 5
ENDMDL
MODEL      170
REMARK 921   NORMALIZED FREE ENERGY PREDICTED BY IDOCK:    7.55 KCAL/MOL
REMARK 922        TOTAL FREE ENERGY PREDICTED BY IDOCK:    8.60 KCAL/MOL
REMARK 923 INTER-LIGAND FREE ENERGY PREDICTED BY IDOCK:    8.42 KCAL/MOL
REMARK 924 INTRA-LIGAND FREE ENERGY PREDICTED BY IDOCK:    0.17 KCAL/MOL
REMARK 927      BINDING AFFINITY PREDICTED BY RF-SCORE:    0.00 PKD
ROOT
HETATM    1  C   UNL     1      -5.127  10.206  67.554  1.00  0.00    -0.037 C  
HETATM    2  O   UNL     1      -6.265  10.993  67.224  1.00  0.00    -0.058 OA 
ENDROOT
BRANCH   2   3
HETATM    3  N   UNL     1      -7.331  10.621  68.056  1.00  0.00    -0.087 NA 
HETATM    4  H   UNL     1      -7.264   9.964  68.832  1.00  0.00     0.000 HD 
BRANCH   3   5
HETATM    5  C   UNL     1      -8.417  11.236  67.693  1.00  0.00    -0.124 C  
HETATM    6  C   UNL     1      -8.542  12.233  66.571  1.00  0.00    -0.038 C  
HETATM    7  N   UNL     1      -9.819  12.893  66.848  1.00  0.00    -0.230 NA 
HETATM    8  C   UNL     1     -10.562  12.199  67.917  1.00  0.00    -0.207 C  
HETATM    9  C   UNL     1      -9.747  10.968  68.345  1.00  0.00    -0.181 C  
BRANCH   7  10
HETATM   10  C   UNL     1      -9.834  14.284  66.829  1.00  0.00    -0.270 A  
HETATM   11  N   UNL     1     -10.589  14.895  65.883  1.00  0.00    -0.309 NA 
HETATM   12  O   UNL     1     -10.428  21.329  66.213  1.00  0.00     1.616 OA 
HETATM   13  C   UNL     1     -10.642  16.247  65.799  1.00  0.00    -0.324 A  
HETATM   14  C   UNL     1      -9.927  17.049  66.685  1.00  0.00    -0.307 A  
HETATM   15  N   UNL     1     -11.453  16.864  64.806  1.00  0.00    -0.516 NA 
HETATM   16  C   UNL     1     -10.022  18.517  66.574  1.00  0.00    -0.380 C  
HETATM   17  O   UNL     1     -11.798  21.015  64.453  1.00  0.00     1.755 OA 
HETATM   18  C   UNL     1      -9.169  16.453  67.688  1.00  0.00    -0.199 A  
HETATM   19  F   UNL     1      -8.409  14.501  68.739  1.00  0.00    -0.148 F  
HETATM   20  C   UNL     1     -10.871  19.101  65.512  1.00  0.00    -0.084 C  
HETATM   21  O   UNL     1      -9.414  19.254  67.350  1.00  0.00    -0.299 OA 
HETATM   22  C   UNL     1      -9.131  15.065  67.758  1.00  0.00    -0.180 A  
HETATM   23  C   UNL     1     -11.080  20.549  65.325  1.00  0.00     0.885 C  
HETATM   24  C   UNL     1     -11.504  18.239  64.706  1.00  0.00     3.038 C  
BRANCH  15  25
HETATM   25  C   UNL     1     -12.448  16.032  64.104  1.00  0.00     0.744 C  
HETATM   26  C   UNL     1     -12.062  15.411  62.780  1.00  0.00     4.301 C  
HETATM   27  C   UNL     1     -12.370  14.532  63.950  1.00  0.00    -0.063 C  
ENDBRANCH  15  25
ENDBRANCH   7  10
BRANCH   9  28
HETATM   28  C   UNL     1      -9.638  10.807  69.859  1.00  0.00     0.508 C  
HETATM   29  H1  UNL     1     -10.804  10.190  71.462  1.00  0.00     0.000 HD 
HETATM   30  N   UNL     1     -10.876  10.297  70.451  1.00  0.00    -0.385 NA 
HETATM   31  H2  UNL     1     -11.165   9.425  70.006  1.00  0.00     0.000 HD 
ENDBRANCH   9  28
ENDBRANCH   3   5
ENDBRANCH   2   3
TORSDOF 5
ENDMDL
MODEL      171
REMARK 921   NORMALIZED FREE ENERGY PREDICTED BY IDOCK:    8.64 KCAL/MOL
REMARK 922        TOTAL FREE ENERGY PREDICTED BY IDOCK:   10.01 KCAL/MOL
REMARK 923 INTER-LIGAND FREE ENERGY PREDICTED BY IDOCK:    7.26 KCAL/MOL
REMARK 924 INTRA-LIGAND FREE ENERGY PREDICTED BY IDOCK:    2.75 KCAL/MOL
REMARK 927      BINDING AFFINITY PREDICTED BY RF-SCORE:    0.00 PKD
ROOT
HETATM    1  C   UNL     1     -11.160  12.539  66.693  1.00  0.00    -0.283 C  
HETATM    2  O   UNL     1     -12.501  12.959  66.912  1.00  0.00    -0.308 OA 
ENDROOT
BRANCH   2   3
HETATM    3  N   UNL     1     -12.875  12.623  68.221  1.00  0.00     1.191 NA 
HETATM    4  H   UNL     1     -13.832  12.621  68.573  1.00  0.00     0.000 HD 
BRANCH   3   5
HETATM    5  C   UNL     1     -11.825  12.314  68.921  1.00  0.00    -0.303 C  
HETATM    6  C   UNL     1     -10.438  12.072  68.385  1.00  0.00    -0.219 C  
HETATM    7  N   UNL     1      -9.765  11.387  69.490  1.00  0.00     0.374 NA 
HETATM    8  C   UNL     1     -10.582  11.417  70.718  1.00  0.00     2.536 C  
HETATM    9  C   UNL     1     -11.861  12.217  70.422  1.00  0.00    -0.277 C  
BRANCH   7  10
HETATM   10  C   UNL     1      -9.069  10.220  69.188  1.00  0.00    -0.191 A  
HETATM   11  N   UNL     1      -9.749   9.049  69.237  1.00  0.00    -0.165 NA 
HETATM   12  O   UNL     1      -6.163   3.923  67.688  1.00  0.00    -0.034 OA 
HETATM   13  C   UNL     1      -9.131   7.873  68.964  1.00  0.00    -0.144 A  
HETATM   14  C   UNL     1      -7.783   7.834  68.620  1.00  0.00    -0.118 A  
HETATM   15  N   UNL     1      -9.870   6.658  69.008  1.00  0.00    -0.143 NA 
HETATM   16  C   UNL     1      -7.148   6.538  68.315  1.00  0.00    -0.083 C  
HETATM   17  O   UNL     1      -8.150   2.952  68.120  1.00  0.00    -0.061 OA 
HETATM   18  C   UNL     1      -7.065   9.022  68.530  1.00  0.00    -0.072 A  
HETATM   19  F   UNL     1      -7.021  11.359  68.704  1.00  0.00    -0.065 F  
HETATM   20  C   UNL     1      -7.965   5.306  68.391  1.00  0.00    -0.087 C  
HETATM   21  O   UNL     1      -5.962   6.470  67.994  1.00  0.00    -0.018 OA 
HETATM   22  C   UNL     1      -7.718  10.217  68.810  1.00  0.00    -0.096 A  
HETATM   23  C   UNL     1      -7.458   3.959  68.069  1.00  0.00    -0.066 C  
HETATM   24  C   UNL     1      -9.247   5.455  68.744  1.00  0.00    -0.124 C  
BRANCH  15  25
HETATM   25  C   UNL     1     -11.342   6.739  69.042  1.00  0.00    -0.081 C  
HETATM   26  C   UNL     1     -12.033   7.697  68.097  1.00  0.00     2.616 C  
HETATM   27  C   UNL     1     -12.264   6.225  67.961  1.00  0.00     3.869 C  
ENDBRANCH  15  25
ENDBRANCH   7  10
BRANCH   9  28
HETATM   28  C   UNL     1     -13.131  11.543  70.938  1.00  0.00     0.065 C  
HETATM   29  H1  UNL     1     -14.473  11.714  72.512  1.00  0.00     0.000 HD 
HETATM   30  N   UNL     1     -13.625  12.163  72.168  1.00  0.00    -0.455 NA 
HETATM   31  H2  UNL     1     -13.762  13.167  72.046  1.00  0.00     0.000 HD 
ENDBRANCH   9  28
ENDBRANCH   3   5
ENDBRANCH   2   3
TORSDOF 5
ENDMDL
MODEL      172
REMARK 921   NORMALIZED FREE ENERGY PREDICTED BY IDOCK:   11.59 KCAL/MOL
REMARK 922        TOTAL FREE ENERGY PREDICTED BY IDOCK:   13.82 KCAL/MOL
REMARK 923 INTER-LIGAND FREE ENERGY PREDICTED BY IDOCK:   12.75 KCAL/MOL
REMARK 924 INTRA-LIGAND FREE ENERGY PREDICTED BY IDOCK:    1.08 KCAL/MOL
REMARK 927      BINDING AFFINITY PREDICTED BY RF-SCORE:    0.00 PKD
ROOT
HETATM    1  C   UNL     1     -12.061  18.276  69.316  1.00  0.00     6.785 C  
HETATM    2  O   UNL     1     -11.089  19.188  69.812  1.00  0.00     1.953 OA 
ENDROOT
BRANCH   2   3
HETATM    3  N   UNL     1     -10.114  18.472  70.521  1.00  0.00     1.204 NA 
HETATM    4  H   UNL     1     -10.084  18.373  71.536  1.00  0.00     0.000 HD 
BRANCH   3   5
HETATM    5  C   UNL     1      -9.253  17.953  69.698  1.00  0.00     0.841 C  
HETATM    6  C   UNL     1      -9.552  16.953  68.612  1.00  0.00    -0.265 C  
HETATM    7  N   UNL     1      -8.232  16.417  68.275  1.00  0.00    -0.171 NA 
HETATM    8  C   UNL     1      -7.156  17.195  68.919  1.00  0.00    -0.242 C  
HETATM    9  C   UNL     1      -7.802  18.353  69.696  1.00  0.00     0.629 C  
BRANCH   7  10
HETATM   10  C   UNL     1      -8.102  15.033  68.216  1.00  0.00    -0.133 A  
HETATM   11  N   UNL     1      -7.088  14.463  68.913  1.00  0.00    -0.110 NA 
HETATM   12  O   UNL     1      -6.913   8.040  68.419  1.00  0.00    -0.069 OA 
HETATM   13  C   UNL     1      -6.896  13.121  68.892  1.00  0.00    -0.103 A  
HETATM   14  C   UNL     1      -7.737  12.288  68.159  1.00  0.00    -0.138 A  
HETATM   15  N   UNL     1      -5.834  12.546  69.644  1.00  0.00    -0.104 NA 
HETATM   16  C   UNL     1      -7.507  10.831  68.173  1.00  0.00    -0.091 C  
HETATM   17  O   UNL     1      -5.143   8.424  69.759  1.00  0.00    -0.028 OA 
HETATM   18  C   UNL     1      -8.806  12.838  67.459  1.00  0.00    -0.187 A  
HETATM   19  F   UNL     1     -10.030  14.736  66.831  1.00  0.00    -0.232 F  
HETATM   20  C   UNL     1      -6.377  10.292  68.962  1.00  0.00    -0.044 C  
HETATM   21  O   UNL     1      -8.240  10.066  67.547  1.00  0.00    -0.113 OA 
HETATM   22  C   UNL     1      -8.986  14.216  67.496  1.00  0.00    -0.198 A  
HETATM   23  C   UNL     1      -6.070   8.855  69.089  1.00  0.00    -0.042 C  
HETATM   24  C   UNL     1      -5.623  11.182  69.619  1.00  0.00    -0.052 C  
BRANCH  15  25
HETATM   25  C   UNL     1      -5.171  13.380  70.663  1.00  0.00    -0.130 C  
HETATM   26  C   UNL     1      -5.881  14.624  71.151  1.00  0.00    -0.069 C  
HETATM   27  C   UNL     1      -5.609  13.502  72.103  1.00  0.00     0.044 C  
ENDBRANCH  15  25
ENDBRANCH   7  10
BRANCH   9  28
HETATM   28  C   UNL     1      -7.239  18.530  71.104  1.00  0.00     3.841 C  
HETATM   29  H1  UNL     1      -5.405  18.783  72.043  1.00  0.00     0.000 HD 
HETATM   30  N   UNL     1      -5.782  18.666  71.102  1.00  0.00    -0.031 NA 
HETATM   31  H2  UNL     1      -5.483  19.423  70.487  1.00  0.00     0.000 HD 
ENDBRANCH   9  28
ENDBRANCH   3   5
ENDBRANCH   2   3
TORSDOF 5
ENDMDL
MODEL      173
REMARK 921   NORMALIZED FREE ENERGY PREDICTED BY IDOCK:   12.59 KCAL/MOL
REMARK 922        TOTAL FREE ENERGY PREDICTED BY IDOCK:   15.12 KCAL/MOL
REMARK 923 INTER-LIGAND FREE ENERGY PREDICTED BY IDOCK:   15.73 KCAL/MOL
REMARK 924 INTRA-LIGAND FREE ENERGY PREDICTED BY IDOCK:   -0.61 KCAL/MOL
REMARK 927      BINDING AFFINITY PREDICTED BY RF-SCORE:    0.00 PKD
ROOT
HETATM    1  C   UNL     1     -10.149  16.352  71.920  1.00  0.00     4.402 C  
HETATM    2  O   UNL     1      -9.227  17.139  71.178  1.00  0.00     5.138 OA 
ENDROOT
BRANCH   2   3
HETATM    3  N   UNL     1      -8.223  16.303  70.667  1.00  0.00     2.698 NA 
HETATM    4  H   UNL     1      -7.663  15.656  71.222  1.00  0.00     0.000 HD 
BRANCH   3   5
HETATM    5  C   UNL     1      -8.110  16.472  69.384  1.00  0.00     0.048 C  
HETATM    6  C   UNL     1      -9.171  17.013  68.461  1.00  0.00    -0.266 C  
HETATM    7  N   UNL     1      -8.692  16.623  67.133  1.00  0.00    -0.190 NA 
HETATM    8  C   UNL     1      -7.315  16.097  67.191  1.00  0.00    -0.215 C  
HETATM    9  C   UNL     1      -6.829  16.189  68.647  1.00  0.00    -0.131 C  
BRANCH   7  10
HETATM   10  C   UNL     1      -9.603  15.999  66.286  1.00  0.00    -0.307 A  
HETATM   11  N   UNL     1      -9.757  14.658  66.402  1.00  0.00    -0.281 NA 
HETATM   12  O   UNL     1     -14.125  12.206  62.347  1.00  0.00     2.326 OA 
HETATM   13  C   UNL     1     -10.620  13.983  65.602  1.00  0.00    -0.307 A  
HETATM   14  C   UNL     1     -11.377  14.650  64.642  1.00  0.00    -0.372 A  
HETATM   15  N   UNL     1     -10.775  12.577  65.753  1.00  0.00    -0.263 NA 
HETATM   16  C   UNL     1     -12.317  13.885  63.800  1.00  0.00    -0.207 C  
HETATM   17  O   UNL     1     -13.443  10.351  63.429  1.00  0.00     4.353 OA 
HETATM   18  C   UNL     1     -11.265  16.031  64.519  1.00  0.00    -0.309 A  
HETATM   19  F   UNL     1     -10.290  18.037  65.237  1.00  0.00    -0.113 F  
HETATM   20  C   UNL     1     -12.424  12.422  63.994  1.00  0.00    -0.554 C  
HETATM   21  O   UNL     1     -13.010  14.445  62.951  1.00  0.00     0.460 OA 
HETATM   22  C   UNL     1     -10.377  16.703  65.352  1.00  0.00    -0.190 A  
HETATM   23  C   UNL     1     -13.354  11.556  63.246  1.00  0.00     1.059 C  
HETATM   24  C   UNL     1     -11.641  11.881  64.935  1.00  0.00    -0.226 C  
BRANCH  15  25
HETATM   25  C   UNL     1     -10.234  11.944  66.970  1.00  0.00    -0.210 C  
HETATM   26  C   UNL     1      -9.564  10.593  66.844  1.00  0.00    -0.200 C  
HETATM   27  C   UNL     1      -8.766  11.780  67.283  1.00  0.00    -0.163 C  
ENDBRANCH  15  25
ENDBRANCH   7  10
BRANCH   9  28
HETATM   28  C   UNL     1      -6.137  14.919  69.137  1.00  0.00    -0.103 C  
HETATM   29  H1  UNL     1      -5.029  13.338  68.374  1.00  0.00     0.000 HD 
HETATM   30  N   UNL     1      -5.492  14.186  68.047  1.00  0.00    -0.150 NA 
HETATM   31  H2  UNL     1      -4.845  14.784  67.532  1.00  0.00     0.000 HD 
ENDBRANCH   9  28
ENDBRANCH   3   5
ENDBRANCH   2   3
TORSDOF 5
ENDMDL
MODEL      174
REMARK 921   NORMALIZED FREE ENERGY PREDICTED BY IDOCK:   14.03 KCAL/MOL
REMARK 922        TOTAL FREE ENERGY PREDICTED BY IDOCK:   16.98 KCAL/MOL
REMARK 923 INTER-LIGAND FREE ENERGY PREDICTED BY IDOCK:   16.78 KCAL/MOL
REMARK 924 INTRA-LIGAND FREE ENERGY PREDICTED BY IDOCK:    0.20 KCAL/MOL
REMARK 927      BINDING AFFINITY PREDICTED BY RF-SCORE:    0.00 PKD
ROOT
HETATM    1  C   UNL     1      -7.991  14.711  65.453  1.00  0.00     5.472 C  
HETATM    2  O   UNL     1      -7.513  13.821  66.454  1.00  0.00     1.052 OA 
ENDROOT
BRANCH   2   3
HETATM    3  N   UNL     1      -8.533  12.917  66.783  1.00  0.00    -0.411 NA 
HETATM    4  H   UNL     1      -9.494  12.973  66.446  1.00  0.00     0.000 HD 
BRANCH   3   5
HETATM    5  C   UNL     1      -8.077  11.998  67.581  1.00  0.00    -0.155 C  
HETATM    6  C   UNL     1      -7.573  10.639  67.174  1.00  0.00    -0.099 C  
HETATM    7  N   UNL     1      -7.570   9.890  68.432  1.00  0.00    -0.083 NA 
HETATM    8  C   UNL     1      -7.814  10.777  69.586  1.00  0.00     0.037 C  
HETATM    9  C   UNL     1      -7.939  12.218  69.063  1.00  0.00     0.238 C  
BRANCH   7  10
HETATM   10  C   UNL     1      -8.167   8.633  68.427  1.00  0.00    -0.122 A  
HETATM   11  N   UNL     1      -8.315   8.000  69.616  1.00  0.00    -0.124 NA 
HETATM   12  O   UNL     1     -11.193   2.254  69.133  1.00  0.00     5.480 OA 
HETATM   13  C   UNL     1      -8.879   6.768  69.685  1.00  0.00    -0.144 A  
HETATM   14  C   UNL     1      -9.327   6.121  68.536  1.00  0.00    -0.117 A  
HETATM   15  N   UNL     1      -9.038   6.131  70.947  1.00  0.00    -0.150 NA 
HETATM   16  C   UNL     1      -9.949   4.788  68.651  1.00  0.00    -0.099 C  
HETATM   17  O   UNL     1     -10.824   2.373  71.353  1.00  0.00     1.040 OA 
HETATM   18  C   UNL     1      -9.217   6.757  67.304  1.00  0.00    -0.140 A  
HETATM   19  F   UNL     1      -8.554   8.633  66.066  1.00  0.00    -0.123 F  
HETATM   20  C   UNL     1     -10.074   4.169  69.990  1.00  0.00     0.030 C  
HETATM   21  O   UNL     1     -10.367   4.194  67.658  1.00  0.00     0.151 OA 
HETATM   22  C   UNL     1      -8.639   8.020  67.257  1.00  0.00    -0.124 A  
HETATM   23  C   UNL     1     -10.714   2.864  70.238  1.00  0.00     3.034 C  
HETATM   24  C   UNL     1      -9.599   4.873  71.025  1.00  0.00    -0.174 C  
BRANCH  15  25
HETATM   25  C   UNL     1      -8.875   6.947  72.164  1.00  0.00    -0.131 C  
HETATM   26  C   UNL     1      -7.993   6.417  73.274  1.00  0.00    -0.104 C  
HETATM   27  C   UNL     1      -7.611   7.674  72.557  1.00  0.00    -0.102 C  
ENDBRANCH  15  25
ENDBRANCH   7  10
BRANCH   9  28
HETATM   28  C   UNL     1      -9.122  12.979  69.657  1.00  0.00     1.985 C  
HETATM   29  H1  UNL     1     -11.043  12.607  70.350  1.00  0.00     0.000 HD 
HETATM   30  N   UNL     1     -10.253  12.099  69.953  1.00  0.00     0.662 NA 
HETATM   31  H2  UNL     1      -9.970  11.325  70.556  1.00  0.00     0.000 HD 
ENDBRANCH   9  28
ENDBRANCH   3   5
ENDBRANCH   2   3
TORSDOF 5
ENDMDL
MODEL      175
REMARK 921   NORMALIZED FREE ENERGY PREDICTED BY IDOCK:   15.55 KCAL/MOL
REMARK 922        TOTAL FREE ENERGY PREDICTED BY IDOCK:   18.94 KCAL/MOL
REMARK 923 INTER-LIGAND FREE ENERGY PREDICTED BY IDOCK:    7.72 KCAL/MOL
REMARK 924 INTRA-LIGAND FREE ENERGY PREDICTED BY IDOCK:   11.22 KCAL/MOL
REMARK 927      BINDING AFFINITY PREDICTED BY RF-SCORE:    0.00 PKD
ROOT
HETATM    1  C   UNL     1      -7.406   2.361  68.922  1.00  0.00    -0.044 C  
HETATM    2  O   UNL     1      -7.748   2.586  67.560  1.00  0.00    -0.060 OA 
ENDROOT
BRANCH   2   3
HETATM    3  N   UNL     1      -8.882   3.410  67.506  1.00  0.00    -0.117 NA 
HETATM    4  H   UNL     1      -9.662   3.288  66.861  1.00  0.00     0.000 HD 
BRANCH   3   5
HETATM    5  C   UNL     1      -8.795   4.350  68.398  1.00  0.00    -0.105 C  
HETATM    6  C   UNL     1      -9.529   5.665  68.379  1.00  0.00    -0.121 C  
HETATM    7  N   UNL     1      -8.789   6.478  69.346  1.00  0.00    -0.133 NA 
HETATM    8  C   UNL     1      -7.819   5.664  70.102  1.00  0.00    -0.091 C  
HETATM    9  C   UNL     1      -7.957   4.204  69.640  1.00  0.00    -0.056 C  
BRANCH   7  10
HETATM   10  C   UNL     1      -8.410   7.756  68.947  1.00  0.00    -0.128 A  
HETATM   11  N   UNL     1      -7.968   8.611  69.901  1.00  0.00    -0.101 NA 
HETATM   12  O   UNL     1      -6.248  14.379  67.598  1.00  0.00    -0.247 OA 
HETATM   13  C   UNL     1      -7.593   9.875  69.585  1.00  0.00    -0.136 A  
HETATM   14  C   UNL     1      -7.644  10.330  68.270  1.00  0.00    -0.091 A  
HETATM   15  N   UNL     1      -7.117  10.748  70.603  1.00  0.00     0.095 NA 
HETATM   16  C   UNL     1      -7.212  11.707  67.962  1.00  0.00    -0.083 C  
HETATM   17  O   UNL     1      -5.843  14.648  69.798  1.00  0.00    -0.098 OA 
HETATM   18  C   UNL     1      -8.063   9.468  67.263  1.00  0.00    -0.110 A  
HETATM   19  F   UNL     1      -8.827   7.345  66.627  1.00  0.00    -0.120 F  
HETATM   20  C   UNL     1      -6.741  12.574  69.065  1.00  0.00    -0.098 C  
HETATM   21  O   UNL     1      -7.233  12.136  66.808  1.00  0.00    -0.053 OA 
HETATM   22  C   UNL     1      -8.441   8.175  67.609  1.00  0.00    -0.131 A  
HETATM   23  C   UNL     1      -6.245  13.950  68.878  1.00  0.00    -0.090 C  
HETATM   24  C   UNL     1      -6.744  12.040  70.292  1.00  0.00     0.653 C  
BRANCH  15  25
HETATM   25  C   UNL     1      -6.754  10.165  71.908  1.00  0.00     1.459 C  
HETATM   26  C   UNL     1      -7.662  10.421  73.090  1.00  0.00     7.353 C  
HETATM   27  C   UNL     1      -7.482   9.026  72.581  1.00  0.00     0.434 C  
ENDBRANCH  15  25
ENDBRANCH   7  10
BRANCH   9  28
HETATM   28  C   UNL     1      -6.618   3.523  69.369  1.00  0.00    -0.034 C  
HETATM   29  H1  UNL     1      -5.126   3.507  67.927  1.00  0.00     0.000 HD 
HETATM   30  N   UNL     1      -6.020   3.962  68.108  1.00  0.00    -0.026 NA 
HETATM   31  H2  UNL     1      -5.931   4.978  68.075  1.00  0.00     0.000 HD 
ENDBRANCH   9  28
ENDBRANCH   3   5
ENDBRANCH   2   3
TORSDOF 5
ENDMDL
MODEL      176
REMARK 921   NORMALIZED FREE ENERGY PREDICTED BY IDOCK:   17.26 KCAL/MOL
REMARK 922        TOTAL FREE ENERGY PREDICTED BY IDOCK:   21.15 KCAL/MOL
REMARK 923 INTER-LIGAND FREE ENERGY PREDICTED BY IDOCK:   20.17 KCAL/MOL
REMARK 924 INTRA-LIGAND FREE ENERGY PREDICTED BY IDOCK:    0.97 KCAL/MOL
REMARK 927      BINDING AFFINITY PREDICTED BY RF-SCORE:    0.00 PKD
ROOT
HETATM    1  C   UNL     1     -11.838  13.617  73.892  1.00  0.00     4.020 C  
HETATM    2  O   UNL     1     -12.543  14.703  73.305  1.00  0.00    -0.434 OA 
ENDROOT
BRANCH   2   3
HETATM    3  N   UNL     1     -11.661  15.436  72.498  1.00  0.00    -0.459 NA 
HETATM    4  H   UNL     1     -10.825  15.915  72.833  1.00  0.00     0.000 HD 
BRANCH   3   5
HETATM    5  C   UNL     1     -12.062  15.417  71.263  1.00  0.00    -0.366 C  
HETATM    6  C   UNL     1     -12.286  14.189  70.420  1.00  0.00    -0.359 C  
HETATM    7  N   UNL     1     -12.330  14.721  69.056  1.00  0.00    -0.124 NA 
HETATM    8  C   UNL     1     -12.380  16.195  69.055  1.00  0.00     0.513 C  
HETATM    9  C   UNL     1     -12.421  16.673  70.516  1.00  0.00     2.135 C  
BRANCH   7  10
HETATM   10  C   UNL     1     -11.544  14.086  68.100  1.00  0.00    -0.334 A  
HETATM   11  N   UNL     1     -10.599  13.216  68.534  1.00  0.00    -0.256 NA 
HETATM   12  O   UNL     1      -7.254  10.451  63.770  1.00  0.00    -0.098 OA 
HETATM   13  C   UNL     1      -9.791  12.570  67.658  1.00  0.00    -0.202 A  
HETATM   14  C   UNL     1      -9.911  12.776  66.286  1.00  0.00    -0.269 A  
HETATM   15  N   UNL     1      -8.817  11.650  68.139  1.00  0.00    -0.158 NA 
HETATM   16  C   UNL     1      -9.024  12.043  65.362  1.00  0.00     0.326 C  
HETATM   17  O   UNL     1      -6.296   9.512  65.579  1.00  0.00    -0.064 OA 
HETATM   18  C   UNL     1     -10.891  13.638  65.806  1.00  0.00    -0.274 A  
HETATM   19  F   UNL     1     -12.665  15.104  66.248  1.00  0.00     0.235 F  
HETATM   20  C   UNL     1      -8.020  11.110  65.922  1.00  0.00     0.010 C  
HETATM   21  O   UNL     1      -9.113  12.192  64.144  1.00  0.00     0.395 OA 
HETATM   22  C   UNL     1     -11.711  14.287  66.722  1.00  0.00    -0.405 A  
HETATM   23  C   UNL     1      -7.108  10.291  65.102  1.00  0.00    -0.121 C  
HETATM   24  C   UNL     1      -7.982  10.997  67.255  1.00  0.00    -0.126 C  
BRANCH  15  25
HETATM   25  C   UNL     1      -8.920  11.193  69.537  1.00  0.00     0.510 C  
HETATM   26  C   UNL     1      -9.896  11.896  70.455  1.00  0.00     3.865 C  
HETATM   27  C   UNL     1     -10.098  10.452  70.121  1.00  0.00     0.022 C  
ENDBRANCH  15  25
ENDBRANCH   7  10
BRANCH   9  28
HETATM   28  C   UNL     1     -11.462  17.825  70.806  1.00  0.00     3.306 C  
HETATM   29  H1  UNL     1     -11.440  19.635  71.820  1.00  0.00     0.000 HD 
HETATM   30  N   UNL     1     -12.080  18.866  71.627  1.00  0.00     8.885 NA 
HETATM   31  H2  UNL     1     -12.462  18.477  72.490  1.00  0.00     0.000 HD 
ENDBRANCH   9  28
ENDBRANCH   3   5
ENDBRANCH   2   3
TORSDOF 5
ENDMDL
MODEL      177
REMARK 921   NORMALIZED FREE ENERGY PREDICTED BY IDOCK:   28.90 KCAL/MOL
REMARK 922        TOTAL FREE ENERGY PREDICTED BY IDOCK:   36.20 KCAL/MOL
REMARK 923 INTER-LIGAND FREE ENERGY PREDICTED BY IDOCK:   35.28 KCAL/MOL
REMARK 924 INTRA-LIGAND FREE ENERGY PREDICTED BY IDOCK:    0.92 KCAL/MOL
REMARK 927      BINDING AFFINITY PREDICTED BY RF-SCORE:    0.00 PKD
ROOT
HETATM    1  C   UNL     1      -6.312  18.764  72.823  1.00  0.00     3.275 C  
HETATM    2  O   UNL     1      -6.243  19.094  71.441  1.00  0.00     0.277 OA 
ENDROOT
BRANCH   2   3
HETATM    3  N   UNL     1      -7.247  18.394  70.757  1.00  0.00     2.471 NA 
HETATM    4  H   UNL     1      -7.858  18.796  70.046  1.00  0.00     0.000 HD 
BRANCH   3   5
HETATM    5  C   UNL     1      -7.285  17.159  71.158  1.00  0.00     4.897 C  
HETATM    6  C   UNL     1      -6.215  16.121  70.945  1.00  0.00     0.812 C  
HETATM    7  N   UNL     1      -6.910  14.861  71.217  1.00  0.00     0.857 NA 
HETATM    8  C   UNL     1      -8.245  15.098  71.800  1.00  0.00     5.073 C  
HETATM    9  C   UNL     1      -8.429  16.615  71.970  1.00  0.00    12.057 C  
BRANCH   7  10
HETATM   10  C   UNL     1      -6.769  13.840  70.282  1.00  0.00     0.258 A  
HETATM   11  N   UNL     1      -7.448  13.955  69.114  1.00  0.00    -0.035 NA 
HETATM   12  O   UNL     1      -6.440   9.054  65.053  1.00  0.00    -0.065 OA 
HETATM   13  C   UNL     1      -7.366  12.994  68.162  1.00  0.00    -0.118 A  
HETATM   14  C   UNL     1      -6.576  11.863  68.353  1.00  0.00    -0.056 A  
HETATM   15  N   UNL     1      -8.076  13.145  66.939  1.00  0.00    -0.006 NA 
HETATM   16  C   UNL     1      -6.498  10.844  67.287  1.00  0.00    -0.072 C  
HETATM   17  O   UNL     1      -7.875  10.320  63.863  1.00  0.00    -0.155 OA 
HETATM   18  C   UNL     1      -5.842  11.730  69.526  1.00  0.00    -0.083 A  
HETATM   19  F   UNL     1      -5.212  12.600  71.610  1.00  0.00    -0.153 F  
HETATM   20  C   UNL     1      -7.271  11.050  66.043  1.00  0.00    -0.014 C  
HETATM   21  O   UNL     1      -5.799   9.840  67.419  1.00  0.00    -0.050 OA 
HETATM   22  C   UNL     1      -5.938  12.729  70.488  1.00  0.00    -0.063 A  
HETATM   23  C   UNL     1      -7.243  10.128  64.892  1.00  0.00    -0.131 C  
HETATM   24  C   UNL     1      -8.008  12.165  65.969  1.00  0.00     0.761 C  
BRANCH  15  25
HETATM   25  C   UNL     1      -8.628  14.473  66.614  1.00  0.00    -0.057 C  
HETATM   26  C   UNL     1      -9.852  14.949  67.365  1.00  0.00    -0.221 C  
HETATM   27  C   UNL     1      -8.558  15.685  67.512  1.00  0.00    -0.185 C  
ENDBRANCH  15  25
ENDBRANCH   7  10
BRANCH   9  28
HETATM   28  C   UNL     1      -9.787  17.119  71.487  1.00  0.00     5.794 C  
HETATM   29  H1  UNL     1     -11.696  16.391  71.124  1.00  0.00     0.000 HD 
HETATM   30  N   UNL     1     -10.790  16.055  71.448  1.00  0.00     0.210 NA 
HETATM   31  H2  UNL     1     -10.870  15.589  72.352  1.00  0.00     0.000 HD 
ENDBRANCH   9  28
ENDBRANCH   3   5
ENDBRANCH   2   3
TORSDOF 5
ENDMDL
MODEL      178
REMARK 921   NORMALIZED FREE ENERGY PREDICTED BY IDOCK:   29.42 KCAL/MOL
REMARK 922        TOTAL FREE ENERGY PREDICTED BY IDOCK:   36.86 KCAL/MOL
REMARK 923 INTER-LIGAND FREE ENERGY PREDICTED BY IDOCK:   36.67 KCAL/MOL
REMARK 924 INTRA-LIGAND FREE ENERGY PREDICTED BY IDOCK:    0.19 KCAL/MOL
REMARK 927      BINDING AFFINITY PREDICTED BY RF-SCORE:    0.00 PKD
ROOT
HETATM    1  C   UNL     1      -9.935   5.537  62.555  1.00  0.00     1.229 C  
HETATM    2  O   UNL     1      -9.776   4.266  63.173  1.00  0.00    -0.142 OA 
ENDROOT
BRANCH   2   3
HETATM    3  N   UNL     1     -11.032   3.804  63.593  1.00  0.00    -0.327 NA 
HETATM    4  H   UNL     1     -11.629   3.170  63.061  1.00  0.00     0.000 HD 
BRANCH   3   5
HETATM    5  C   UNL     1     -11.326   4.302  64.756  1.00  0.00     0.547 C  
HETATM    6  C   UNL     1     -10.616   5.440  65.441  1.00  0.00     0.630 C  
HETATM    7  N   UNL     1     -11.062   5.327  66.831  1.00  0.00     0.230 NA 
HETATM    8  C   UNL     1     -12.160   4.350  66.966  1.00  0.00     9.608 C  
HETATM    9  C   UNL     1     -12.498   3.815  65.565  1.00  0.00     9.147 C  
BRANCH   7  10
HETATM   10  C   UNL     1     -10.083   5.360  67.819  1.00  0.00    -0.171 A  
HETATM   11  N   UNL     1     -10.040   6.447  68.629  1.00  0.00    -0.149 NA 
HETATM   12  O   UNL     1      -5.409   6.145  73.101  1.00  0.00    -0.033 OA 
HETATM   13  C   UNL     1      -9.105   6.551  69.606  1.00  0.00    -0.141 A  
HETATM   14  C   UNL     1      -8.166   5.543  69.810  1.00  0.00    -0.101 A  
HETATM   15  N   UNL     1      -9.091   7.694  70.453  1.00  0.00    -0.152 NA 
HETATM   16  C   UNL     1      -7.174   5.685  70.893  1.00  0.00    -0.079 C  
HETATM   17  O   UNL     1      -6.334   8.146  73.564  1.00  0.00    -0.086 OA 
HETATM   18  C   UNL     1      -8.203   4.402  69.016  1.00  0.00    -0.083 A  
HETATM   19  F   UNL     1      -9.210   3.201  67.274  1.00  0.00    -0.156 F  
HETATM   20  C   UNL     1      -7.199   6.903  71.733  1.00  0.00    -0.079 C  
HETATM   21  O   UNL     1      -6.339   4.807  71.108  1.00  0.00    -0.018 OA 
HETATM   22  C   UNL     1      -9.172   4.314  68.023  1.00  0.00    -0.142 A  
HETATM   23  C   UNL     1      -6.290   7.141  72.869  1.00  0.00    -0.056 C  
HETATM   24  C   UNL     1      -8.136   7.815  71.442  1.00  0.00    -0.099 C  
BRANCH  15  25
HETATM   25  C   UNL     1     -10.271   8.579  70.450  1.00  0.00    -0.195 C  
HETATM   26  C   UNL     1     -11.449   8.211  71.325  1.00  0.00    -0.299 C  
HETATM   27  C   UNL     1     -10.688   9.471  71.594  1.00  0.00    -0.164 C  
ENDBRANCH  15  25
ENDBRANCH   7  10
BRANCH   9  28
HETATM   28  C   UNL     1     -12.656   2.297  65.516  1.00  0.00    15.800 C  
HETATM   29  H1  UNL     1     -11.695   0.641  64.715  1.00  0.00     0.000 HD 
HETATM   30  N   UNL     1     -11.589   1.655  64.748  1.00  0.00     2.148 NA 
HETATM   31  H2  UNL     1     -10.669   1.919  65.101  1.00  0.00     0.000 HD 
ENDBRANCH   9  28
ENDBRANCH   3   5
ENDBRANCH   2   3
TORSDOF 5
ENDMDL
MODEL      179
REMARK 921   NORMALIZED FREE ENERGY PREDICTED BY IDOCK:   30.74 KCAL/MOL
REMARK 922        TOTAL FREE ENERGY PREDICTED BY IDOCK:   38.57 KCAL/MOL
REMARK 923 INTER-LIGAND FREE ENERGY PREDICTED BY IDOCK:   39.33 KCAL/MOL
REMARK 924 INTRA-LIGAND FREE ENERGY PREDICTED BY IDOCK:   -0.76 KCAL/MOL
REMARK 927      BINDING AFFINITY PREDICTED BY RF-SCORE:    0.00 PKD
ROOT
HETATM    1  C   UNL     1     -10.176  16.118  72.857  1.00  0.00     5.898 C  
HETATM    2  O   UNL     1      -9.024  16.913  72.604  1.00  0.00    12.658 OA 
ENDROOT
BRANCH   2   3
HETATM    3  N   UNL     1      -7.906  16.073  72.500  1.00  0.00    10.419 NA 
HETATM    4  H   UNL     1      -7.470  15.581  73.280  1.00  0.00     0.000 HD 
BRANCH   3   5
HETATM    5  C   UNL     1      -7.505  16.013  71.265  1.00  0.00     4.141 C  
HETATM    6  C   UNL     1      -8.207  16.607  70.072  1.00  0.00     1.515 C  
HETATM    7  N   UNL     1      -7.580  15.925  68.939  1.00  0.00    -0.175 NA 
HETATM    8  C   UNL     1      -6.403  15.145  69.365  1.00  0.00    -0.129 C  
HETATM    9  C   UNL     1      -6.206  15.363  70.874  1.00  0.00     0.351 C  
BRANCH   7  10
HETATM   10  C   UNL     1      -8.425  15.375  67.980  1.00  0.00    -0.146 A  
HETATM   11  N   UNL     1      -9.315  14.436  68.385  1.00  0.00    -0.202 NA 
HETATM   12  O   UNL     1     -13.073  12.226  63.640  1.00  0.00    -0.780 OA 
HETATM   13  C   UNL     1     -10.161  13.850  67.503  1.00  0.00    -0.245 A  
HETATM   14  C   UNL     1     -10.146  14.200  66.155  1.00  0.00    -0.324 A  
HETATM   15  N   UNL     1     -11.096  12.878  67.956  1.00  0.00    -0.241 NA 
HETATM   16  C   UNL     1     -11.093  13.553  65.227  1.00  0.00    -0.297 C  
HETATM   17  O   UNL     1     -13.833  11.030  65.392  1.00  0.00     7.601 OA 
HETATM   18  C   UNL     1      -9.267  15.183  65.713  1.00  0.00    -0.083 A  
HETATM   19  F   UNL     1      -7.578  16.732  66.201  1.00  0.00    -0.301 F  
HETATM   20  C   UNL     1     -12.033  12.538  65.754  1.00  0.00    -0.482 C  
HETATM   21  O   UNL     1     -11.115  13.849  64.033  1.00  0.00    -0.199 OA 
HETATM   22  C   UNL     1      -8.410  15.773  66.635  1.00  0.00    -0.284 A  
HETATM   23  C   UNL     1     -13.052  11.854  64.938  1.00  0.00     1.455 C  
HETATM   24  C   UNL     1     -11.954  12.268  67.063  1.00  0.00    -0.143 C  
BRANCH  15  25
HETATM   25  C   UNL     1     -11.332  12.762  69.408  1.00  0.00    -0.202 C  
HETATM   26  C   UNL     1     -12.145  13.836  70.094  1.00  0.00    -0.429 C  
HETATM   27  C   UNL     1     -12.659  12.432  70.047  1.00  0.00     0.107 C  
ENDBRANCH  15  25
ENDBRANCH   7  10
BRANCH   9  28
HETATM   28  C   UNL     1      -5.939  14.071  71.644  1.00  0.00     0.005 C  
HETATM   29  H1  UNL     1      -6.250  12.029  71.444  1.00  0.00     0.000 HD 
HETATM   30  N   UNL     1      -6.428  12.891  70.930  1.00  0.00    -0.156 NA 
HETATM   31  H2  UNL     1      -6.042  12.845  69.987  1.00  0.00     0.000 HD 
ENDBRANCH   9  28
ENDBRANCH   3   5
ENDBRANCH   2   3
TORSDOF 5
ENDMDL
MODEL      180
REMARK 921   NORMALIZED FREE ENERGY PREDICTED BY IDOCK:   30.87 KCAL/MOL
REMARK 922        TOTAL FREE ENERGY PREDICTED BY IDOCK:   38.74 KCAL/MOL
REMARK 923 INTER-LIGAND FREE ENERGY PREDICTED BY IDOCK:   38.41 KCAL/MOL
REMARK 924 INTRA-LIGAND FREE ENERGY PREDICTED BY IDOCK:    0.32 KCAL/MOL
REMARK 927      BINDING AFFINITY PREDICTED BY RF-SCORE:    0.00 PKD
ROOT
HETATM    1  C   UNL     1     -13.594  16.121  67.724  1.00  0.00     6.370 C  
HETATM    2  O   UNL     1     -13.622  14.716  67.940  1.00  0.00     3.799 OA 
ENDROOT
BRANCH   2   3
HETATM    3  N   UNL     1     -12.668  14.386  68.914  1.00  0.00    -0.247 NA 
HETATM    4  H   UNL     1     -12.001  15.040  69.322  1.00  0.00     0.000 HD 
BRANCH   3   5
HETATM    5  C   UNL     1     -12.759  13.127  69.221  1.00  0.00     0.731 C  
HETATM    6  C   UNL     1     -12.647  12.538  70.603  1.00  0.00    -0.155 C  
HETATM    7  N   UNL     1     -12.418  11.115  70.345  1.00  0.00    -0.311 NA 
HETATM    8  C   UNL     1     -12.619  10.788  68.920  1.00  0.00     0.824 C  
HETATM    9  C   UNL     1     -13.057  12.070  68.192  1.00  0.00     4.029 C  
BRANCH   7  10
HETATM   10  C   UNL     1     -11.365  10.507  71.020  1.00  0.00     0.003 A  
HETATM   11  N   UNL     1     -11.063   9.225  70.697  1.00  0.00    -0.258 NA 
HETATM   12  O   UNL     1      -6.078   6.836  74.009  1.00  0.00    -0.063 OA 
HETATM   13  C   UNL     1     -10.057   8.567  71.322  1.00  0.00    -0.222 A  
HETATM   14  C   UNL     1      -9.299   9.189  72.311  1.00  0.00     0.518 A  
HETATM   15  N   UNL     1      -9.750   7.227  70.953  1.00  0.00    -0.171 NA 
HETATM   16  C   UNL     1      -8.201   8.446  72.959  1.00  0.00    -0.113 C  
HETATM   17  O   UNL     1      -6.631   5.074  72.718  1.00  0.00    -0.055 OA 
HETATM   18  C   UNL     1      -9.563  10.513  72.644  1.00  0.00    10.424 A  
HETATM   19  F   UNL     1     -10.833  12.454  72.305  1.00  0.00     5.885 F  
HETATM   20  C   UNL     1      -7.938   7.050  72.543  1.00  0.00    -0.101 C  
HETATM   21  O   UNL     1      -7.504   8.971  73.827  1.00  0.00    -0.349 OA 
HETATM   22  C   UNL     1     -10.597  11.171  71.988  1.00  0.00     7.662 A  
HETATM   23  C   UNL     1      -6.846   6.220  73.084  1.00  0.00    -0.075 C  
HETATM   24  C   UNL     1      -8.734   6.545  71.593  1.00  0.00    -0.132 C  
BRANCH  15  25
HETATM   25  C   UNL     1     -10.321   6.701  69.700  1.00  0.00    -0.194 C  
HETATM   26  C   UNL     1     -10.411   5.202  69.522  1.00  0.00    -0.292 C  
HETATM   27  C   UNL     1     -11.663   6.019  69.579  1.00  0.00     0.418 C  
ENDBRANCH  15  25
ENDBRANCH   7  10
BRANCH   9  28
HETATM   28  C   UNL     1     -12.319  12.304  66.877  1.00  0.00     0.626 C  
HETATM   29  H1  UNL     1     -11.155  11.251  65.518  1.00  0.00     0.000 HD 
HETATM   30  N   UNL     1     -11.649  11.095  66.397  1.00  0.00    -0.143 NA 
HETATM   31  H2  UNL     1     -12.303  10.316  66.320  1.00  0.00     0.000 HD 
ENDBRANCH   9  28
ENDBRANCH   3   5
ENDBRANCH   2   3
TORSDOF 5
ENDMDL
MODEL      181
REMARK 921   NORMALIZED FREE ENERGY PREDICTED BY IDOCK:   31.06 KCAL/MOL
REMARK 922        TOTAL FREE ENERGY PREDICTED BY IDOCK:   38.98 KCAL/MOL
REMARK 923 INTER-LIGAND FREE ENERGY PREDICTED BY IDOCK:   38.97 KCAL/MOL
REMARK 924 INTRA-LIGAND FREE ENERGY PREDICTED BY IDOCK:    0.01 KCAL/MOL
REMARK 927      BINDING AFFINITY PREDICTED BY RF-SCORE:    0.00 PKD
ROOT
HETATM    1  C   UNL     1     -10.177  16.118  72.860  1.00  0.00     5.898 C  
HETATM    2  O   UNL     1      -9.027  16.909  72.590  1.00  0.00    12.658 OA 
ENDROOT
BRANCH   2   3
HETATM    3  N   UNL     1      -7.910  16.067  72.487  1.00  0.00    10.419 NA 
HETATM    4  H   UNL     1      -7.460  15.595  73.272  1.00  0.00     0.000 HD 
BRANCH   3   5
HETATM    5  C   UNL     1      -7.530  15.975  71.248  1.00  0.00     4.141 C  
HETATM    6  C   UNL     1      -8.255  16.535  70.052  1.00  0.00     1.387 C  
HETATM    7  N   UNL     1      -7.645  15.826  68.926  1.00  0.00    -0.167 NA 
HETATM    8  C   UNL     1      -6.457  15.062  69.352  1.00  0.00    -0.135 C  
HETATM    9  C   UNL     1      -6.235  15.321  70.852  1.00  0.00     0.291 C  
BRANCH   7  10
HETATM   10  C   UNL     1      -8.504  15.247  67.997  1.00  0.00    -0.147 A  
HETATM   11  N   UNL     1      -7.981  14.348  67.128  1.00  0.00    -0.171 NA 
HETATM   12  O   UNL     1     -12.324  11.865  63.065  1.00  0.00    -0.368 OA 
HETATM   13  C   UNL     1      -8.758  13.753  66.189  1.00  0.00     0.578 A  
HETATM   14  C   UNL     1     -10.116  14.043  66.094  1.00  0.00    -0.319 A  
HETATM   15  N   UNL     1      -8.188  12.801  65.298  1.00  0.00     2.526 NA 
HETATM   16  C   UNL     1     -10.934  13.364  65.070  1.00  0.00    -0.316 C  
HETATM   17  O   UNL     1     -10.448  10.812  62.396  1.00  0.00     0.394 OA 
HETATM   18  C   UNL     1     -10.690  14.938  66.991  1.00  0.00    -0.307 A  
HETATM   19  F   UNL     1     -10.443  16.382  68.820  1.00  0.00    -0.237 F  
HETATM   20  C   UNL     1     -10.282  12.395  64.161  1.00  0.00    -0.377 C  
HETATM   21  O   UNL     1     -12.139  13.588  64.968  1.00  0.00    -0.360 OA 
HETATM   22  C   UNL     1      -9.876  15.534  67.948  1.00  0.00    -0.216 A  
HETATM   23  C   UNL     1     -10.997  11.623  63.128  1.00  0.00    -0.164 C  
HETATM   24  C   UNL     1      -8.969  12.200  64.331  1.00  0.00     0.914 C  
BRANCH  15  25
HETATM   25  C   UNL     1      -6.854  12.260  65.616  1.00  0.00     3.119 C  
HETATM   26  C   UNL     1      -6.734  11.252  66.738  1.00  0.00    -0.140 C  
HETATM   27  C   UNL     1      -6.403  10.847  65.337  1.00  0.00     0.102 C  
ENDBRANCH  15  25
ENDBRANCH   7  10
BRANCH   9  28
HETATM   28  C   UNL     1      -5.948  14.052  71.651  1.00  0.00     0.005 C  
HETATM   29  H1  UNL     1      -6.253  12.003  71.511  1.00  0.00     0.000 HD 
HETATM   30  N   UNL     1      -6.444  12.851  70.977  1.00  0.00    -0.033 NA 
HETATM   31  H2  UNL     1      -6.076  12.781  70.028  1.00  0.00     0.000 HD 
ENDBRANCH   9  28
ENDBRANCH   3   5
ENDBRANCH   2   3
TORSDOF 5
ENDMDL
MODEL      182
REMARK 921   NORMALIZED FREE ENERGY PREDICTED BY IDOCK:   43.19 KCAL/MOL
REMARK 922        TOTAL FREE ENERGY PREDICTED BY IDOCK:   54.66 KCAL/MOL
REMARK 923 INTER-LIGAND FREE ENERGY PREDICTED BY IDOCK:   53.51 KCAL/MOL
REMARK 924 INTRA-LIGAND FREE ENERGY PREDICTED BY IDOCK:    1.15 KCAL/MOL
REMARK 927      BINDING AFFINITY PREDICTED BY RF-SCORE:    0.00 PKD
ROOT
HETATM    1  C   UNL     1     -11.895  13.014  74.350  1.00  0.00    10.409 C  
HETATM    2  O   UNL     1     -11.896  14.430  74.222  1.00  0.00    -0.035 OA 
ENDROOT
BRANCH   2   3
HETATM    3  N   UNL     1     -10.620  14.852  73.822  1.00  0.00     2.908 NA 
HETATM    4  H   UNL     1      -9.795  14.863  74.421  1.00  0.00     0.000 HD 
BRANCH   3   5
HETATM    5  C   UNL     1     -10.641  15.226  72.578  1.00  0.00     1.809 C  
HETATM    6  C   UNL     1     -11.340  14.516  71.448  1.00  0.00     0.250 C  
HETATM    7  N   UNL     1     -10.728  15.102  70.254  1.00  0.00    -0.241 NA 
HETATM    8  C   UNL     1      -9.891  16.268  70.595  1.00  0.00     1.526 C  
HETATM    9  C   UNL     1      -9.991  16.500  72.112  1.00  0.00     6.033 C  
BRANCH   7  10
HETATM   10  C   UNL     1     -10.272  14.224  69.275  1.00  0.00    -0.015 A  
HETATM   11  N   UNL     1     -10.175  12.911  69.600  1.00  0.00     0.836 NA 
HETATM   12  O   UNL     1      -8.099   9.205  64.754  1.00  0.00    -0.125 OA 
HETATM   13  C   UNL     1      -9.728  12.002  68.699  1.00  0.00    -0.096 A  
HETATM   14  C   UNL     1      -9.360  12.388  67.413  1.00  0.00    -0.181 A  
HETATM   15  N   UNL     1      -9.651  10.627  69.059  1.00  0.00    -0.199 NA 
HETATM   16  C   UNL     1      -8.893  11.368  66.455  1.00  0.00    -0.192 C  
HETATM   17  O   UNL     1      -8.371   7.677  66.387  1.00  0.00    -0.117 OA 
HETATM   18  C   UNL     1      -9.477  13.723  67.039  1.00  0.00    -0.255 A  
HETATM   19  F   UNL     1     -10.066  15.920  67.601  1.00  0.00    -0.230 F  
HETATM   20  C   UNL     1      -8.820   9.956  66.891  1.00  0.00    -0.146 C  
HETATM   21  O   UNL     1      -8.572  11.674  65.307  1.00  0.00     0.192 OA 
HETATM   22  C   UNL     1      -9.941  14.638  67.977  1.00  0.00    -0.220 A  
HETATM   23  C   UNL     1      -8.410   8.842  66.016  1.00  0.00    -0.126 C  
HETATM   24  C   UNL     1      -9.185   9.696  68.153  1.00  0.00    -0.125 C  
BRANCH  15  25
HETATM   25  C   UNL     1     -10.346  10.188  70.283  1.00  0.00    -0.174 C  
HETATM   26  C   UNL     1     -10.843  11.242  71.248  1.00  0.00     3.125 C  
HETATM   27  C   UNL     1     -11.823  10.354  70.548  1.00  0.00    -0.430 C  
ENDBRANCH  15  25
ENDBRANCH   7  10
BRANCH   9  28
HETATM   28  C   UNL     1      -8.640  16.750  72.779  1.00  0.00    17.319 C  
HETATM   29  H1  UNL     1      -7.782  18.045  74.154  1.00  0.00     0.000 HD 
HETATM   30  N   UNL     1      -8.684  17.878  73.709  1.00  0.00    12.009 NA 
HETATM   31  H2  UNL     1      -9.421  17.756  74.403  1.00  0.00     0.000 HD 
ENDBRANCH   9  28
ENDBRANCH   3   5
ENDBRANCH   2   3
TORSDOF 5
ENDMDL
MODEL      183
REMARK 921   NORMALIZED FREE ENERGY PREDICTED BY IDOCK:   48.67 KCAL/MOL
REMARK 922        TOTAL FREE ENERGY PREDICTED BY IDOCK:   61.73 KCAL/MOL
REMARK 923 INTER-LIGAND FREE ENERGY PREDICTED BY IDOCK:   53.49 KCAL/MOL
REMARK 924 INTRA-LIGAND FREE ENERGY PREDICTED BY IDOCK:    8.24 KCAL/MOL
REMARK 927      BINDING AFFINITY PREDICTED BY RF-SCORE:    0.00 PKD
ROOT
HETATM    1  C   UNL     1      -8.124  18.788  71.037  1.00  0.00     4.913 C  
HETATM    2  O   UNL     1      -7.772  19.733  70.036  1.00  0.00     0.192 OA 
ENDROOT
BRANCH   2   3
HETATM    3  N   UNL     1      -8.610  19.552  68.925  1.00  0.00    -0.326 NA 
HETATM    4  H   UNL     1      -9.604  19.779  68.901  1.00  0.00     0.000 HD 
BRANCH   3   5
HETATM    5  C   UNL     1      -7.936  19.054  67.933  1.00  0.00    -0.277 C  
HETATM    6  C   UNL     1      -8.513  18.492  66.660  1.00  0.00    -0.278 C  
HETATM    7  N   UNL     1      -7.400  17.726  66.095  1.00  0.00    -0.343 NA 
HETATM    8  C   UNL     1      -6.144  17.987  66.824  1.00  0.00    -0.158 C  
HETATM    9  C   UNL     1      -6.432  19.032  67.915  1.00  0.00    -0.237 C  
BRANCH   7  10
HETATM   10  C   UNL     1      -7.667  16.424  65.683  1.00  0.00     1.541 A  
HETATM   11  N   UNL     1      -8.389  15.634  66.515  1.00  0.00    -0.273 NA 
HETATM   12  O   UNL     1      -9.455   9.725  64.174  1.00  0.00    -0.253 OA 
HETATM   13  C   UNL     1      -8.677  14.351  66.182  1.00  0.00     0.428 A  
HETATM   14  C   UNL     1      -8.246  13.810  64.973  1.00  0.00     5.852 A  
HETATM   15  N   UNL     1      -9.450  13.547  67.065  1.00  0.00    -0.243 NA 
HETATM   16  C   UNL     1      -8.592  12.416  64.638  1.00  0.00     2.080 C  
HETATM   17  O   UNL     1     -10.500   9.601  66.166  1.00  0.00    -0.179 OA 
HETATM   18  C   UNL     1      -7.530  14.605  64.084  1.00  0.00    18.711 A  
HETATM   19  F   UNL     1      -6.572  16.681  63.572  1.00  0.00     8.978 F  
HETATM   20  C   UNL     1      -9.386  11.623  65.603  1.00  0.00    -0.195 C  
HETATM   21  O   UNL     1      -8.237  11.912  63.573  1.00  0.00     1.148 OA 
HETATM   22  C   UNL     1      -7.248  15.918  64.444  1.00  0.00    14.052 A  
HETATM   23  C   UNL     1      -9.830  10.237  65.365  1.00  0.00    -0.296 C  
HETATM   24  C   UNL     1      -9.738  12.237  66.740  1.00  0.00    -0.213 C  
BRANCH  15  25
HETATM   25  C   UNL     1     -10.173  14.214  68.163  1.00  0.00    -0.241 C  
HETATM   26  C   UNL     1      -9.649  15.540  68.670  1.00  0.00    -0.203 C  
HETATM   27  C   UNL     1     -10.995  15.473  68.020  1.00  0.00    -0.311 C  
ENDBRANCH  15  25
ENDBRANCH   7  10
BRANCH   9  28
HETATM   28  C   UNL     1      -5.832  18.674  69.272  1.00  0.00    -0.231 C  
HETATM   29  H1  UNL     1      -5.978  19.258  71.259  1.00  0.00     0.000 HD 
HETATM   30  N   UNL     1      -6.379  19.497  70.352  1.00  0.00    -0.147 NA 
HETATM   31  H2  UNL     1      -7.397  19.447  70.373  1.00  0.00     0.000 HD 
ENDBRANCH   9  28
ENDBRANCH   3   5
ENDBRANCH   2   3
TORSDOF 5
ENDMDL
