MODEL        1
REMARK 921   NORMALIZED FREE ENERGY PREDICTED BY IDOCK:   -6.33 KCAL/MOL
REMARK 922        TOTAL FREE ENERGY PREDICTED BY IDOCK:   -9.99 KCAL/MOL
REMARK 923 INTER-LIGAND FREE ENERGY PREDICTED BY IDOCK:   -8.56 KCAL/MOL
REMARK 924 INTRA-LIGAND FREE ENERGY PREDICTED BY IDOCK:   -1.43 KCAL/MOL
REMARK 927      BINDING AFFINITY PREDICTED BY RF-SCORE:    0.00 PKD
ROOT
HETATM    1  C   UNL     1     -12.735  15.163  73.795  1.00  0.00    -0.525 C  
HETATM    2  N   UNL     1     -12.973  14.464  72.532  1.00  0.00    -0.398 NA 
HETATM    3  C   UNL     1     -14.262  13.784  72.407  1.00  0.00    -0.402 C  
ENDROOT
BRANCH   2   4
HETATM    4  C   UNL     1     -12.237  14.785  71.391  1.00  0.00    -0.342 A  
HETATM    5  C   UNL     1     -11.606  16.032  71.215  1.00  0.00    -0.506 A  
HETATM    6  C   UNL     1     -10.906  16.370  70.039  1.00  0.00    -0.306 A  
HETATM    7  C   UNL     1     -10.790  15.458  68.992  1.00  0.00    -0.244 A  
HETATM    8  C   UNL     1     -11.361  14.194  69.164  1.00  0.00    -0.318 A  
HETATM    9  C   UNL     1     -12.064  13.871  70.337  1.00  0.00    -0.421 A  
BRANCH   7  10
HETATM   10  C   UNL     1     -10.152  15.804  67.684  1.00  0.00    -0.247 C  
BRANCH  10  11
HETATM   11  C   UNL     1     -10.297  14.855  66.539  1.00  0.00    -0.295 A  
HETATM   12  C   UNL     1      -9.797  12.716  65.490  1.00  0.00    -0.177 A  
HETATM   13  C   UNL     1      -9.574  13.664  66.508  1.00  0.00    -0.294 A  
HETATM   14  C   UNL     1     -11.202  15.102  65.506  1.00  0.00    -0.320 A  
HETATM   15  C   UNL     1     -11.404  14.151  64.489  1.00  0.00    -0.355 A  
HETATM   16  C   UNL     1     -10.732  12.917  64.460  1.00  0.00    -0.371 A  
BRANCH  16  17
HETATM   17  N   UNL     1     -11.001  11.946  63.508  1.00  0.00    -0.421 NA 
HETATM   18  C   UNL     1     -12.364  11.599  63.103  1.00  0.00    -0.034 C  
HETATM   19  C   UNL     1      -9.978  11.047  62.978  1.00  0.00    -0.295 C  
ENDBRANCH  16  17
ENDBRANCH  10  11
BRANCH  10  20
HETATM   20  C   UNL     1      -9.361  16.912  67.537  1.00  0.00    -0.232 A  
HETATM   21  C   UNL     1      -7.116  17.900  67.476  1.00  0.00    -0.205 A  
HETATM   22  C   UNL     1      -9.111  19.199  66.649  1.00  0.00    -0.361 A  
HETATM   23  C   UNL     1      -7.936  16.913  67.877  1.00  0.00    -0.187 A  
HETATM   24  C   UNL     1      -9.899  18.207  67.090  1.00  0.00    -0.319 A  
HETATM   25  C   UNL     1      -7.619  19.035  66.625  1.00  0.00    -0.243 A  
BRANCH  25  26
HETATM   26  N   UNL     1      -6.822  19.812  65.939  1.00  0.00    -0.252 NA 
HETATM   27  C   UNL     1      -6.315  21.139  66.440  1.00  0.00    -0.254 C  
HETATM   28  C   UNL     1      -6.260  19.492  64.585  1.00  0.00    -0.231 C  
ENDBRANCH  25  26
ENDBRANCH  10  20
ENDBRANCH   7  10
ENDBRANCH   2   4
TORSDOF 6
ENDMDL
MODEL        2
REMARK 921   NORMALIZED FREE ENERGY PREDICTED BY IDOCK:   -6.27 KCAL/MOL
REMARK 922        TOTAL FREE ENERGY PREDICTED BY IDOCK:   -9.90 KCAL/MOL
REMARK 923 INTER-LIGAND FREE ENERGY PREDICTED BY IDOCK:   -8.35 KCAL/MOL
REMARK 924 INTRA-LIGAND FREE ENERGY PREDICTED BY IDOCK:   -1.55 KCAL/MOL
REMARK 927      BINDING AFFINITY PREDICTED BY RF-SCORE:    0.00 PKD
ROOT
HETATM    1  C   UNL     1      -6.787   9.600  65.168  1.00  0.00    -0.098 C  
HETATM    2  N   UNL     1      -8.189  10.009  65.228  1.00  0.00    -0.141 NA 
HETATM    3  C   UNL     1      -8.906  10.033  63.953  1.00  0.00    -0.229 C  
ENDROOT
BRANCH   2   4
HETATM    4  C   UNL     1      -8.898   9.949  66.427  1.00  0.00    -0.142 A  
HETATM    5  C   UNL     1     -10.303   9.855  66.480  1.00  0.00    -0.259 A  
HETATM    6  C   UNL     1     -11.019   9.846  67.694  1.00  0.00    -0.263 A  
HETATM    7  C   UNL     1     -10.351   9.909  68.915  1.00  0.00    -0.221 A  
HETATM    8  C   UNL     1      -8.955   9.950  68.892  1.00  0.00    -0.153 A  
HETATM    9  C   UNL     1      -8.251   9.967  67.675  1.00  0.00    -0.114 A  
BRANCH   7  10
HETATM   10  C   UNL     1     -11.068  10.011  70.225  1.00  0.00    -0.381 C  
BRANCH  10  11
HETATM   11  C   UNL     1     -11.026   8.846  71.160  1.00  0.00    -0.356 A  
HETATM   12  C   UNL     1     -11.623   6.549  71.703  1.00  0.00    -0.357 A  
HETATM   13  C   UNL     1     -11.753   7.689  70.885  1.00  0.00    -0.291 A  
HETATM   14  C   UNL     1     -10.216   8.859  72.295  1.00  0.00    -0.196 A  
HETATM   15  C   UNL     1     -10.106   7.717  73.110  1.00  0.00    -0.382 A  
HETATM   16  C   UNL     1     -10.783   6.517  72.829  1.00  0.00    -0.240 A  
BRANCH  16  17
HETATM   17  N   UNL     1     -10.601   5.367  73.582  1.00  0.00    -0.259 NA 
HETATM   18  C   UNL     1      -9.502   5.219  74.538  1.00  0.00    -0.140 C  
HETATM   19  C   UNL     1     -11.352   4.136  73.346  1.00  0.00    -0.198 C  
ENDBRANCH  16  17
ENDBRANCH  10  11
BRANCH  10  20
HETATM   20  C   UNL     1     -11.836  11.097  70.546  1.00  0.00    -0.448 A  
HETATM   21  C   UNL     1     -13.485  12.141  72.033  1.00  0.00    -0.388 A  
HETATM   22  C   UNL     1     -12.187  13.533  70.382  1.00  0.00    -0.426 A  
HETATM   23  C   UNL     1     -12.924  11.030  71.524  1.00  0.00    -0.553 A  
HETATM   24  C   UNL     1     -11.672  12.400  69.880  1.00  0.00    -0.339 A  
HETATM   25  C   UNL     1     -12.993  13.510  71.647  1.00  0.00    -0.359 A  
BRANCH  25  26
HETATM   26  N   UNL     1     -13.257  14.581  72.350  1.00  0.00    -0.384 NA 
HETATM   27  C   UNL     1     -12.491  14.980  73.583  1.00  0.00    -0.532 C  
HETATM   28  C   UNL     1     -14.318  15.589  72.020  1.00  0.00    -0.496 C  
ENDBRANCH  25  26
ENDBRANCH  10  20
ENDBRANCH   7  10
ENDBRANCH   2   4
TORSDOF 6
ENDMDL
MODEL        3
REMARK 921   NORMALIZED FREE ENERGY PREDICTED BY IDOCK:   -6.22 KCAL/MOL
REMARK 922        TOTAL FREE ENERGY PREDICTED BY IDOCK:   -9.84 KCAL/MOL
REMARK 923 INTER-LIGAND FREE ENERGY PREDICTED BY IDOCK:   -8.27 KCAL/MOL
REMARK 924 INTRA-LIGAND FREE ENERGY PREDICTED BY IDOCK:   -1.57 KCAL/MOL
REMARK 927      BINDING AFFINITY PREDICTED BY RF-SCORE:    0.00 PKD
ROOT
HETATM    1  C   UNL     1     -10.396   5.316  74.555  1.00  0.00    -0.256 C  
HETATM    2  N   UNL     1     -10.075   5.389  73.131  1.00  0.00    -0.175 NA 
HETATM    3  C   UNL     1      -9.876   4.108  72.451  1.00  0.00    -0.160 C  
ENDROOT
BRANCH   2   4
HETATM    4  C   UNL     1     -10.369   6.534  72.392  1.00  0.00    -0.188 A  
HETATM    5  C   UNL     1     -11.380   6.571  71.411  1.00  0.00    -0.344 A  
HETATM    6  C   UNL     1     -11.641   7.716  70.631  1.00  0.00    -0.251 A  
HETATM    7  C   UNL     1     -10.908   8.887  70.818  1.00  0.00    -0.294 A  
HETATM    8  C   UNL     1      -9.935   8.893  71.821  1.00  0.00    -0.397 A  
HETATM    9  C   UNL     1      -9.679   7.743  72.587  1.00  0.00    -0.278 A  
BRANCH   7  10
HETATM   10  C   UNL     1     -11.072  10.092  69.946  1.00  0.00    -0.336 C  
BRANCH  10  11
HETATM   11  C   UNL     1     -10.311  10.158  68.661  1.00  0.00    -0.208 A  
HETATM   12  C   UNL     1      -8.236  10.552  67.451  1.00  0.00    -0.118 A  
HETATM   13  C   UNL     1      -8.990  10.600  68.640  1.00  0.00    -0.170 A  
HETATM   14  C   UNL     1     -10.878   9.723  67.463  1.00  0.00    -0.286 A  
HETATM   15  C   UNL     1     -10.116   9.693  66.280  1.00  0.00    -0.322 A  
HETATM   16  C   UNL     1      -8.765  10.080  66.238  1.00  0.00    -0.136 A  
BRANCH  16  17
HETATM   17  N   UNL     1      -7.994   9.963  65.092  1.00  0.00    -0.132 NA 
HETATM   18  C   UNL     1      -8.540   9.479  63.823  1.00  0.00    -0.211 C  
HETATM   19  C   UNL     1      -6.540  10.110  65.094  1.00  0.00    -0.124 C  
ENDBRANCH  16  17
ENDBRANCH  10  11
BRANCH  10  20
HETATM   20  C   UNL     1     -11.818  11.171  70.337  1.00  0.00    -0.462 A  
HETATM   21  C   UNL     1     -13.259  12.234  72.013  1.00  0.00    -0.508 A  
HETATM   22  C   UNL     1     -12.264  13.588  70.136  1.00  0.00    -0.400 A  
HETATM   23  C   UNL     1     -12.746  11.117  71.468  1.00  0.00    -0.499 A  
HETATM   24  C   UNL     1     -11.794  12.448  69.606  1.00  0.00    -0.380 A  
HETATM   25  C   UNL     1     -12.872  13.598  71.507  1.00  0.00    -0.359 A  
BRANCH  25  26
HETATM   26  N   UNL     1     -13.063  14.690  72.201  1.00  0.00    -0.325 NA 
HETATM   27  C   UNL     1     -12.047  15.261  73.155  1.00  0.00    -0.426 C  
HETATM   28  C   UNL     1     -14.284  15.558  72.125  1.00  0.00    -0.522 C  
ENDBRANCH  25  26
ENDBRANCH  10  20
ENDBRANCH   7  10
ENDBRANCH   2   4
TORSDOF 6
ENDMDL
MODEL        4
REMARK 921   NORMALIZED FREE ENERGY PREDICTED BY IDOCK:   -6.16 KCAL/MOL
REMARK 922        TOTAL FREE ENERGY PREDICTED BY IDOCK:   -9.75 KCAL/MOL
REMARK 923 INTER-LIGAND FREE ENERGY PREDICTED BY IDOCK:   -8.20 KCAL/MOL
REMARK 924 INTRA-LIGAND FREE ENERGY PREDICTED BY IDOCK:   -1.54 KCAL/MOL
REMARK 927      BINDING AFFINITY PREDICTED BY RF-SCORE:    0.00 PKD
ROOT
HETATM    1  C   UNL     1      -8.015   7.327  64.466  1.00  0.00    -0.112 C  
HETATM    2  N   UNL     1      -8.241   8.603  63.788  1.00  0.00    -0.162 NA 
HETATM    3  C   UNL     1      -8.528   8.527  62.355  1.00  0.00    -0.174 C  
ENDROOT
BRANCH   2   4
HETATM    4  C   UNL     1      -8.591   9.743  64.511  1.00  0.00    -0.184 A  
HETATM    5  C   UNL     1      -7.815  10.239  65.576  1.00  0.00    -0.152 A  
HETATM    6  C   UNL     1      -8.198  11.362  66.337  1.00  0.00    -0.124 A  
HETATM    7  C   UNL     1      -9.373  12.053  66.046  1.00  0.00    -0.196 A  
HETATM    8  C   UNL     1     -10.135  11.612  64.960  1.00  0.00    -0.305 A  
HETATM    9  C   UNL     1      -9.747  10.486  64.213  1.00  0.00    -0.391 A  
BRANCH   7  10
HETATM   10  C   UNL     1      -9.878  13.182  66.888  1.00  0.00    -0.249 C  
BRANCH  10  11
HETATM   11  C   UNL     1     -10.763  12.871  68.052  1.00  0.00    -0.244 A  
HETATM   12  C   UNL     1     -11.794  11.253  69.550  1.00  0.00    -0.427 A  
HETATM   13  C   UNL     1     -11.058  11.551  68.387  1.00  0.00    -0.288 A  
HETATM   14  C   UNL     1     -11.264  13.884  68.869  1.00  0.00    -0.304 A  
HETATM   15  C   UNL     1     -12.009  13.571  70.021  1.00  0.00    -0.410 A  
HETATM   16  C   UNL     1     -12.277  12.249  70.416  1.00  0.00    -0.288 A  
BRANCH  16  17
HETATM   17  N   UNL     1     -12.932  11.945  71.599  1.00  0.00    -0.398 NA 
HETATM   18  C   UNL     1     -13.152  10.569  72.046  1.00  0.00    -0.406 C  
HETATM   19  C   UNL     1     -13.638  12.947  72.396  1.00  0.00    -0.478 C  
ENDBRANCH  16  17
ENDBRANCH  10  11
BRANCH  10  20
HETATM   20  C   UNL     1      -9.634  14.489  66.565  1.00  0.00    -0.311 A  
HETATM   21  C   UNL     1     -10.444  16.614  65.644  1.00  0.00    -0.313 A  
HETATM   22  C   UNL     1      -8.288  16.520  66.944  1.00  0.00    -0.245 A  
HETATM   23  C   UNL     1     -10.543  15.275  65.727  1.00  0.00    -0.359 A  
HETATM   24  C   UNL     1      -8.405  15.184  66.980  1.00  0.00    -0.263 A  
HETATM   25  C   UNL     1      -9.416  17.372  66.440  1.00  0.00    -0.261 A  
BRANCH  25  26
HETATM   26  N   UNL     1      -9.499  18.659  66.659  1.00  0.00    -0.309 NA 
HETATM   27  C   UNL     1      -8.454  19.649  66.215  1.00  0.00    -0.360 C  
HETATM   28  C   UNL     1     -10.647  19.346  67.336  1.00  0.00    -0.488 C  
ENDBRANCH  25  26
ENDBRANCH  10  20
ENDBRANCH   7  10
ENDBRANCH   2   4
TORSDOF 6
ENDMDL
MODEL        5
REMARK 921   NORMALIZED FREE ENERGY PREDICTED BY IDOCK:   -6.15 KCAL/MOL
REMARK 922        TOTAL FREE ENERGY PREDICTED BY IDOCK:   -9.75 KCAL/MOL
REMARK 923 INTER-LIGAND FREE ENERGY PREDICTED BY IDOCK:   -8.24 KCAL/MOL
REMARK 924 INTRA-LIGAND FREE ENERGY PREDICTED BY IDOCK:   -1.51 KCAL/MOL
REMARK 927      BINDING AFFINITY PREDICTED BY RF-SCORE:    0.00 PKD
ROOT
HETATM    1  C   UNL     1      -9.047  10.127  62.817  1.00  0.00    -0.285 C  
HETATM    2  N   UNL     1      -9.169  10.066  64.273  1.00  0.00    -0.252 NA 
HETATM    3  C   UNL     1      -8.561   8.903  64.920  1.00  0.00    -0.172 C  
ENDROOT
BRANCH   2   4
HETATM    4  C   UNL     1      -9.442  11.216  65.014  1.00  0.00    -0.227 A  
HETATM    5  C   UNL     1     -10.292  12.239  64.551  1.00  0.00    -0.339 A  
HETATM    6  C   UNL     1     -10.526  13.422  65.281  1.00  0.00    -0.334 A  
HETATM    7  C   UNL     1      -9.930  13.621  66.525  1.00  0.00    -0.288 A  
HETATM    8  C   UNL     1      -9.124  12.598  67.031  1.00  0.00    -0.215 A  
HETATM    9  C   UNL     1      -8.891  11.426  66.291  1.00  0.00    -0.196 A  
BRANCH   7  10
HETATM   10  C   UNL     1     -10.059  14.901  67.288  1.00  0.00    -0.235 C  
BRANCH  10  11
HETATM   11  C   UNL     1     -10.869  14.910  68.545  1.00  0.00    -0.249 A  
HETATM   12  C   UNL     1     -12.645  13.975  69.922  1.00  0.00    -0.195 A  
HETATM   13  C   UNL     1     -11.954  14.050  68.696  1.00  0.00    -0.389 A  
HETATM   14  C   UNL     1     -10.525  15.730  69.620  1.00  0.00    -0.289 A  
HETATM   15  C   UNL     1     -11.233  15.653  70.834  1.00  0.00    -0.407 A  
HETATM   16  C   UNL     1     -12.296  14.757  71.036  1.00  0.00    -0.330 A  
BRANCH  16  17
HETATM   17  N   UNL     1     -12.930  14.621  72.262  1.00  0.00    -0.335 NA 
HETATM   18  C   UNL     1     -12.611  15.470  73.410  1.00  0.00    -0.525 C  
HETATM   19  C   UNL     1     -13.812  13.500  72.580  1.00  0.00    -0.519 C  
ENDBRANCH  16  17
ENDBRANCH  10  11
BRANCH  10  20
HETATM   20  C   UNL     1      -9.542  16.078  66.819  1.00  0.00    -0.248 A  
HETATM   21  C   UNL     1      -9.740  18.510  66.569  1.00  0.00    -0.354 A  
HETATM   22  C   UNL     1      -7.556  17.347  66.095  1.00  0.00    -0.321 A  
HETATM   23  C   UNL     1     -10.324  17.315  66.766  1.00  0.00    -0.308 A  
HETATM   24  C   UNL     1      -8.180  16.173  66.268  1.00  0.00    -0.275 A  
HETATM   25  C   UNL     1      -8.246  18.636  66.432  1.00  0.00    -0.277 A  
BRANCH  25  26
HETATM   26  N   UNL     1      -7.614  19.771  66.584  1.00  0.00    -0.251 NA 
HETATM   27  C   UNL     1      -6.784  20.414  65.505  1.00  0.00    -0.253 C  
HETATM   28  C   UNL     1      -7.652  20.621  67.819  1.00  0.00    -0.170 C  
ENDBRANCH  25  26
ENDBRANCH  10  20
ENDBRANCH   7  10
ENDBRANCH   2   4
TORSDOF 6
ENDMDL
MODEL        6
REMARK 921   NORMALIZED FREE ENERGY PREDICTED BY IDOCK:   -6.11 KCAL/MOL
REMARK 922        TOTAL FREE ENERGY PREDICTED BY IDOCK:   -9.68 KCAL/MOL
REMARK 923 INTER-LIGAND FREE ENERGY PREDICTED BY IDOCK:   -8.08 KCAL/MOL
REMARK 924 INTRA-LIGAND FREE ENERGY PREDICTED BY IDOCK:   -1.60 KCAL/MOL
REMARK 927      BINDING AFFINITY PREDICTED BY RF-SCORE:    0.00 PKD
ROOT
HETATM    1  C   UNL     1      -9.717  18.925  68.696  1.00  0.00    -0.400 C  
HETATM    2  N   UNL     1     -10.293  18.123  67.618  1.00  0.00    -0.380 NA 
HETATM    3  C   UNL     1     -10.407  18.783  66.317  1.00  0.00    -0.448 C  
ENDROOT
BRANCH   2   4
HETATM    4  C   UNL     1     -10.318  16.731  67.700  1.00  0.00    -0.309 A  
HETATM    5  C   UNL     1      -9.544  16.007  68.628  1.00  0.00    -0.222 A  
HETATM    6  C   UNL     1      -9.534  14.598  68.675  1.00  0.00    -0.211 A  
HETATM    7  C   UNL     1     -10.323  13.851  67.802  1.00  0.00    -0.240 A  
HETATM    8  C   UNL     1     -11.141  14.546  66.907  1.00  0.00    -0.325 A  
HETATM    9  C   UNL     1     -11.137  15.951  66.864  1.00  0.00    -0.082 A  
BRANCH   7  10
HETATM   10  C   UNL     1     -10.268  12.357  67.738  1.00  0.00    -0.212 C  
BRANCH  10  11
HETATM   11  C   UNL     1     -10.717  11.570  68.927  1.00  0.00    -0.245 A  
HETATM   12  C   UNL     1     -12.385  11.078  70.630  1.00  0.00    -0.480 A  
HETATM   13  C   UNL     1     -11.902  11.890  69.584  1.00  0.00    -0.406 A  
HETATM   14  C   UNL     1      -9.998  10.460  69.371  1.00  0.00    -0.240 A  
HETATM   15  C   UNL     1     -10.486   9.666  70.425  1.00  0.00    -0.352 A  
HETATM   16  C   UNL     1     -11.706   9.930  71.072  1.00  0.00    -0.382 A  
BRANCH  16  17
HETATM   17  N   UNL     1     -12.226   9.094  72.047  1.00  0.00    -0.377 NA 
HETATM   18  C   UNL     1     -11.432   8.045  72.689  1.00  0.00    -0.402 C  
HETATM   19  C   UNL     1     -13.650   9.043  72.373  1.00  0.00    -0.477 C  
ENDBRANCH  16  17
ENDBRANCH  10  11
BRANCH  10  20
HETATM   20  C   UNL     1      -9.730  11.699  66.665  1.00  0.00    -0.221 A  
HETATM   21  C   UNL     1      -7.808  10.570  65.640  1.00  0.00    -0.150 A  
HETATM   22  C   UNL     1     -10.107  10.360  64.629  1.00  0.00    -0.378 A  
HETATM   23  C   UNL     1      -8.293  11.444  66.539  1.00  0.00    -0.164 A  
HETATM   24  C   UNL     1     -10.547  11.259  65.523  1.00  0.00    -0.306 A  
HETATM   25  C   UNL     1      -8.726   9.783  64.743  1.00  0.00    -0.192 A  
BRANCH  25  26
HETATM   26  N   UNL     1      -8.345   8.702  64.114  1.00  0.00    -0.156 NA 
HETATM   27  C   UNL     1      -8.190   8.618  62.618  1.00  0.00    -0.194 C  
HETATM   28  C   UNL     1      -7.966   7.409  64.773  1.00  0.00    -0.127 C  
ENDBRANCH  25  26
ENDBRANCH  10  20
ENDBRANCH   7  10
ENDBRANCH   2   4
TORSDOF 6
ENDMDL
MODEL        7
REMARK 921   NORMALIZED FREE ENERGY PREDICTED BY IDOCK:   -6.06 KCAL/MOL
REMARK 922        TOTAL FREE ENERGY PREDICTED BY IDOCK:   -9.62 KCAL/MOL
REMARK 923 INTER-LIGAND FREE ENERGY PREDICTED BY IDOCK:   -7.96 KCAL/MOL
REMARK 924 INTRA-LIGAND FREE ENERGY PREDICTED BY IDOCK:   -1.66 KCAL/MOL
REMARK 927      BINDING AFFINITY PREDICTED BY RF-SCORE:    0.00 PKD
ROOT
HETATM    1  C   UNL     1     -13.755   8.871  72.324  1.00  0.00    -0.471 C  
HETATM    2  N   UNL     1     -12.307   8.978  72.148  1.00  0.00    -0.377 NA 
HETATM    3  C   UNL     1     -11.510   7.883  72.701  1.00  0.00    -0.395 C  
ENDROOT
BRANCH   2   4
HETATM    4  C   UNL     1     -11.768   9.808  71.165  1.00  0.00    -0.385 A  
HETATM    5  C   UNL     1     -12.404  10.987  70.729  1.00  0.00    -0.496 A  
HETATM    6  C   UNL     1     -11.881  11.797  69.700  1.00  0.00    -0.407 A  
HETATM    7  C   UNL     1     -10.678  11.468  69.077  1.00  0.00    -0.233 A  
HETATM    8  C   UNL     1     -10.001  10.332  69.528  1.00  0.00    -0.252 A  
HETATM    9  C   UNL     1     -10.536   9.528  70.549  1.00  0.00    -0.358 A  
BRANCH   7  10
HETATM   10  C   UNL     1     -10.136  12.233  67.911  1.00  0.00    -0.200 C  
BRANCH  10  11
HETATM   11  C   UNL     1     -10.229  13.724  67.923  1.00  0.00    -0.245 A  
HETATM   12  C   UNL     1      -9.357  15.891  68.610  1.00  0.00    -0.212 A  
HETATM   13  C   UNL     1      -9.347  14.484  68.689  1.00  0.00    -0.199 A  
HETATM   14  C   UNL     1     -11.154  14.397  67.124  1.00  0.00    -0.318 A  
HETATM   15  C   UNL     1     -11.160  15.803  67.066  1.00  0.00    -0.152 A  
HETATM   16  C   UNL     1     -10.248  16.596  67.784  1.00  0.00    -0.292 A  
BRANCH  16  17
HETATM   17  N   UNL     1     -10.200  17.975  67.653  1.00  0.00    -0.350 NA 
HETATM   18  C   UNL     1     -10.151  18.641  66.350  1.00  0.00    -0.403 C  
HETATM   19  C   UNL     1      -9.985  18.874  68.785  1.00  0.00    -0.408 C  
ENDBRANCH  16  17
ENDBRANCH  10  11
BRANCH  10  20
HETATM   20  C   UNL     1      -9.650  11.603  66.797  1.00  0.00    -0.207 A  
HETATM   21  C   UNL     1      -7.765  10.555  65.629  1.00  0.00    -0.139 A  
HETATM   22  C   UNL     1     -10.119  10.264  64.780  1.00  0.00    -0.336 A  
HETATM   23  C   UNL     1      -8.217  11.403  66.568  1.00  0.00    -0.152 A  
HETATM   24  C   UNL     1     -10.529  11.139  65.711  1.00  0.00    -0.305 A  
HETATM   25  C   UNL     1      -8.713   9.740  64.791  1.00  0.00    -0.192 A  
BRANCH  25  26
HETATM   26  N   UNL     1      -8.337   8.678  64.126  1.00  0.00    -0.156 NA 
HETATM   27  C   UNL     1      -8.189   8.641  62.628  1.00  0.00    -0.194 C  
HETATM   28  C   UNL     1      -7.958   7.364  64.742  1.00  0.00    -0.127 C  
ENDBRANCH  25  26
ENDBRANCH  10  20
ENDBRANCH   7  10
ENDBRANCH   2   4
TORSDOF 6
ENDMDL
MODEL        8
REMARK 921   NORMALIZED FREE ENERGY PREDICTED BY IDOCK:   -6.06 KCAL/MOL
REMARK 922        TOTAL FREE ENERGY PREDICTED BY IDOCK:   -9.62 KCAL/MOL
REMARK 923 INTER-LIGAND FREE ENERGY PREDICTED BY IDOCK:   -8.07 KCAL/MOL
REMARK 924 INTRA-LIGAND FREE ENERGY PREDICTED BY IDOCK:   -1.55 KCAL/MOL
REMARK 927      BINDING AFFINITY PREDICTED BY RF-SCORE:    0.00 PKD
ROOT
HETATM    1  C   UNL     1     -10.411  19.423  66.172  1.00  0.00    -0.504 C  
HETATM    2  N   UNL     1      -9.264  18.536  65.981  1.00  0.00    -0.493 NA 
HETATM    3  C   UNL     1      -7.945  19.160  66.087  1.00  0.00    -0.276 C  
ENDROOT
BRANCH   2   4
HETATM    4  C   UNL     1      -9.399  17.156  66.128  1.00  0.00    -0.192 A  
HETATM    5  C   UNL     1     -10.507  16.440  65.632  1.00  0.00    -0.364 A  
HETATM    6  C   UNL     1     -10.663  15.052  65.826  1.00  0.00    -0.351 A  
HETATM    7  C   UNL     1      -9.699  14.316  66.511  1.00  0.00    -0.304 A  
HETATM    8  C   UNL     1      -8.565  14.993  66.967  1.00  0.00    -0.266 A  
HETATM    9  C   UNL     1      -8.423  16.378  66.775  1.00  0.00    -0.279 A  
BRANCH   7  10
HETATM   10  C   UNL     1      -9.869  12.865  66.836  1.00  0.00    -0.235 C  
BRANCH  10  11
HETATM   11  C   UNL     1     -10.586  12.489  68.093  1.00  0.00    -0.239 A  
HETATM   12  C   UNL     1     -11.826  13.123  70.089  1.00  0.00    -0.328 A  
HETATM   13  C   UNL     1     -11.049  13.471  68.966  1.00  0.00    -0.293 A  
HETATM   14  C   UNL     1     -10.866  11.156  68.394  1.00  0.00    -0.248 A  
HETATM   15  C   UNL     1     -11.632  10.824  69.526  1.00  0.00    -0.375 A  
HETATM   16  C   UNL     1     -12.160  11.793  70.396  1.00  0.00    -0.352 A  
BRANCH  16  17
HETATM   17  N   UNL     1     -12.989  11.466  71.458  1.00  0.00    -0.440 NA 
HETATM   18  C   UNL     1     -13.602  12.479  72.318  1.00  0.00    -0.342 C  
HETATM   19  C   UNL     1     -13.160  10.097  71.939  1.00  0.00    -0.466 C  
ENDBRANCH  16  17
ENDBRANCH  10  11
BRANCH  10  20
HETATM   20  C   UNL     1      -9.304  11.881  66.070  1.00  0.00    -0.215 A  
HETATM   21  C   UNL     1      -7.596  10.140  65.809  1.00  0.00    -0.134 A  
HETATM   22  C   UNL     1      -9.559  10.255  64.235  1.00  0.00    -0.375 A  
HETATM   23  C   UNL     1      -8.010  11.278  66.394  1.00  0.00    -0.125 A  
HETATM   24  C   UNL     1      -9.923  11.404  64.823  1.00  0.00    -0.313 A  
HETATM   25  C   UNL     1      -8.464   9.412  64.818  1.00  0.00    -0.167 A  
BRANCH  25  26
HETATM   26  N   UNL     1      -8.267   8.161  64.491  1.00  0.00    -0.144 NA 
HETATM   27  C   UNL     1      -7.908   7.709  63.100  1.00  0.00    -0.134 C  
HETATM   28  C   UNL     1      -8.325   7.002  65.441  1.00  0.00    -0.118 C  
ENDBRANCH  25  26
ENDBRANCH  10  20
ENDBRANCH   7  10
ENDBRANCH   2   4
TORSDOF 6
ENDMDL
MODEL        9
REMARK 921   NORMALIZED FREE ENERGY PREDICTED BY IDOCK:   -6.06 KCAL/MOL
REMARK 922        TOTAL FREE ENERGY PREDICTED BY IDOCK:   -9.62 KCAL/MOL
REMARK 923 INTER-LIGAND FREE ENERGY PREDICTED BY IDOCK:   -8.07 KCAL/MOL
REMARK 924 INTRA-LIGAND FREE ENERGY PREDICTED BY IDOCK:   -1.55 KCAL/MOL
REMARK 927      BINDING AFFINITY PREDICTED BY RF-SCORE:    0.00 PKD
ROOT
HETATM    1  C   UNL     1     -13.691  13.028  72.295  1.00  0.00    -0.512 C  
HETATM    2  N   UNL     1     -12.880  12.007  71.632  1.00  0.00    -0.342 NA 
HETATM    3  C   UNL     1     -13.241  10.618  71.914  1.00  0.00    -0.423 C  
ENDROOT
BRANCH   2   4
HETATM    4  C   UNL     1     -12.129  12.319  70.500  1.00  0.00    -0.282 A  
HETATM    5  C   UNL     1     -11.936  13.641  70.052  1.00  0.00    -0.413 A  
HETATM    6  C   UNL     1     -11.217  13.949  68.879  1.00  0.00    -0.304 A  
HETATM    7  C   UNL     1     -10.639  12.939  68.112  1.00  0.00    -0.249 A  
HETATM    8  C   UNL     1     -10.771  11.623  68.563  1.00  0.00    -0.250 A  
HETATM    9  C   UNL     1     -11.496  11.327  69.730  1.00  0.00    -0.386 A  
BRANCH   7  10
HETATM   10  C   UNL     1      -9.961  13.203  66.805  1.00  0.00    -0.250 C  
BRANCH  10  11
HETATM   11  C   UNL     1      -9.479  12.041  65.997  1.00  0.00    -0.229 A  
HETATM   12  C   UNL     1      -7.897  10.226  65.640  1.00  0.00    -0.151 A  
HETATM   13  C   UNL     1      -8.292  11.391  66.327  1.00  0.00    -0.111 A  
HETATM   14  C   UNL     1     -10.230  11.539  64.935  1.00  0.00    -0.324 A  
HETATM   15  C   UNL     1      -9.817  10.381  64.250  1.00  0.00    -0.388 A  
HETATM   16  C   UNL     1      -8.654   9.671  64.594  1.00  0.00    -0.183 A  
BRANCH  16  17
HETATM   17  N   UNL     1      -8.299   8.482  63.976  1.00  0.00    -0.136 NA 
HETATM   18  C   UNL     1      -7.669   7.377  64.700  1.00  0.00    -0.118 C  
HETATM   19  C   UNL     1      -8.329   8.300  62.526  1.00  0.00    -0.146 C  
ENDBRANCH  16  17
ENDBRANCH  10  11
BRANCH  10  20
HETATM   20  C   UNL     1      -9.683  14.474  66.378  1.00  0.00    -0.314 A  
HETATM   21  C   UNL     1     -10.443  16.541  65.298  1.00  0.00    -0.236 A  
HETATM   22  C   UNL     1      -8.278  16.489  66.586  1.00  0.00    -0.306 A  
HETATM   23  C   UNL     1     -10.577  15.217  65.487  1.00  0.00    -0.383 A  
HETATM   24  C   UNL     1      -8.431  15.164  66.728  1.00  0.00    -0.272 A  
HETATM   25  C   UNL     1      -9.386  17.330  66.024  1.00  0.00    -0.097 A  
BRANCH  25  26
HETATM   26  N   UNL     1      -9.431  18.632  66.141  1.00  0.00    -0.484 NA 
HETATM   27  C   UNL     1     -10.654  19.456  65.835  1.00  0.00    -0.459 C  
HETATM   28  C   UNL     1      -8.305  19.492  66.632  1.00  0.00    -0.318 C  
ENDBRANCH  25  26
ENDBRANCH  10  20
ENDBRANCH   7  10
ENDBRANCH   2   4
TORSDOF 6
ENDMDL
MODEL       10
REMARK 921   NORMALIZED FREE ENERGY PREDICTED BY IDOCK:   -5.99 KCAL/MOL
REMARK 922        TOTAL FREE ENERGY PREDICTED BY IDOCK:   -9.52 KCAL/MOL
REMARK 923 INTER-LIGAND FREE ENERGY PREDICTED BY IDOCK:   -8.04 KCAL/MOL
REMARK 924 INTRA-LIGAND FREE ENERGY PREDICTED BY IDOCK:   -1.49 KCAL/MOL
REMARK 927      BINDING AFFINITY PREDICTED BY RF-SCORE:    0.00 PKD
ROOT
HETATM    1  C   UNL     1      -9.174   9.359  65.085  1.00  0.00    -0.225 C  
HETATM    2  N   UNL     1      -9.391  10.629  64.393  1.00  0.00    -0.230 NA 
HETATM    3  C   UNL     1      -9.758  10.535  62.980  1.00  0.00    -0.294 C  
ENDROOT
BRANCH   2   4
HETATM    4  C   UNL     1      -9.661  11.794  65.110  1.00  0.00    -0.153 A  
HETATM    5  C   UNL     1     -10.357  12.887  64.556  1.00  0.00    -0.380 A  
HETATM    6  C   UNL     1     -10.584  14.083  65.268  1.00  0.00    -0.376 A  
HETATM    7  C   UNL     1     -10.138  14.225  66.581  1.00  0.00    -0.274 A  
HETATM    8  C   UNL     1      -9.491  13.136  67.171  1.00  0.00    -0.239 A  
HETATM    9  C   UNL     1      -9.264  11.952  66.449  1.00  0.00    -0.218 A  
BRANCH   7  10
HETATM   10  C   UNL     1     -10.258  15.508  67.341  1.00  0.00    -0.255 C  
BRANCH  10  11
HETATM   11  C   UNL     1      -9.444  16.683  66.902  1.00  0.00    -0.248 A  
HETATM   12  C   UNL     1      -9.231  19.073  66.493  1.00  0.00    -0.357 A  
HETATM   13  C   UNL     1     -10.022  17.946  66.793  1.00  0.00    -0.339 A  
HETATM   14  C   UNL     1      -8.077  16.561  66.652  1.00  0.00    -0.314 A  
HETATM   15  C   UNL     1      -7.303  17.694  66.341  1.00  0.00    -0.323 A  
HETATM   16  C   UNL     1      -7.845  18.990  66.278  1.00  0.00    -0.287 A  
BRANCH  16  17
HETATM   17  N   UNL     1      -7.062  20.113  66.061  1.00  0.00    -0.280 NA 
HETATM   18  C   UNL     1      -6.764  21.080  67.119  1.00  0.00    -0.357 C  
HETATM   19  C   UNL     1      -6.640  20.543  64.730  1.00  0.00    -0.258 C  
ENDBRANCH  16  17
ENDBRANCH  10  11
BRANCH  10  20
HETATM   20  C   UNL     1     -11.013  15.607  68.479  1.00  0.00    -0.303 A  
HETATM   21  C   UNL     1     -12.876  14.779  69.844  1.00  0.00    -0.023 A  
HETATM   22  C   UNL     1     -11.180  16.367  70.818  1.00  0.00    -0.197 A  
HETATM   23  C   UNL     1     -12.286  14.900  68.642  1.00  0.00    -0.101 A  
HETATM   24  C   UNL     1     -10.637  16.486  69.597  1.00  0.00    -0.302 A  
HETATM   25  C   UNL     1     -12.235  15.335  71.087  1.00  0.00    -0.350 A  
BRANCH  25  26
HETATM   26  N   UNL     1     -12.580  14.956  72.291  1.00  0.00    -0.321 NA 
HETATM   27  C   UNL     1     -12.273  15.748  73.534  1.00  0.00    -0.523 C  
HETATM   28  C   UNL     1     -13.361  13.717  72.614  1.00  0.00    -0.514 C  
ENDBRANCH  25  26
ENDBRANCH  10  20
ENDBRANCH   7  10
ENDBRANCH   2   4
TORSDOF 6
ENDMDL
MODEL       11
REMARK 921   NORMALIZED FREE ENERGY PREDICTED BY IDOCK:   -5.88 KCAL/MOL
REMARK 922        TOTAL FREE ENERGY PREDICTED BY IDOCK:   -9.38 KCAL/MOL
REMARK 923 INTER-LIGAND FREE ENERGY PREDICTED BY IDOCK:   -7.77 KCAL/MOL
REMARK 924 INTRA-LIGAND FREE ENERGY PREDICTED BY IDOCK:   -1.60 KCAL/MOL
REMARK 927      BINDING AFFINITY PREDICTED BY RF-SCORE:    0.00 PKD
ROOT
HETATM    1  C   UNL     1     -12.052  13.041  63.500  1.00  0.00    -0.542 C  
HETATM    2  N   UNL     1     -11.932  13.157  64.952  1.00  0.00    -0.366 NA 
HETATM    3  C   UNL     1     -12.750  14.193  65.583  1.00  0.00    -0.441 C  
ENDROOT
BRANCH   2   4
HETATM    4  C   UNL     1     -11.433  12.100  65.713  1.00  0.00    -0.361 A  
HETATM    5  C   UNL     1     -10.582  11.111  65.180  1.00  0.00    -0.319 A  
HETATM    6  C   UNL     1     -10.120  10.017  65.940  1.00  0.00    -0.319 A  
HETATM    7  C   UNL     1     -10.476   9.879  67.280  1.00  0.00    -0.319 A  
HETATM    8  C   UNL     1     -11.276  10.875  67.847  1.00  0.00    -0.387 A  
HETATM    9  C   UNL     1     -11.738  11.958  67.078  1.00  0.00    -0.304 A  
BRANCH   7  10
HETATM   10  C   UNL     1     -10.102   8.683  68.098  1.00  0.00    -0.236 C  
BRANCH  10  11
HETATM   11  C   UNL     1      -9.924   7.369  67.409  1.00  0.00    -0.239 A  
HETATM   12  C   UNL     1     -10.870   5.387  66.359  1.00  0.00    -0.202 A  
HETATM   13  C   UNL     1     -11.024   6.569  67.110  1.00  0.00    -0.480 A  
HETATM   14  C   UNL     1      -8.664   6.936  66.993  1.00  0.00    -0.119 A  
HETATM   15  C   UNL     1      -8.524   5.747  66.254  1.00  0.00    -0.126 A  
HETATM   16  C   UNL     1      -9.621   4.947  65.889  1.00  0.00    -0.175 A  
BRANCH  16  17
HETATM   17  N   UNL     1      -9.487   3.826  65.085  1.00  0.00    -0.159 NA 
HETATM   18  C   UNL     1     -10.021   3.767  63.723  1.00  0.00    -0.185 C  
HETATM   19  C   UNL     1      -8.993   2.544  65.584  1.00  0.00    -0.131 C  
ENDBRANCH  16  17
ENDBRANCH  10  11
BRANCH  10  20
HETATM   20  C   UNL     1     -10.016   8.740  69.463  1.00  0.00    -0.195 A  
HETATM   21  C   UNL     1     -10.994   8.228  71.654  1.00  0.00    -0.327 A  
HETATM   22  C   UNL     1      -8.586   8.944  71.461  1.00  0.00    -0.205 A  
HETATM   23  C   UNL     1     -11.154   8.440  70.336  1.00  0.00    -0.240 A  
HETATM   24  C   UNL     1      -8.792   9.173  70.155  1.00  0.00    -0.215 A  
HETATM   25  C   UNL     1      -9.630   8.253  72.289  1.00  0.00    -0.285 A  
BRANCH  25  26
HETATM   26  N   UNL     1      -9.385   7.727  73.461  1.00  0.00    -0.281 NA 
HETATM   27  C   UNL     1     -10.251   6.674  74.101  1.00  0.00    -0.363 C  
HETATM   28  C   UNL     1      -8.200   8.052  74.321  1.00  0.00    -0.253 C  
ENDBRANCH  25  26
ENDBRANCH  10  20
ENDBRANCH   7  10
ENDBRANCH   2   4
TORSDOF 6
ENDMDL
MODEL       12
REMARK 921   NORMALIZED FREE ENERGY PREDICTED BY IDOCK:   -5.81 KCAL/MOL
REMARK 922        TOTAL FREE ENERGY PREDICTED BY IDOCK:   -9.29 KCAL/MOL
REMARK 923 INTER-LIGAND FREE ENERGY PREDICTED BY IDOCK:   -8.09 KCAL/MOL
REMARK 924 INTRA-LIGAND FREE ENERGY PREDICTED BY IDOCK:   -1.19 KCAL/MOL
REMARK 927      BINDING AFFINITY PREDICTED BY RF-SCORE:    0.00 PKD
ROOT
HETATM    1  C   UNL     1     -14.385  15.155  71.833  1.00  0.00    -0.596 C  
HETATM    2  N   UNL     1     -13.050  14.984  71.262  1.00  0.00    -0.370 NA 
HETATM    3  C   UNL     1     -12.105  16.075  71.501  1.00  0.00    -0.452 C  
ENDROOT
BRANCH   2   4
HETATM    4  C   UNL     1     -12.582  13.718  70.910  1.00  0.00    -0.356 A  
HETATM    5  C   UNL     1     -12.872  12.561  71.660  1.00  0.00    -0.368 A  
HETATM    6  C   UNL     1     -12.356  11.292  71.329  1.00  0.00    -0.375 A  
HETATM    7  C   UNL     1     -11.540  11.124  70.212  1.00  0.00    -0.388 A  
HETATM    8  C   UNL     1     -11.281  12.246  69.421  1.00  0.00    -0.243 A  
HETATM    9  C   UNL     1     -11.794  13.509  69.765  1.00  0.00    -0.395 A  
BRANCH   7  10
HETATM   10  C   UNL     1     -10.881   9.822  69.879  1.00  0.00    -0.306 C  
BRANCH  10  11
HETATM   11  C   UNL     1     -10.932   8.714  70.881  1.00  0.00    -0.301 A  
HETATM   12  C   UNL     1     -11.608   6.462  71.509  1.00  0.00    -0.364 A  
HETATM   13  C   UNL     1     -11.655   7.553  70.619  1.00  0.00    -0.272 A  
HETATM   14  C   UNL     1     -10.210   8.784  72.073  1.00  0.00    -0.401 A  
HETATM   15  C   UNL     1     -10.183   7.691  72.959  1.00  0.00    -0.379 A  
HETATM   16  C   UNL     1     -10.856   6.485  72.697  1.00  0.00    -0.247 A  
BRANCH  16  17
HETATM   17  N   UNL     1     -10.753   5.381  73.527  1.00  0.00    -0.267 NA 
HETATM   18  C   UNL     1      -9.654   5.213  74.479  1.00  0.00    -0.150 C  
HETATM   19  C   UNL     1     -11.601   4.199  73.387  1.00  0.00    -0.063 C  
ENDBRANCH  16  17
ENDBRANCH  10  11
BRANCH  10  20
HETATM   20  C   UNL     1     -10.154   9.653  68.732  1.00  0.00    -0.193 A  
HETATM   21  C   UNL     1     -10.035   8.846  66.418  1.00  0.00    -0.354 A  
HETATM   22  C   UNL     1      -8.252  10.370  67.337  1.00  0.00    -0.117 A  
HETATM   23  C   UNL     1     -10.605   8.793  67.635  1.00  0.00    -0.281 A  
HETATM   24  C   UNL     1      -8.831  10.268  68.543  1.00  0.00    -0.127 A  
HETATM   25  C   UNL     1      -8.930   9.821  66.116  1.00  0.00    -0.152 A  
BRANCH  25  26
HETATM   26  N   UNL     1      -8.588  10.148  64.896  1.00  0.00    -0.167 NA 
HETATM   27  C   UNL     1      -7.227   9.879  64.311  1.00  0.00    -0.134 C  
HETATM   28  C   UNL     1      -9.495  10.791  63.890  1.00  0.00    -0.274 C  
ENDBRANCH  25  26
ENDBRANCH  10  20
ENDBRANCH   7  10
ENDBRANCH   2   4
TORSDOF 6
ENDMDL
MODEL       13
REMARK 921   NORMALIZED FREE ENERGY PREDICTED BY IDOCK:   -5.79 KCAL/MOL
REMARK 922        TOTAL FREE ENERGY PREDICTED BY IDOCK:   -9.25 KCAL/MOL
REMARK 923 INTER-LIGAND FREE ENERGY PREDICTED BY IDOCK:   -7.66 KCAL/MOL
REMARK 924 INTRA-LIGAND FREE ENERGY PREDICTED BY IDOCK:   -1.60 KCAL/MOL
REMARK 927      BINDING AFFINITY PREDICTED BY RF-SCORE:    0.00 PKD
ROOT
HETATM    1  C   UNL     1     -13.710   8.988  72.254  1.00  0.00    -0.492 C  
HETATM    2  N   UNL     1     -12.268   9.088  72.033  1.00  0.00    -0.369 NA 
HETATM    3  C   UNL     1     -11.454   8.014  72.603  1.00  0.00    -0.402 C  
ENDROOT
BRANCH   2   4
HETATM    4  C   UNL     1     -11.758   9.881  71.005  1.00  0.00    -0.382 A  
HETATM    5  C   UNL     1     -12.455  10.986  70.476  1.00  0.00    -0.432 A  
HETATM    6  C   UNL     1     -11.959  11.755  69.404  1.00  0.00    -0.361 A  
HETATM    7  C   UNL     1     -10.724  11.460  68.827  1.00  0.00    -0.240 A  
HETATM    8  C   UNL     1      -9.989  10.402  69.369  1.00  0.00    -0.240 A  
HETATM    9  C   UNL     1     -10.497   9.638  70.433  1.00  0.00    -0.352 A  
BRANCH   7  10
HETATM   10  C   UNL     1     -10.203  12.176  67.621  1.00  0.00    -0.206 C  
BRANCH  10  11
HETATM   11  C   UNL     1      -9.556  11.378  66.535  1.00  0.00    -0.220 A  
HETATM   12  C   UNL     1      -9.686  10.223  64.396  1.00  0.00    -0.381 A  
HETATM   13  C   UNL     1     -10.311  10.874  65.479  1.00  0.00    -0.316 A  
HETATM   14  C   UNL     1      -8.177  11.169  66.516  1.00  0.00    -0.167 A  
HETATM   15  C   UNL     1      -7.569  10.506  65.435  1.00  0.00    -0.097 A  
HETATM   16  C   UNL     1      -8.295  10.035  64.327  1.00  0.00    -0.169 A  
BRANCH  16  17
HETATM   17  N   UNL     1      -7.681   9.464  63.224  1.00  0.00    -0.111 NA 
HETATM   18  C   UNL     1      -8.339   8.456  62.391  1.00  0.00    -0.180 C  
HETATM   19  C   UNL     1      -6.266   9.657  62.914  1.00  0.00    -0.103 C  
ENDBRANCH  16  17
ENDBRANCH  10  11
BRANCH  10  20
HETATM   20  C   UNL     1     -10.215  13.541  67.530  1.00  0.00    -0.234 A  
HETATM   21  C   UNL     1      -9.374  15.708  68.316  1.00  0.00    -0.192 A  
HETATM   22  C   UNL     1     -10.672  15.542  66.163  1.00  0.00    -0.315 A  
HETATM   23  C   UNL     1      -9.602  14.403  68.544  1.00  0.00    -0.217 A  
HETATM   24  C   UNL     1     -10.904  14.250  66.440  1.00  0.00    -0.307 A  
HETATM   25  C   UNL     1      -9.706  16.338  66.990  1.00  0.00    -0.239 A  
BRANCH  25  26
HETATM   26  N   UNL     1      -9.203  17.482  66.605  1.00  0.00    -0.255 NA 
HETATM   27  C   UNL     1      -7.747  17.686  66.279  1.00  0.00    -0.289 C  
HETATM   28  C   UNL     1      -9.989  18.741  66.388  1.00  0.00    -0.392 C  
ENDBRANCH  25  26
ENDBRANCH  10  20
ENDBRANCH   7  10
ENDBRANCH   2   4
TORSDOF 6
ENDMDL
MODEL       14
REMARK 921   NORMALIZED FREE ENERGY PREDICTED BY IDOCK:   -5.78 KCAL/MOL
REMARK 922        TOTAL FREE ENERGY PREDICTED BY IDOCK:   -9.24 KCAL/MOL
REMARK 923 INTER-LIGAND FREE ENERGY PREDICTED BY IDOCK:   -7.63 KCAL/MOL
REMARK 924 INTRA-LIGAND FREE ENERGY PREDICTED BY IDOCK:   -1.61 KCAL/MOL
REMARK 927      BINDING AFFINITY PREDICTED BY RF-SCORE:    0.00 PKD
ROOT
HETATM    1  C   UNL     1      -9.712   3.184  64.228  1.00  0.00    -0.156 C  
HETATM    2  N   UNL     1      -9.226   3.482  65.575  1.00  0.00    -0.151 NA 
HETATM    3  C   UNL     1      -8.156   2.619  66.077  1.00  0.00    -0.084 C  
ENDROOT
BRANCH   2   4
HETATM    4  C   UNL     1      -9.443   4.733  66.150  1.00  0.00    -0.163 A  
HETATM    5  C   UNL     1      -8.393   5.589  66.537  1.00  0.00    -0.109 A  
HETATM    6  C   UNL     1      -8.616   6.831  67.164  1.00  0.00    -0.120 A  
HETATM    7  C   UNL     1      -9.912   7.282  67.411  1.00  0.00    -0.228 A  
HETATM    8  C   UNL     1     -10.972   6.476  66.989  1.00  0.00    -0.466 A  
HETATM    9  C   UNL     1     -10.738   5.235  66.372  1.00  0.00    -0.290 A  
BRANCH   7  10
HETATM   10  C   UNL     1     -10.200   8.539  68.169  1.00  0.00    -0.254 C  
BRANCH  10  11
HETATM   11  C   UNL     1     -10.554   9.774  67.404  1.00  0.00    -0.330 A  
HETATM   12  C   UNL     1     -10.549  11.051  65.332  1.00  0.00    -0.270 A  
HETATM   13  C   UNL     1     -10.120   9.945  66.091  1.00  0.00    -0.315 A  
HETATM   14  C   UNL     1     -11.374  10.757  67.958  1.00  0.00    -0.378 A  
HETATM   15  C   UNL     1     -11.784  11.863  67.191  1.00  0.00    -0.311 A  
HETATM   16  C   UNL     1     -11.409  12.035  65.847  1.00  0.00    -0.337 A  
BRANCH  16  17
HETATM   17  N   UNL     1     -11.889  13.078  65.070  1.00  0.00    -0.342 NA 
HETATM   18  C   UNL     1     -12.631  14.205  65.637  1.00  0.00    -0.470 C  
HETATM   19  C   UNL     1     -11.881  13.048  63.609  1.00  0.00    -0.516 C  
ENDBRANCH  16  17
ENDBRANCH  10  11
BRANCH  10  20
HETATM   20  C   UNL     1     -10.055   8.614  69.528  1.00  0.00    -0.203 A  
HETATM   21  C   UNL     1     -10.944   8.149  71.766  1.00  0.00    -0.322 A  
HETATM   22  C   UNL     1      -8.537   8.826  71.459  1.00  0.00    -0.253 A  
HETATM   23  C   UNL     1     -11.158   8.344  70.453  1.00  0.00    -0.240 A  
HETATM   24  C   UNL     1      -8.796   9.039  70.160  1.00  0.00    -0.196 A  
HETATM   25  C   UNL     1      -9.554   8.163  72.342  1.00  0.00    -0.265 A  
BRANCH  25  26
HETATM   26  N   UNL     1      -9.266   7.651  73.510  1.00  0.00    -0.251 NA 
HETATM   27  C   UNL     1      -8.063   8.050  74.323  1.00  0.00    -0.258 C  
HETATM   28  C   UNL     1     -10.098   6.635  74.235  1.00  0.00    -0.351 C  
ENDBRANCH  25  26
ENDBRANCH  10  20
ENDBRANCH   7  10
ENDBRANCH   2   4
TORSDOF 6
ENDMDL
MODEL       15
REMARK 921   NORMALIZED FREE ENERGY PREDICTED BY IDOCK:   -5.77 KCAL/MOL
REMARK 922        TOTAL FREE ENERGY PREDICTED BY IDOCK:   -9.23 KCAL/MOL
REMARK 923 INTER-LIGAND FREE ENERGY PREDICTED BY IDOCK:   -8.56 KCAL/MOL
REMARK 924 INTRA-LIGAND FREE ENERGY PREDICTED BY IDOCK:   -0.67 KCAL/MOL
REMARK 927      BINDING AFFINITY PREDICTED BY RF-SCORE:    0.00 PKD
ROOT
HETATM    1  C   UNL     1      -8.451   8.877  63.591  1.00  0.00    -0.138 C  
HETATM    2  N   UNL     1      -8.999  10.109  64.158  1.00  0.00    -0.216 NA 
HETATM    3  C   UNL     1      -9.355  11.155  63.199  1.00  0.00    -0.328 C  
ENDROOT
BRANCH   2   4
HETATM    4  C   UNL     1      -9.545  10.122  65.441  1.00  0.00    -0.264 A  
HETATM    5  C   UNL     1     -10.486  11.083  65.861  1.00  0.00    -0.300 A  
HETATM    6  C   UNL     1     -10.999  11.122  67.174  1.00  0.00    -0.350 A  
HETATM    7  C   UNL     1     -10.603  10.180  68.121  1.00  0.00    -0.262 A  
HETATM    8  C   UNL     1      -9.711   9.184  67.715  1.00  0.00    -0.188 A  
HETATM    9  C   UNL     1      -9.200   9.159  66.406  1.00  0.00    -0.233 A  
BRANCH   7  10
HETATM   10  C   UNL     1     -11.033  10.243  69.553  1.00  0.00    -0.300 C  
BRANCH  10  11
HETATM   11  C   UNL     1     -10.778   9.062  70.433  1.00  0.00    -0.267 A  
HETATM   12  C   UNL     1      -9.712   8.070  72.383  1.00  0.00    -0.305 A  
HETATM   13  C   UNL     1      -9.866   9.143  71.483  1.00  0.00    -0.335 A  
HETATM   14  C   UNL     1     -11.486   7.871  70.267  1.00  0.00    -0.097 A  
HETATM   15  C   UNL     1     -11.311   6.804  71.167  1.00  0.00    -0.342 A  
HETATM   16  C   UNL     1     -10.441   6.875  72.269  1.00  0.00    -0.207 A  
BRANCH  16  17
HETATM   17  N   UNL     1     -10.341   5.855  73.203  1.00  0.00    -0.198 NA 
HETATM   18  C   UNL     1     -11.364   4.820  73.350  1.00  0.00    -0.312 C  
HETATM   19  C   UNL     1      -9.324   5.838  74.253  1.00  0.00    -0.139 C  
ENDBRANCH  16  17
ENDBRANCH  10  11
BRANCH  10  20
HETATM   20  C   UNL     1     -11.737  11.306  70.050  1.00  0.00    -0.428 A  
HETATM   21  C   UNL     1     -13.095  12.271  71.851  1.00  0.00    -0.469 A  
HETATM   22  C   UNL     1     -12.124  13.741  70.050  1.00  0.00    -0.416 A  
HETATM   23  C   UNL     1     -12.630  11.188  71.205  1.00  0.00    -0.503 A  
HETATM   24  C   UNL     1     -11.703  12.635  69.419  1.00  0.00    -0.387 A  
HETATM   25  C   UNL     1     -12.688  13.660  71.438  1.00  0.00    -0.352 A  
BRANCH  25  26
HETATM   26  N   UNL     1     -12.827  14.700  72.219  1.00  0.00    -0.324 NA 
HETATM   27  C   UNL     1     -11.679  15.373  72.925  1.00  0.00    -0.401 C  
HETATM   28  C   UNL     1     -14.122  15.403  72.497  1.00  0.00    -0.499 C  
ENDBRANCH  25  26
ENDBRANCH  10  20
ENDBRANCH   7  10
ENDBRANCH   2   4
TORSDOF 6
ENDMDL
MODEL       16
REMARK 921   NORMALIZED FREE ENERGY PREDICTED BY IDOCK:   -5.76 KCAL/MOL
REMARK 922        TOTAL FREE ENERGY PREDICTED BY IDOCK:   -9.22 KCAL/MOL
REMARK 923 INTER-LIGAND FREE ENERGY PREDICTED BY IDOCK:   -8.12 KCAL/MOL
REMARK 924 INTRA-LIGAND FREE ENERGY PREDICTED BY IDOCK:   -1.09 KCAL/MOL
REMARK 927      BINDING AFFINITY PREDICTED BY RF-SCORE:    0.00 PKD
ROOT
HETATM    1  C   UNL     1      -9.122  11.169  62.799  1.00  0.00    -0.323 C  
HETATM    2  N   UNL     1      -9.152   9.946  63.600  1.00  0.00    -0.255 NA 
HETATM    3  C   UNL     1      -8.406   8.808  63.062  1.00  0.00    -0.175 C  
ENDROOT
BRANCH   2   4
HETATM    4  C   UNL     1      -9.481   9.989  64.954  1.00  0.00    -0.293 A  
HETATM    5  C   UNL     1      -8.807   9.227  65.929  1.00  0.00    -0.199 A  
HETATM    6  C   UNL     1      -9.176   9.236  67.290  1.00  0.00    -0.149 A  
HETATM    7  C   UNL     1     -10.229  10.031  67.737  1.00  0.00    -0.235 A  
HETATM    8  C   UNL     1     -10.880  10.837  66.799  1.00  0.00    -0.256 A  
HETATM    9  C   UNL     1     -10.509  10.814  65.444  1.00  0.00    -0.272 A  
BRANCH   7  10
HETATM   10  C   UNL     1     -10.728   9.994  69.147  1.00  0.00    -0.244 C  
BRANCH  10  11
HETATM   11  C   UNL     1     -11.397  11.209  69.705  1.00  0.00    -0.354 A  
HETATM   12  C   UNL     1     -12.806  12.262  71.388  1.00  0.00    -0.373 A  
HETATM   13  C   UNL     1     -12.268  11.106  70.787  1.00  0.00    -0.484 A  
HETATM   14  C   UNL     1     -11.121  12.481  69.202  1.00  0.00    -0.254 A  
HETATM   15  C   UNL     1     -11.677  13.625  69.804  1.00  0.00    -0.364 A  
HETATM   16  C   UNL     1     -12.514  13.558  70.931  1.00  0.00    -0.369 A  
BRANCH  16  17
HETATM   17  N   UNL     1     -12.985  14.692  71.575  1.00  0.00    -0.319 NA 
HETATM   18  C   UNL     1     -12.100  15.770  72.017  1.00  0.00    -0.473 C  
HETATM   19  C   UNL     1     -14.361  14.821  72.052  1.00  0.00    -0.554 C  
ENDBRANCH  16  17
ENDBRANCH  10  11
BRANCH  10  20
HETATM   20  C   UNL     1     -10.503   8.921  69.966  1.00  0.00    -0.227 A  
HETATM   21  C   UNL     1      -9.382   7.974  71.932  1.00  0.00    -0.225 A  
HETATM   22  C   UNL     1     -11.293   6.753  70.835  1.00  0.00    -0.363 A  
HETATM   23  C   UNL     1      -9.425   8.900  70.957  1.00  0.00    -0.318 A  
HETATM   24  C   UNL     1     -11.285   7.678  69.864  1.00  0.00    -0.097 A  
HETATM   25  C   UNL     1     -10.463   6.937  72.072  1.00  0.00    -0.205 A  
BRANCH  25  26
HETATM   26  N   UNL     1     -10.650   6.253  73.171  1.00  0.00    -0.237 NA 
HETATM   27  C   UNL     1     -10.087   6.654  74.509  1.00  0.00    -0.249 C  
HETATM   28  C   UNL     1     -11.476   5.006  73.281  1.00  0.00    -0.259 C  
ENDBRANCH  25  26
ENDBRANCH  10  20
ENDBRANCH   7  10
ENDBRANCH   2   4
TORSDOF 6
ENDMDL
MODEL       17
REMARK 921   NORMALIZED FREE ENERGY PREDICTED BY IDOCK:   -5.76 KCAL/MOL
REMARK 922        TOTAL FREE ENERGY PREDICTED BY IDOCK:   -9.22 KCAL/MOL
REMARK 923 INTER-LIGAND FREE ENERGY PREDICTED BY IDOCK:   -7.51 KCAL/MOL
REMARK 924 INTRA-LIGAND FREE ENERGY PREDICTED BY IDOCK:   -1.71 KCAL/MOL
REMARK 927      BINDING AFFINITY PREDICTED BY RF-SCORE:    0.00 PKD
ROOT
HETATM    1  C   UNL     1     -10.029  18.675  68.868  1.00  0.00    -0.354 C  
HETATM    2  N   UNL     1     -10.420  17.889  67.699  1.00  0.00    -0.386 NA 
HETATM    3  C   UNL     1     -10.535  18.626  66.440  1.00  0.00    -0.418 C  
ENDROOT
BRANCH   2   4
HETATM    4  C   UNL     1     -10.263  16.504  67.686  1.00  0.00    -0.279 A  
HETATM    5  C   UNL     1     -10.906  15.671  66.749  1.00  0.00    -0.277 A  
HETATM    6  C   UNL     1     -10.784  14.267  66.771  1.00  0.00    -0.287 A  
HETATM    7  C   UNL     1      -9.990  13.635  67.726  1.00  0.00    -0.235 A  
HETATM    8  C   UNL     1      -9.300  14.442  68.634  1.00  0.00    -0.188 A  
HETATM    9  C   UNL     1      -9.434  15.841  68.609  1.00  0.00    -0.208 A  
BRANCH   7  10
HETATM   10  C   UNL     1      -9.913  12.147  67.859  1.00  0.00    -0.200 C  
BRANCH  10  11
HETATM   11  C   UNL     1      -9.345  11.352  66.728  1.00  0.00    -0.192 A  
HETATM   12  C   UNL     1      -7.432  10.373  65.584  1.00  0.00    -0.149 A  
HETATM   13  C   UNL     1      -7.966  11.217  66.579  1.00  0.00    -0.158 A  
HETATM   14  C   UNL     1     -10.173  10.676  65.832  1.00  0.00    -0.314 A  
HETATM   15  C   UNL     1      -9.624   9.847  64.836  1.00  0.00    -0.356 A  
HETATM   16  C   UNL     1      -8.240   9.646  64.694  1.00  0.00    -0.149 A  
BRANCH  16  17
HETATM   17  N   UNL     1      -7.709   8.759  63.771  1.00  0.00    -0.125 NA 
HETATM   18  C   UNL     1      -7.773   7.307  63.948  1.00  0.00    -0.120 C  
HETATM   19  C   UNL     1      -6.866   9.184  62.655  1.00  0.00    -0.092 C  
ENDBRANCH  16  17
ENDBRANCH  10  11
BRANCH  10  20
HETATM   20  C   UNL     1     -10.437  11.490  68.940  1.00  0.00    -0.212 A  
HETATM   21  C   UNL     1     -12.352  11.055  70.411  1.00  0.00    -0.442 A  
HETATM   22  C   UNL     1     -10.326   9.558  70.467  1.00  0.00    -0.350 A  
HETATM   23  C   UNL     1     -11.720  11.863  69.541  1.00  0.00    -0.410 A  
HETATM   24  C   UNL     1      -9.717  10.404  69.623  1.00  0.00    -0.158 A  
HETATM   25  C   UNL     1     -11.786   9.710  70.779  1.00  0.00    -0.300 A  
BRANCH  25  26
HETATM   26  N   UNL     1     -12.506   8.767  71.330  1.00  0.00    -0.309 NA 
HETATM   27  C   UNL     1     -13.691   9.034  72.220  1.00  0.00    -0.492 C  
HETATM   28  C   UNL     1     -12.295   7.295  71.134  1.00  0.00    -0.345 C  
ENDBRANCH  25  26
ENDBRANCH  10  20
ENDBRANCH   7  10
ENDBRANCH   2   4
TORSDOF 6
ENDMDL
MODEL       18
REMARK 921   NORMALIZED FREE ENERGY PREDICTED BY IDOCK:   -5.73 KCAL/MOL
REMARK 922        TOTAL FREE ENERGY PREDICTED BY IDOCK:   -9.17 KCAL/MOL
REMARK 923 INTER-LIGAND FREE ENERGY PREDICTED BY IDOCK:   -7.65 KCAL/MOL
REMARK 924 INTRA-LIGAND FREE ENERGY PREDICTED BY IDOCK:   -1.52 KCAL/MOL
REMARK 927      BINDING AFFINITY PREDICTED BY RF-SCORE:    0.00 PKD
ROOT
HETATM    1  C   UNL     1      -6.026  19.766  64.523  1.00  0.00    -0.265 C  
HETATM    2  N   UNL     1      -6.695  19.717  65.822  1.00  0.00    -0.245 NA 
HETATM    3  C   UNL     1      -6.824  20.992  66.527  1.00  0.00    -0.172 C  
ENDROOT
BRANCH   2   4
HETATM    4  C   UNL     1      -7.524  18.646  66.156  1.00  0.00    -0.255 A  
HETATM    5  C   UNL     1      -8.892  18.803  66.454  1.00  0.00    -0.298 A  
HETATM    6  C   UNL     1      -9.715  17.725  66.839  1.00  0.00    -0.300 A  
HETATM    7  C   UNL     1      -9.202  16.432  66.922  1.00  0.00    -0.237 A  
HETATM    8  C   UNL     1      -7.860  16.241  66.581  1.00  0.00    -0.310 A  
HETATM    9  C   UNL     1      -7.047  17.324  66.205  1.00  0.00    -0.311 A  
BRANCH   7  10
HETATM   10  C   UNL     1     -10.003  15.275  67.430  1.00  0.00    -0.223 C  
BRANCH  10  11
HETATM   11  C   UNL     1      -9.958  13.984  66.677  1.00  0.00    -0.280 A  
HETATM   12  C   UNL     1     -10.284  12.723  64.620  1.00  0.00    -0.321 A  
HETATM   13  C   UNL     1     -10.433  13.907  65.370  1.00  0.00    -0.357 A  
HETATM   14  C   UNL     1      -9.386  12.841  67.237  1.00  0.00    -0.200 A  
HETATM   15  C   UNL     1      -9.256  11.662  66.480  1.00  0.00    -0.205 A  
HETATM   16  C   UNL     1      -9.674  11.569  65.141  1.00  0.00    -0.237 A  
BRANCH  16  17
HETATM   17  N   UNL     1      -9.461  10.436  64.373  1.00  0.00    -0.261 NA 
HETATM   18  C   UNL     1      -8.871   9.214  64.921  1.00  0.00    -0.173 C  
HETATM   19  C   UNL     1      -9.609  10.422  62.919  1.00  0.00    -0.295 C  
ENDBRANCH  16  17
ENDBRANCH  10  11
BRANCH  10  20
HETATM   20  C   UNL     1     -10.847  15.394  68.500  1.00  0.00    -0.264 A  
HETATM   21  C   UNL     1     -12.854  14.635  69.691  1.00  0.00     0.191 A  
HETATM   22  C   UNL     1     -11.180  16.135  70.828  1.00  0.00    -0.356 A  
HETATM   23  C   UNL     1     -12.159  14.743  68.545  1.00  0.00    -0.210 A  
HETATM   24  C   UNL     1     -10.530  16.243  69.660  1.00  0.00    -0.294 A  
HETATM   25  C   UNL     1     -12.298  15.148  70.992  1.00  0.00    -0.347 A  
BRANCH  25  26
HETATM   26  N   UNL     1     -12.760  14.772  72.156  1.00  0.00    -0.314 NA 
HETATM   27  C   UNL     1     -13.481  13.471  72.387  1.00  0.00    -0.584 C  
HETATM   28  C   UNL     1     -12.610  15.544  73.433  1.00  0.00    -0.525 C  
ENDBRANCH  25  26
ENDBRANCH  10  20
ENDBRANCH   7  10
ENDBRANCH   2   4
TORSDOF 6
ENDMDL
MODEL       19
REMARK 921   NORMALIZED FREE ENERGY PREDICTED BY IDOCK:   -5.72 KCAL/MOL
REMARK 922        TOTAL FREE ENERGY PREDICTED BY IDOCK:   -9.15 KCAL/MOL
REMARK 923 INTER-LIGAND FREE ENERGY PREDICTED BY IDOCK:   -7.65 KCAL/MOL
REMARK 924 INTRA-LIGAND FREE ENERGY PREDICTED BY IDOCK:   -1.50 KCAL/MOL
REMARK 927      BINDING AFFINITY PREDICTED BY RF-SCORE:    0.00 PKD
ROOT
HETATM    1  C   UNL     1      -9.865   3.416  64.211  1.00  0.00    -0.173 C  
HETATM    2  N   UNL     1      -9.232   3.787  65.476  1.00  0.00    -0.146 NA 
HETATM    3  C   UNL     1      -8.042   3.021  65.847  1.00  0.00    -0.086 C  
ENDROOT
BRANCH   2   4
HETATM    4  C   UNL     1      -9.470   5.033  66.054  1.00  0.00    -0.161 A  
HETATM    5  C   UNL     1      -8.459   5.998  66.231  1.00  0.00    -0.130 A  
HETATM    6  C   UNL     1      -8.693   7.238  66.860  1.00  0.00    -0.126 A  
HETATM    7  C   UNL     1      -9.963   7.573  67.324  1.00  0.00    -0.273 A  
HETATM    8  C   UNL     1     -10.996   6.654  67.114  1.00  0.00    -0.478 A  
HETATM    9  C   UNL     1     -10.750   5.418  66.492  1.00  0.00    -0.309 A  
BRANCH   7  10
HETATM   10  C   UNL     1     -10.240   8.826  68.093  1.00  0.00    -0.250 C  
BRANCH  10  11
HETATM   11  C   UNL     1     -10.559  10.077  67.340  1.00  0.00    -0.330 A  
HETATM   12  C   UNL     1     -11.421  12.353  67.290  1.00  0.00    -0.421 A  
HETATM   13  C   UNL     1     -11.224  11.130  67.963  1.00  0.00    -0.359 A  
HETATM   14  C   UNL     1     -10.147  10.249  66.018  1.00  0.00    -0.311 A  
HETATM   15  C   UNL     1     -10.363  11.471  65.355  1.00  0.00    -0.322 A  
HETATM   16  C   UNL     1     -10.981  12.572  65.974  1.00  0.00    -0.283 A  
BRANCH  16  17
HETATM   17  N   UNL     1     -11.109  13.801  65.347  1.00  0.00    -0.296 NA 
HETATM   18  C   UNL     1     -10.245  14.939  65.663  1.00  0.00    -0.358 C  
HETATM   19  C   UNL     1     -12.234  14.136  64.476  1.00  0.00    -0.445 C  
ENDBRANCH  16  17
ENDBRANCH  10  11
BRANCH  10  20
HETATM   20  C   UNL     1     -10.113   8.881  69.455  1.00  0.00    -0.202 A  
HETATM   21  C   UNL     1     -11.057   8.433  71.674  1.00  0.00    -0.344 A  
HETATM   22  C   UNL     1      -8.618   9.007  71.412  1.00  0.00    -0.178 A  
HETATM   23  C   UNL     1     -11.241   8.650  70.360  1.00  0.00    -0.236 A  
HETATM   24  C   UNL     1      -8.847   9.244  70.112  1.00  0.00    -0.235 A  
HETATM   25  C   UNL     1      -9.676   8.380  72.271  1.00  0.00    -0.316 A  
BRANCH  25  26
HETATM   26  N   UNL     1      -9.430   7.844  73.439  1.00  0.00    -0.284 NA 
HETATM   27  C   UNL     1     -10.267   6.750  74.048  1.00  0.00    -0.369 C  
HETATM   28  C   UNL     1      -8.270   8.198  74.322  1.00  0.00    -0.231 C  
ENDBRANCH  25  26
ENDBRANCH  10  20
ENDBRANCH   7  10
ENDBRANCH   2   4
TORSDOF 6
ENDMDL
MODEL       20
REMARK 921   NORMALIZED FREE ENERGY PREDICTED BY IDOCK:   -5.72 KCAL/MOL
REMARK 922        TOTAL FREE ENERGY PREDICTED BY IDOCK:   -9.15 KCAL/MOL
REMARK 923 INTER-LIGAND FREE ENERGY PREDICTED BY IDOCK:   -7.48 KCAL/MOL
REMARK 924 INTRA-LIGAND FREE ENERGY PREDICTED BY IDOCK:   -1.67 KCAL/MOL
REMARK 927      BINDING AFFINITY PREDICTED BY RF-SCORE:    0.00 PKD
ROOT
HETATM    1  C   UNL     1      -6.475   8.391  63.760  1.00  0.00    -0.072 C  
HETATM    2  N   UNL     1      -7.754   9.069  63.558  1.00  0.00    -0.116 NA 
HETATM    3  C   UNL     1      -8.603   8.534  62.493  1.00  0.00    -0.103 C  
ENDROOT
BRANCH   2   4
HETATM    4  C   UNL     1      -8.309   9.859  64.564  1.00  0.00    -0.166 A  
HETATM    5  C   UNL     1      -7.532  10.482  65.561  1.00  0.00    -0.111 A  
HETATM    6  C   UNL     1      -8.101  11.240  66.605  1.00  0.00    -0.160 A  
HETATM    7  C   UNL     1      -9.481  11.424  66.681  1.00  0.00    -0.206 A  
HETATM    8  C   UNL     1     -10.269  10.860  65.675  1.00  0.00    -0.323 A  
HETATM    9  C   UNL     1      -9.692  10.101  64.643  1.00  0.00    -0.377 A  
BRANCH   7  10
HETATM   10  C   UNL     1     -10.141  12.126  67.826  1.00  0.00    -0.203 C  
BRANCH  10  11
HETATM   11  C   UNL     1     -10.191  13.619  67.821  1.00  0.00    -0.242 A  
HETATM   12  C   UNL     1      -9.305  15.766  68.551  1.00  0.00    -0.198 A  
HETATM   13  C   UNL     1      -9.341  14.361  68.640  1.00  0.00    -0.188 A  
HETATM   14  C   UNL     1     -11.040  14.311  66.957  1.00  0.00    -0.317 A  
HETATM   15  C   UNL     1     -11.001  15.716  66.889  1.00  0.00    -0.243 A  
HETATM   16  C   UNL     1     -10.117  16.490  67.661  1.00  0.00    -0.266 A  
BRANCH  16  17
HETATM   17  N   UNL     1     -10.020  17.865  67.524  1.00  0.00    -0.309 NA 
HETATM   18  C   UNL     1      -9.961  18.768  68.674  1.00  0.00    -0.394 C  
HETATM   19  C   UNL     1     -10.175  18.549  66.241  1.00  0.00    -0.418 C  
ENDBRANCH  16  17
ENDBRANCH  10  11
BRANCH  10  20
HETATM   20  C   UNL     1     -10.610  11.445  68.917  1.00  0.00    -0.234 A  
HETATM   21  C   UNL     1     -12.440  10.999  70.489  1.00  0.00    -0.432 A  
HETATM   22  C   UNL     1     -10.444   9.465  70.377  1.00  0.00    -0.311 A  
HETATM   23  C   UNL     1     -11.847  11.822  69.607  1.00  0.00    -0.407 A  
HETATM   24  C   UNL     1      -9.871  10.326  69.523  1.00  0.00    -0.244 A  
HETATM   25  C   UNL     1     -11.879   9.633  70.782  1.00  0.00    -0.300 A  
BRANCH  25  26
HETATM   26  N   UNL     1     -12.582   8.686  71.349  1.00  0.00    -0.309 NA 
HETATM   27  C   UNL     1     -13.776   8.946  72.229  1.00  0.00    -0.471 C  
HETATM   28  C   UNL     1     -12.341   7.216  71.181  1.00  0.00    -0.364 C  
ENDBRANCH  25  26
ENDBRANCH  10  20
ENDBRANCH   7  10
ENDBRANCH   2   4
TORSDOF 6
ENDMDL
MODEL       21
REMARK 921   NORMALIZED FREE ENERGY PREDICTED BY IDOCK:   -5.71 KCAL/MOL
REMARK 922        TOTAL FREE ENERGY PREDICTED BY IDOCK:   -9.15 KCAL/MOL
REMARK 923 INTER-LIGAND FREE ENERGY PREDICTED BY IDOCK:   -7.87 KCAL/MOL
REMARK 924 INTRA-LIGAND FREE ENERGY PREDICTED BY IDOCK:   -1.28 KCAL/MOL
REMARK 927      BINDING AFFINITY PREDICTED BY RF-SCORE:    0.00 PKD
ROOT
HETATM    1  C   UNL     1      -8.625   8.825  64.389  1.00  0.00    -0.084 C  
HETATM    2  N   UNL     1      -8.999  10.091  63.760  1.00  0.00    -0.228 NA 
HETATM    3  C   UNL     1      -9.378  10.019  62.349  1.00  0.00    -0.257 C  
ENDROOT
BRANCH   2   4
HETATM    4  C   UNL     1      -9.389  11.184  64.534  1.00  0.00    -0.168 A  
HETATM    5  C   UNL     1     -10.235  12.201  64.048  1.00  0.00    -0.396 A  
HETATM    6  C   UNL     1     -10.586  13.329  64.816  1.00  0.00    -0.402 A  
HETATM    7  C   UNL     1     -10.119  13.476  66.121  1.00  0.00    -0.307 A  
HETATM    8  C   UNL     1      -9.321  12.455  66.645  1.00  0.00    -0.227 A  
HETATM    9  C   UNL     1      -8.971  11.338  65.867  1.00  0.00    -0.206 A  
BRANCH   7  10
HETATM   10  C   UNL     1     -10.373  14.703  66.938  1.00  0.00    -0.264 C  
BRANCH  10  11
HETATM   11  C   UNL     1      -9.601  15.945  66.631  1.00  0.00    -0.265 A  
HETATM   12  C   UNL     1      -9.539  18.284  65.957  1.00  0.00    -0.068 A  
HETATM   13  C   UNL     1     -10.245  17.077  66.137  1.00  0.00    -0.346 A  
HETATM   14  C   UNL     1      -8.232  16.027  66.886  1.00  0.00    -0.277 A  
HETATM   15  C   UNL     1      -7.538  17.235  66.690  1.00  0.00    -0.293 A  
HETATM   16  C   UNL     1      -8.169  18.409  66.246  1.00  0.00    -0.219 A  
BRANCH  16  17
HETATM   17  N   UNL     1      -7.501  19.619  66.142  1.00  0.00    -0.290 NA 
HETATM   18  C   UNL     1      -6.623  19.937  65.014  1.00  0.00    -0.270 C  
HETATM   19  C   UNL     1      -7.443  20.591  67.231  1.00  0.00    -0.339 C  
ENDBRANCH  16  17
ENDBRANCH  10  11
BRANCH  10  20
HETATM   20  C   UNL     1     -11.217  14.691  68.016  1.00  0.00    -0.307 A  
HETATM   21  C   UNL     1     -12.598  13.414  69.591  1.00  0.00     0.098 A  
HETATM   22  C   UNL     1     -12.023  15.823  70.053  1.00  0.00    -0.352 A  
HETATM   23  C   UNL     1     -11.995  13.509  68.393  1.00  0.00    -0.378 A  
HETATM   24  C   UNL     1     -11.458  15.888  68.838  1.00  0.00    -0.386 A  
HETATM   25  C   UNL     1     -12.469  14.506  70.618  1.00  0.00    -0.343 A  
BRANCH  25  26
HETATM   26  N   UNL     1     -12.735  14.321  71.885  1.00  0.00    -0.338 NA 
HETATM   27  C   UNL     1     -13.597  13.200  72.402  1.00  0.00    -0.567 C  
HETATM   28  C   UNL     1     -12.196  15.155  73.010  1.00  0.00    -0.391 C  
ENDBRANCH  25  26
ENDBRANCH  10  20
ENDBRANCH   7  10
ENDBRANCH   2   4
TORSDOF 6
ENDMDL
MODEL       22
REMARK 921   NORMALIZED FREE ENERGY PREDICTED BY IDOCK:   -5.67 KCAL/MOL
REMARK 922        TOTAL FREE ENERGY PREDICTED BY IDOCK:   -9.09 KCAL/MOL
REMARK 923 INTER-LIGAND FREE ENERGY PREDICTED BY IDOCK:   -7.45 KCAL/MOL
REMARK 924 INTRA-LIGAND FREE ENERGY PREDICTED BY IDOCK:   -1.64 KCAL/MOL
REMARK 927      BINDING AFFINITY PREDICTED BY RF-SCORE:    0.00 PKD
ROOT
HETATM    1  C   UNL     1     -10.664  14.574  64.963  1.00  0.00    -0.427 C  
HETATM    2  N   UNL     1     -11.431  13.349  64.743  1.00  0.00    -0.324 NA 
HETATM    3  C   UNL     1     -12.091  13.230  63.443  1.00  0.00    -0.439 C  
ENDROOT
BRANCH   2   4
HETATM    4  C   UNL     1     -11.194  12.212  65.514  1.00  0.00    -0.334 A  
HETATM    5  C   UNL     1     -11.625  12.091  66.850  1.00  0.00    -0.389 A  
HETATM    6  C   UNL     1     -11.341  10.960  67.642  1.00  0.00    -0.345 A  
HETATM    7  C   UNL     1     -10.626   9.885  67.117  1.00  0.00    -0.295 A  
HETATM    8  C   UNL     1     -10.232   9.957  65.778  1.00  0.00    -0.251 A  
HETATM    9  C   UNL     1     -10.515  11.093  65.000  1.00  0.00    -0.357 A  
BRANCH   7  10
HETATM   10  C   UNL     1     -10.205   8.712  67.944  1.00  0.00    -0.273 C  
BRANCH  10  11
HETATM   11  C   UNL     1      -9.966   7.402  67.266  1.00  0.00    -0.259 A  
HETATM   12  C   UNL     1      -8.435   5.711  66.414  1.00  0.00    -0.121 A  
HETATM   13  C   UNL     1      -8.672   6.994  66.947  1.00  0.00    -0.122 A  
HETATM   14  C   UNL     1     -11.017   6.528  66.990  1.00  0.00    -0.466 A  
HETATM   15  C   UNL     1     -10.766   5.255  66.446  1.00  0.00    -0.290 A  
HETATM   16  C   UNL     1      -9.469   4.792  66.165  1.00  0.00    -0.163 A  
BRANCH  16  17
HETATM   17  N   UNL     1      -9.220   3.505  65.715  1.00  0.00    -0.155 NA 
HETATM   18  C   UNL     1      -8.472   2.526  66.506  1.00  0.00    -0.099 C  
HETATM   19  C   UNL     1      -9.496   3.075  64.346  1.00  0.00    -0.145 C  
ENDBRANCH  16  17
ENDBRANCH  10  11
BRANCH  10  20
HETATM   20  C   UNL     1     -10.130   8.780  69.309  1.00  0.00    -0.206 A  
HETATM   21  C   UNL     1     -11.021   8.125  71.499  1.00  0.00    -0.294 A  
HETATM   22  C   UNL     1      -8.750   9.199  71.309  1.00  0.00    -0.157 A  
HETATM   23  C   UNL     1     -11.210   8.310  70.181  1.00  0.00    -0.132 A  
HETATM   24  C   UNL     1      -8.987   9.395  70.003  1.00  0.00    -0.234 A  
HETATM   25  C   UNL     1      -9.677   8.357  72.136  1.00  0.00    -0.300 A  
BRANCH  25  26
HETATM   26  N   UNL     1      -9.356   7.875  73.309  1.00  0.00    -0.273 NA 
HETATM   27  C   UNL     1     -10.210   6.894  74.069  1.00  0.00    -0.350 C  
HETATM   28  C   UNL     1      -8.090   8.182  74.050  1.00  0.00    -0.253 C  
ENDBRANCH  25  26
ENDBRANCH  10  20
ENDBRANCH   7  10
ENDBRANCH   2   4
TORSDOF 6
ENDMDL
MODEL       23
REMARK 921   NORMALIZED FREE ENERGY PREDICTED BY IDOCK:   -5.58 KCAL/MOL
REMARK 922        TOTAL FREE ENERGY PREDICTED BY IDOCK:   -8.97 KCAL/MOL
REMARK 923 INTER-LIGAND FREE ENERGY PREDICTED BY IDOCK:   -7.51 KCAL/MOL
REMARK 924 INTRA-LIGAND FREE ENERGY PREDICTED BY IDOCK:   -1.46 KCAL/MOL
REMARK 927      BINDING AFFINITY PREDICTED BY RF-SCORE:    0.00 PKD
ROOT
HETATM    1  C   UNL     1     -14.336  14.886  71.736  1.00  0.00    -0.578 C  
HETATM    2  N   UNL     1     -13.119  14.680  70.953  1.00  0.00    -0.364 NA 
HETATM    3  C   UNL     1     -12.230  15.836  70.831  1.00  0.00    -0.413 C  
ENDROOT
BRANCH   2   4
HETATM    4  C   UNL     1     -12.631  13.395  70.719  1.00  0.00    -0.294 A  
HETATM    5  C   UNL     1     -13.053  12.272  71.458  1.00  0.00    -0.356 A  
HETATM    6  C   UNL     1     -12.520  10.983  71.252  1.00  0.00    -0.475 A  
HETATM    7  C   UNL     1     -11.551  10.760  70.275  1.00  0.00    -0.427 A  
HETATM    8  C   UNL     1     -11.154  11.848  69.493  1.00  0.00    -0.169 A  
HETATM    9  C   UNL     1     -11.686  13.130  69.712  1.00  0.00    -0.350 A  
BRANCH   7  10
HETATM   10  C   UNL     1     -10.878   9.437  70.090  1.00  0.00    -0.287 C  
BRANCH  10  11
HETATM   11  C   UNL     1     -10.208   9.147  68.786  1.00  0.00    -0.228 A  
HETATM   12  C   UNL     1     -10.268   9.045  66.355  1.00  0.00    -0.297 A  
HETATM   13  C   UNL     1     -10.923   9.202  67.592  1.00  0.00    -0.024 A  
HETATM   14  C   UNL     1      -8.841   8.876  68.721  1.00  0.00    -0.137 A  
HETATM   15  C   UNL     1      -8.203   8.708  67.478  1.00  0.00    -0.110 A  
HETATM   16  C   UNL     1      -8.886   8.813  66.254  1.00  0.00    -0.157 A  
BRANCH  16  17
HETATM   17  N   UNL     1      -8.237   8.737  65.032  1.00  0.00    -0.147 NA 
HETATM   18  C   UNL     1      -7.093   7.853  64.802  1.00  0.00    -0.071 C  
HETATM   19  C   UNL     1      -8.495   9.669  63.936  1.00  0.00    -0.187 C  
ENDBRANCH  16  17
ENDBRANCH  10  11
BRANCH  10  20
HETATM   20  C   UNL     1     -10.943   8.454  71.041  1.00  0.00    -0.288 A  
HETATM   21  C   UNL     1     -11.641   6.190  71.679  1.00  0.00    -0.317 A  
HETATM   22  C   UNL     1     -10.025   7.485  73.114  1.00  0.00    -0.344 A  
HETATM   23  C   UNL     1     -11.788   7.267  70.888  1.00  0.00    -0.351 A  
HETATM   24  C   UNL     1     -10.222   8.549  72.320  1.00  0.00    -0.395 A  
HETATM   25  C   UNL     1     -10.572   6.140  72.738  1.00  0.00    -0.228 A  
BRANCH  25  26
HETATM   26  N   UNL     1     -10.170   5.022  73.284  1.00  0.00    -0.164 NA 
HETATM   27  C   UNL     1     -11.076   3.850  73.551  1.00  0.00    -0.249 C  
HETATM   28  C   UNL     1      -8.757   4.718  73.685  1.00  0.00    -0.106 C  
ENDBRANCH  25  26
ENDBRANCH  10  20
ENDBRANCH   7  10
ENDBRANCH   2   4
TORSDOF 6
ENDMDL
MODEL       24
REMARK 921   NORMALIZED FREE ENERGY PREDICTED BY IDOCK:   -5.58 KCAL/MOL
REMARK 922        TOTAL FREE ENERGY PREDICTED BY IDOCK:   -8.96 KCAL/MOL
REMARK 923 INTER-LIGAND FREE ENERGY PREDICTED BY IDOCK:   -7.59 KCAL/MOL
REMARK 924 INTRA-LIGAND FREE ENERGY PREDICTED BY IDOCK:   -1.38 KCAL/MOL
REMARK 927      BINDING AFFINITY PREDICTED BY RF-SCORE:    0.00 PKD
ROOT
HETATM    1  C   UNL     1     -13.687   9.018  72.417  1.00  0.00    -0.479 C  
HETATM    2  N   UNL     1     -12.269   8.946  72.067  1.00  0.00    -0.361 NA 
HETATM    3  C   UNL     1     -11.550   7.764  72.543  1.00  0.00    -0.367 C  
ENDROOT
BRANCH   2   4
HETATM    4  C   UNL     1     -11.756   9.699  71.012  1.00  0.00    -0.353 A  
HETATM    5  C   UNL     1     -10.448   9.529  70.518  1.00  0.00    -0.358 A  
HETATM    6  C   UNL     1      -9.916  10.326  69.484  1.00  0.00    -0.252 A  
HETATM    7  C   UNL     1     -10.686  11.320  68.883  1.00  0.00    -0.246 A  
HETATM    8  C   UNL     1     -12.005  11.474  69.319  1.00  0.00    -0.397 A  
HETATM    9  C   UNL     1     -12.522  10.678  70.356  1.00  0.00    -0.421 A  
BRANCH   7  10
HETATM   10  C   UNL     1     -10.136  12.262  67.859  1.00  0.00    -0.200 C  
BRANCH  10  11
HETATM   11  C   UNL     1      -9.548  11.699  66.606  1.00  0.00    -0.220 A  
HETATM   12  C   UNL     1      -7.695  10.651  65.425  1.00  0.00    -0.051 A  
HETATM   13  C   UNL     1      -8.217  11.289  66.568  1.00  0.00    -0.165 A  
HETATM   14  C   UNL     1     -10.326  11.511  65.464  1.00  0.00    -0.322 A  
HETATM   15  C   UNL     1      -9.787  10.884  64.325  1.00  0.00    -0.365 A  
HETATM   16  C   UNL     1      -8.465  10.409  64.275  1.00  0.00    -0.158 A  
BRANCH  16  17
HETATM   17  N   UNL     1      -7.967   9.712  63.185  1.00  0.00    -0.132 NA 
HETATM   18  C   UNL     1      -6.656   9.998  62.601  1.00  0.00    -0.121 C  
HETATM   19  C   UNL     1      -8.777   8.783  62.400  1.00  0.00    -0.147 C  
ENDBRANCH  16  17
ENDBRANCH  10  11
BRANCH  10  20
HETATM   20  C   UNL     1     -10.067  13.611  68.082  1.00  0.00    -0.245 A  
HETATM   21  C   UNL     1      -8.699  15.624  68.392  1.00  0.00    -0.178 A  
HETATM   22  C   UNL     1     -11.172  15.811  67.947  1.00  0.00    -0.313 A  
HETATM   23  C   UNL     1      -8.819  14.286  68.447  1.00  0.00    -0.187 A  
HETATM   24  C   UNL     1     -11.257  14.476  68.039  1.00  0.00    -0.308 A  
HETATM   25  C   UNL     1      -9.834  16.490  67.917  1.00  0.00    -0.240 A  
BRANCH  25  26
HETATM   26  N   UNL     1      -9.664  17.727  67.525  1.00  0.00    -0.278 NA 
HETATM   27  C   UNL     1     -10.190  18.269  66.222  1.00  0.00    -0.401 C  
HETATM   28  C   UNL     1      -8.969  18.794  68.316  1.00  0.00    -0.324 C  
ENDBRANCH  25  26
ENDBRANCH  10  20
ENDBRANCH   7  10
ENDBRANCH   2   4
TORSDOF 6
ENDMDL
MODEL       25
REMARK 921   NORMALIZED FREE ENERGY PREDICTED BY IDOCK:   -5.57 KCAL/MOL
REMARK 922        TOTAL FREE ENERGY PREDICTED BY IDOCK:   -8.95 KCAL/MOL
REMARK 923 INTER-LIGAND FREE ENERGY PREDICTED BY IDOCK:   -7.20 KCAL/MOL
REMARK 924 INTRA-LIGAND FREE ENERGY PREDICTED BY IDOCK:   -1.75 KCAL/MOL
REMARK 927      BINDING AFFINITY PREDICTED BY RF-SCORE:    0.00 PKD
ROOT
HETATM    1  C   UNL     1      -7.896   7.577  63.387  1.00  0.00    -0.124 C  
HETATM    2  N   UNL     1      -7.269   8.832  63.799  1.00  0.00    -0.095 NA 
HETATM    3  C   UNL     1      -6.240   9.360  62.903  1.00  0.00    -0.094 C  
ENDROOT
BRANCH   2   4
HETATM    4  C   UNL     1      -7.895   9.673  64.718  1.00  0.00    -0.128 A  
HETATM    5  C   UNL     1      -7.179  10.518  65.590  1.00  0.00    -0.124 A  
HETATM    6  C   UNL     1      -7.814  11.330  66.552  1.00  0.00    -0.133 A  
HETATM    7  C   UNL     1      -9.203  11.346  66.667  1.00  0.00    -0.191 A  
HETATM    8  C   UNL     1      -9.938  10.556  65.778  1.00  0.00    -0.318 A  
HETATM    9  C   UNL     1      -9.295   9.745  64.828  1.00  0.00    -0.327 A  
BRANCH   7  10
HETATM   10  C   UNL     1      -9.918  12.105  67.740  1.00  0.00    -0.198 C  
BRANCH  10  11
HETATM   11  C   UNL     1     -10.523  11.347  68.876  1.00  0.00    -0.219 A  
HETATM   12  C   UNL     1     -12.464  10.727  70.209  1.00  0.00    -0.395 A  
HETATM   13  C   UNL     1     -11.862  11.526  69.216  1.00  0.00    -0.414 A  
HETATM   14  C   UNL     1      -9.786  10.398  69.585  1.00  0.00    -0.179 A  
HETATM   15  C   UNL     1     -10.397   9.617  70.584  1.00  0.00    -0.365 A  
HETATM   16  C   UNL     1     -11.760   9.734  70.911  1.00  0.00    -0.347 A  
BRANCH  16  17
HETATM   17  N   UNL     1     -12.377   8.901  71.830  1.00  0.00    -0.349 NA 
HETATM   18  C   UNL     1     -13.711   9.174  72.367  1.00  0.00    -0.480 C  
HETATM   19  C   UNL     1     -11.683   7.801  72.498  1.00  0.00    -0.339 C  
ENDBRANCH  16  17
ENDBRANCH  10  11
BRANCH  10  20
HETATM   20  C   UNL     1     -10.116  13.457  67.658  1.00  0.00    -0.229 A  
HETATM   21  C   UNL     1      -9.592  15.712  68.472  1.00  0.00    -0.199 A  
HETATM   22  C   UNL     1     -10.828  15.388  66.300  1.00  0.00    -0.301 A  
HETATM   23  C   UNL     1      -9.640  14.385  68.687  1.00  0.00    -0.208 A  
HETATM   24  C   UNL     1     -10.884  14.074  66.565  1.00  0.00    -0.300 A  
HETATM   25  C   UNL     1      -9.991  16.302  67.146  1.00  0.00    -0.257 A  
BRANCH  25  26
HETATM   26  N   UNL     1      -9.646  17.508  66.776  1.00  0.00    -0.271 NA 
HETATM   27  C   UNL     1      -8.296  18.114  67.059  1.00  0.00    -0.240 C  
HETATM   28  C   UNL     1     -10.508  18.448  65.986  1.00  0.00    -0.374 C  
ENDBRANCH  25  26
ENDBRANCH  10  20
ENDBRANCH   7  10
ENDBRANCH   2   4
TORSDOF 6
ENDMDL
MODEL       26
REMARK 921   NORMALIZED FREE ENERGY PREDICTED BY IDOCK:   -5.51 KCAL/MOL
REMARK 922        TOTAL FREE ENERGY PREDICTED BY IDOCK:   -8.88 KCAL/MOL
REMARK 923 INTER-LIGAND FREE ENERGY PREDICTED BY IDOCK:   -7.39 KCAL/MOL
REMARK 924 INTRA-LIGAND FREE ENERGY PREDICTED BY IDOCK:   -1.49 KCAL/MOL
REMARK 927      BINDING AFFINITY PREDICTED BY RF-SCORE:    0.00 PKD
ROOT
HETATM    1  C   UNL     1     -12.504  14.852  73.465  1.00  0.00    -0.456 C  
HETATM    2  N   UNL     1     -12.957  14.657  72.089  1.00  0.00    -0.324 NA 
HETATM    3  C   UNL     1     -14.371  14.934  71.834  1.00  0.00    -0.576 C  
ENDROOT
BRANCH   2   4
HETATM    4  C   UNL     1     -12.046  14.643  71.034  1.00  0.00    -0.329 A  
HETATM    5  C   UNL     1     -11.143  15.697  70.790  1.00  0.00    -0.382 A  
HETATM    6  C   UNL     1     -10.258  15.701  69.693  1.00  0.00    -0.291 A  
HETATM    7  C   UNL     1     -10.225  14.631  68.800  1.00  0.00    -0.242 A  
HETATM    8  C   UNL     1     -11.074  13.549  69.050  1.00  0.00    -0.293 A  
HETATM    9  C   UNL     1     -11.958  13.559  70.142  1.00  0.00    -0.399 A  
BRANCH   7  10
HETATM   10  C   UNL     1      -9.383  14.635  67.563  1.00  0.00    -0.195 C  
BRANCH  10  11
HETATM   11  C   UNL     1      -9.441  13.452  66.651  1.00  0.00    -0.264 A  
HETATM   12  C   UNL     1     -10.163  12.424  64.565  1.00  0.00    -0.325 A  
HETATM   13  C   UNL     1     -10.200  13.493  65.484  1.00  0.00    -0.308 A  
HETATM   14  C   UNL     1      -8.691  12.304  66.907  1.00  0.00    -0.197 A  
HETATM   15  C   UNL     1      -8.673  11.240  65.987  1.00  0.00    -0.165 A  
HETATM   16  C   UNL     1      -9.384  11.273  64.775  1.00  0.00    -0.145 A  
BRANCH  16  17
HETATM   17  N   UNL     1      -9.291  10.263  63.831  1.00  0.00    -0.271 NA 
HETATM   18  C   UNL     1      -8.516   9.042  64.059  1.00  0.00    -0.163 C  
HETATM   19  C   UNL     1      -9.778  10.408  62.461  1.00  0.00    -0.093 C  
ENDBRANCH  16  17
ENDBRANCH  10  11
BRANCH  10  20
HETATM   20  C   UNL     1      -8.495  15.641  67.297  1.00  0.00    -0.214 A  
HETATM   21  C   UNL     1      -8.015  17.791  66.217  1.00  0.00    -0.283 A  
HETATM   22  C   UNL     1      -6.447  16.849  67.950  1.00  0.00    -0.152 A  
HETATM   23  C   UNL     1      -8.748  16.666  66.281  1.00  0.00    -0.359 A  
HETATM   24  C   UNL     1      -7.186  15.730  67.963  1.00  0.00    -0.141 A  
HETATM   25  C   UNL     1      -6.921  18.068  67.213  1.00  0.00    -0.187 A  
BRANCH  25  26
HETATM   26  N   UNL     1      -6.425  19.262  67.406  1.00  0.00    -0.189 NA 
HETATM   27  C   UNL     1      -6.021  20.188  66.289  1.00  0.00    -0.174 C  
HETATM   28  C   UNL     1      -6.223  19.907  68.745  1.00  0.00    -0.277 C  
ENDBRANCH  25  26
ENDBRANCH  10  20
ENDBRANCH   7  10
ENDBRANCH   2   4
TORSDOF 6
ENDMDL
MODEL       27
REMARK 921   NORMALIZED FREE ENERGY PREDICTED BY IDOCK:   -5.47 KCAL/MOL
REMARK 922        TOTAL FREE ENERGY PREDICTED BY IDOCK:   -8.82 KCAL/MOL
REMARK 923 INTER-LIGAND FREE ENERGY PREDICTED BY IDOCK:   -7.13 KCAL/MOL
REMARK 924 INTRA-LIGAND FREE ENERGY PREDICTED BY IDOCK:   -1.69 KCAL/MOL
REMARK 927      BINDING AFFINITY PREDICTED BY RF-SCORE:    0.00 PKD
ROOT
HETATM    1  C   UNL     1     -13.570   9.245  71.983  1.00  0.00    -0.452 C  
HETATM    2  N   UNL     1     -12.116   9.200  71.838  1.00  0.00    -0.370 NA 
HETATM    3  C   UNL     1     -11.423   8.182  72.629  1.00  0.00    -0.387 C  
ENDROOT
BRANCH   2   4
HETATM    4  C   UNL     1     -11.492   9.766  70.727  1.00  0.00    -0.342 A  
HETATM    5  C   UNL     1     -10.170   9.455  70.352  1.00  0.00    -0.310 A  
HETATM    6  C   UNL     1      -9.527  10.066  69.257  1.00  0.00    -0.227 A  
HETATM    7  C   UNL     1     -10.193  11.006  68.473  1.00  0.00    -0.203 A  
HETATM    8  C   UNL     1     -11.523  11.293  68.792  1.00  0.00    -0.359 A  
HETATM    9  C   UNL     1     -12.153  10.683  69.890  1.00  0.00    -0.372 A  
BRANCH   7  10
HETATM   10  C   UNL     1      -9.523  11.761  67.369  1.00  0.00    -0.174 C  
BRANCH  10  11
HETATM   11  C   UNL     1      -9.598  13.254  67.370  1.00  0.00    -0.223 A  
HETATM   12  C   UNL     1     -10.530  15.324  66.490  1.00  0.00    -0.299 A  
HETATM   13  C   UNL     1     -10.363  13.926  66.419  1.00  0.00    -0.289 A  
HETATM   14  C   UNL     1      -8.960  14.009  68.354  1.00  0.00    -0.189 A  
HETATM   15  C   UNL     1      -9.125  15.406  68.404  1.00  0.00    -0.191 A  
HETATM   16  C   UNL     1      -9.934  16.107  67.494  1.00  0.00    -0.243 A  
BRANCH  16  17
HETATM   17  N   UNL     1     -10.166  17.469  67.602  1.00  0.00    -0.328 NA 
HETATM   18  C   UNL     1     -10.404  18.322  66.437  1.00  0.00    -0.400 C  
HETATM   19  C   UNL     1      -9.990  18.208  68.851  1.00  0.00    -0.338 C  
ENDBRANCH  16  17
ENDBRANCH  10  11
BRANCH  10  20
HETATM   20  C   UNL     1      -8.930  11.123  66.313  1.00  0.00    -0.202 A  
HETATM   21  C   UNL     1      -6.927  10.106  65.328  1.00  0.00    -0.137 A  
HETATM   22  C   UNL     1      -9.194   9.733  64.294  1.00  0.00    -0.286 A  
HETATM   23  C   UNL     1      -7.478  10.960  66.208  1.00  0.00    -0.129 A  
HETATM   24  C   UNL     1      -9.702  10.614  65.169  1.00  0.00    -0.327 A  
HETATM   25  C   UNL     1      -7.781   9.248  64.433  1.00  0.00    -0.118 A  
BRANCH  25  26
HETATM   26  N   UNL     1      -7.323   8.184  63.825  1.00  0.00    -0.095 NA 
HETATM   27  C   UNL     1      -7.011   6.890  64.529  1.00  0.00    -0.055 C  
HETATM   28  C   UNL     1      -7.082   8.072  62.349  1.00  0.00    -0.087 C  
ENDBRANCH  25  26
ENDBRANCH  10  20
ENDBRANCH   7  10
ENDBRANCH   2   4
TORSDOF 6
ENDMDL
MODEL       28
REMARK 921   NORMALIZED FREE ENERGY PREDICTED BY IDOCK:   -5.44 KCAL/MOL
REMARK 922        TOTAL FREE ENERGY PREDICTED BY IDOCK:   -8.78 KCAL/MOL
REMARK 923 INTER-LIGAND FREE ENERGY PREDICTED BY IDOCK:   -7.30 KCAL/MOL
REMARK 924 INTRA-LIGAND FREE ENERGY PREDICTED BY IDOCK:   -1.47 KCAL/MOL
REMARK 927      BINDING AFFINITY PREDICTED BY RF-SCORE:    0.00 PKD
ROOT
HETATM    1  C   UNL     1     -12.786  14.181  65.384  1.00  0.00    -0.431 C  
HETATM    2  N   UNL     1     -11.774  13.952  66.415  1.00  0.00    -0.363 NA 
HETATM    3  C   UNL     1     -11.433  15.106  67.247  1.00  0.00    -0.279 C  
ENDROOT
BRANCH   2   4
HETATM    4  C   UNL     1     -11.487  12.661  66.857  1.00  0.00    -0.343 A  
HETATM    5  C   UNL     1     -11.823  12.204  68.147  1.00  0.00    -0.362 A  
HETATM    6  C   UNL     1     -11.487  10.915  68.607  1.00  0.00    -0.380 A  
HETATM    7  C   UNL     1     -10.813  10.016  67.782  1.00  0.00    -0.337 A  
HETATM    8  C   UNL     1     -10.515  10.427  66.480  1.00  0.00    -0.262 A  
HETATM    9  C   UNL     1     -10.848  11.717  66.033  1.00  0.00    -0.343 A  
BRANCH   7  10
HETATM   10  C   UNL     1     -10.339   8.679  68.257  1.00  0.00    -0.252 C  
BRANCH  10  11
HETATM   11  C   UNL     1     -10.089   8.483  69.718  1.00  0.00    -0.197 A  
HETATM   12  C   UNL     1     -10.804   7.652  71.891  1.00  0.00    -0.274 A  
HETATM   13  C   UNL     1     -11.077   7.947  70.541  1.00  0.00    -0.260 A  
HETATM   14  C   UNL     1      -8.847   8.769  70.283  1.00  0.00    -0.171 A  
HETATM   15  C   UNL     1      -8.593   8.482  71.637  1.00  0.00    -0.247 A  
HETATM   16  C   UNL     1      -9.550   7.890  72.479  1.00  0.00    -0.216 A  
BRANCH  16  17
HETATM   17  N   UNL     1      -9.266   7.526  73.786  1.00  0.00    -0.257 NA 
HETATM   18  C   UNL     1      -8.094   8.027  74.505  1.00  0.00    -0.225 C  
HETATM   19  C   UNL     1      -9.981   6.461  74.487  1.00  0.00    -0.351 C  
ENDBRANCH  16  17
ENDBRANCH  10  11
BRANCH  10  20
HETATM   20  C   UNL     1     -10.036   7.668  67.386  1.00  0.00    -0.252 A  
HETATM   21  C   UNL     1      -8.370   6.513  66.003  1.00  0.00    -0.133 A  
HETATM   22  C   UNL     1     -10.598   5.441  66.490  1.00  0.00    -0.353 A  
HETATM   23  C   UNL     1      -8.779   7.628  66.635  1.00  0.00    -0.150 A  
HETATM   24  C   UNL     1     -10.980   6.581  67.085  1.00  0.00    -0.480 A  
HETATM   25  C   UNL     1      -9.171   5.240  66.071  1.00  0.00    -0.157 A  
BRANCH  25  26
HETATM   26  N   UNL     1      -8.666   4.070  65.777  1.00  0.00    -0.117 NA 
HETATM   27  C   UNL     1      -7.200   3.743  65.885  1.00  0.00    -0.071 C  
HETATM   28  C   UNL     1      -9.458   2.875  65.336  1.00  0.00    -0.039 C  
ENDBRANCH  25  26
ENDBRANCH  10  20
ENDBRANCH   7  10
ENDBRANCH   2   4
TORSDOF 6
ENDMDL
MODEL       29
REMARK 921   NORMALIZED FREE ENERGY PREDICTED BY IDOCK:   -5.40 KCAL/MOL
REMARK 922        TOTAL FREE ENERGY PREDICTED BY IDOCK:   -8.73 KCAL/MOL
REMARK 923 INTER-LIGAND FREE ENERGY PREDICTED BY IDOCK:   -7.35 KCAL/MOL
REMARK 924 INTRA-LIGAND FREE ENERGY PREDICTED BY IDOCK:   -1.38 KCAL/MOL
REMARK 927      BINDING AFFINITY PREDICTED BY RF-SCORE:    0.00 PKD
ROOT
HETATM    1  C   UNL     1     -10.056   3.078  63.573  1.00  0.00    -0.165 C  
HETATM    2  N   UNL     1      -9.456   3.321  64.883  1.00  0.00    -0.152 NA 
HETATM    3  C   UNL     1      -8.390   2.401  65.282  1.00  0.00    -0.096 C  
ENDROOT
BRANCH   2   4
HETATM    4  C   UNL     1      -9.572   4.565  65.501  1.00  0.00    -0.185 A  
HETATM    5  C   UNL     1      -8.517   5.498  65.544  1.00  0.00    -0.144 A  
HETATM    6  C   UNL     1      -8.622   6.735  66.213  1.00  0.00    -0.141 A  
HETATM    7  C   UNL     1      -9.805   7.100  66.852  1.00  0.00    -0.271 A  
HETATM    8  C   UNL     1     -10.884   6.215  66.780  1.00  0.00    -0.360 A  
HETATM    9  C   UNL     1     -10.766   4.982  66.117  1.00  0.00    -0.264 A  
BRANCH   7  10
HETATM   10  C   UNL     1      -9.933   8.350  67.665  1.00  0.00    -0.246 C  
BRANCH  10  11
HETATM   11  C   UNL     1      -9.855   8.250  69.155  1.00  0.00    -0.179 A  
HETATM   12  C   UNL     1     -10.752   7.441  71.268  1.00  0.00    -0.238 A  
HETATM   13  C   UNL     1     -10.878   7.640  69.879  1.00  0.00    -0.241 A  
HETATM   14  C   UNL     1      -8.736   8.705  69.852  1.00  0.00    -0.133 A  
HETATM   15  C   UNL     1      -8.631   8.510  71.242  1.00  0.00    -0.219 A  
HETATM   16  C   UNL     1      -9.619   7.850  71.992  1.00  0.00    -0.186 A  
BRANCH  16  17
HETATM   17  N   UNL     1      -9.469   7.581  73.344  1.00  0.00    -0.228 NA 
HETATM   18  C   UNL     1      -8.332   8.072  74.122  1.00  0.00    -0.253 C  
HETATM   19  C   UNL     1     -10.309   6.622  74.060  1.00  0.00    -0.351 C  
ENDBRANCH  16  17
ENDBRANCH  10  11
BRANCH  10  20
HETATM   20  C   UNL     1     -10.215   9.560  67.091  1.00  0.00    -0.305 A  
HETATM   21  C   UNL     1     -10.305  10.963  65.080  1.00  0.00    -0.344 A  
HETATM   22  C   UNL     1     -11.453  11.689  67.202  1.00  0.00    -0.344 A  
HETATM   23  C   UNL     1      -9.795   9.901  65.730  1.00  0.00    -0.356 A  
HETATM   24  C   UNL     1     -10.901  10.636  67.823  1.00  0.00    -0.338 A  
HETATM   25  C   UNL     1     -11.361  11.830  65.711  1.00  0.00    -0.250 A  
BRANCH  25  26
HETATM   26  N   UNL     1     -12.118  12.640  65.017  1.00  0.00    -0.420 NA 
HETATM   27  C   UNL     1     -12.392  12.472  63.546  1.00  0.00    -0.525 C  
HETATM   28  C   UNL     1     -12.857  13.820  65.576  1.00  0.00    -0.419 C  
ENDBRANCH  25  26
ENDBRANCH  10  20
ENDBRANCH   7  10
ENDBRANCH   2   4
TORSDOF 6
ENDMDL
MODEL       30
REMARK 921   NORMALIZED FREE ENERGY PREDICTED BY IDOCK:   -5.32 KCAL/MOL
REMARK 922        TOTAL FREE ENERGY PREDICTED BY IDOCK:   -8.62 KCAL/MOL
REMARK 923 INTER-LIGAND FREE ENERGY PREDICTED BY IDOCK:   -7.68 KCAL/MOL
REMARK 924 INTRA-LIGAND FREE ENERGY PREDICTED BY IDOCK:   -0.94 KCAL/MOL
REMARK 927      BINDING AFFINITY PREDICTED BY RF-SCORE:    0.00 PKD
ROOT
HETATM    1  C   UNL     1      -9.220   4.449  72.626  1.00  0.00    -0.125 C  
HETATM    2  N   UNL     1      -8.417   5.581  72.164  1.00  0.00    -0.125 NA 
HETATM    3  C   UNL     1      -6.981   5.335  72.027  1.00  0.00    -0.078 C  
ENDROOT
BRANCH   2   4
HETATM    4  C   UNL     1      -9.011   6.650  71.495  1.00  0.00    -0.139 A  
HETATM    5  C   UNL     1     -10.250   6.543  70.833  1.00  0.00    -0.220 A  
HETATM    6  C   UNL     1     -10.823   7.613  70.115  1.00  0.00    -0.255 A  
HETATM    7  C   UNL     1     -10.184   8.849  70.048  1.00  0.00    -0.214 A  
HETATM    8  C   UNL     1      -8.979   8.997  70.740  1.00  0.00    -0.286 A  
HETATM    9  C   UNL     1      -8.413   7.922  71.447  1.00  0.00    -0.133 A  
BRANCH   7  10
HETATM   10  C   UNL     1     -10.695   9.980  69.213  1.00  0.00    -0.249 C  
BRANCH  10  11
HETATM   11  C   UNL     1     -11.464  11.076  69.878  1.00  0.00    -0.400 A  
HETATM   12  C   UNL     1     -12.968  11.838  71.634  1.00  0.00    -0.467 A  
HETATM   13  C   UNL     1     -12.332  10.795  70.931  1.00  0.00    -0.497 A  
HETATM   14  C   UNL     1     -11.288  12.409  69.508  1.00  0.00    -0.250 A  
HETATM   15  C   UNL     1     -11.940  13.439  70.212  1.00  0.00    -0.378 A  
HETATM   16  C   UNL     1     -12.778  13.193  71.313  1.00  0.00    -0.306 A  
BRANCH  16  17
HETATM   17  N   UNL     1     -13.344  14.214  72.059  1.00  0.00    -0.380 NA 
HETATM   18  C   UNL     1     -14.406  15.075  71.536  1.00  0.00    -0.555 C  
HETATM   19  C   UNL     1     -12.801  14.657  73.341  1.00  0.00    -0.406 C  
ENDBRANCH  16  17
ENDBRANCH  10  11
BRANCH  10  20
HETATM   20  C   UNL     1     -10.563   9.989  67.850  1.00  0.00    -0.298 A  
HETATM   21  C   UNL     1     -10.884  11.153  65.715  1.00  0.00    -0.218 A  
HETATM   22  C   UNL     1      -9.401   9.121  65.856  1.00  0.00    -0.306 A  
HETATM   23  C   UNL     1     -11.231  10.979  67.002  1.00  0.00    -0.255 A  
HETATM   24  C   UNL     1      -9.795   8.962  67.129  1.00  0.00    -0.267 A  
HETATM   25  C   UNL     1      -9.764  10.362  65.094  1.00  0.00    -0.291 A  
BRANCH  25  26
HETATM   26  N   UNL     1      -9.172  10.724  63.986  1.00  0.00    -0.217 NA 
HETATM   27  C   UNL     1      -9.690  11.808  63.078  1.00  0.00    -0.207 C  
HETATM   28  C   UNL     1      -7.882  10.156  63.472  1.00  0.00    -0.158 C  
ENDBRANCH  25  26
ENDBRANCH  10  20
ENDBRANCH   7  10
ENDBRANCH   2   4
TORSDOF 6
ENDMDL
MODEL       31
REMARK 921   NORMALIZED FREE ENERGY PREDICTED BY IDOCK:   -5.32 KCAL/MOL
REMARK 922        TOTAL FREE ENERGY PREDICTED BY IDOCK:   -8.61 KCAL/MOL
REMARK 923 INTER-LIGAND FREE ENERGY PREDICTED BY IDOCK:   -6.92 KCAL/MOL
REMARK 924 INTRA-LIGAND FREE ENERGY PREDICTED BY IDOCK:   -1.69 KCAL/MOL
REMARK 927      BINDING AFFINITY PREDICTED BY RF-SCORE:    0.00 PKD
ROOT
HETATM    1  C   UNL     1      -8.348  18.366  68.338  1.00  0.00    -0.308 C  
HETATM    2  N   UNL     1      -9.310  17.723  67.445  1.00  0.00    -0.250 NA 
HETATM    3  C   UNL     1      -9.923  18.584  66.434  1.00  0.00    -0.379 C  
ENDROOT
BRANCH   2   4
HETATM    4  C   UNL     1      -9.312  16.338  67.279  1.00  0.00    -0.224 A  
HETATM    5  C   UNL     1      -9.961  15.699  66.203  1.00  0.00    -0.335 A  
HETATM    6  C   UNL     1     -10.004  14.297  66.066  1.00  0.00    -0.337 A  
HETATM    7  C   UNL     1      -9.375  13.471  66.995  1.00  0.00    -0.247 A  
HETATM    8  C   UNL     1      -8.679  14.081  68.043  1.00  0.00    -0.180 A  
HETATM    9  C   UNL     1      -8.650  15.480  68.174  1.00  0.00    -0.152 A  
BRANCH   7  10
HETATM   10  C   UNL     1      -9.481  11.979  66.955  1.00  0.00    -0.206 C  
BRANCH  10  11
HETATM   11  C   UNL     1     -10.169  11.277  68.080  1.00  0.00    -0.196 A  
HETATM   12  C   UNL     1     -10.090   9.801  70.015  1.00  0.00    -0.301 A  
HETATM   13  C   UNL     1      -9.475  10.375  68.884  1.00  0.00    -0.190 A  
HETATM   14  C   UNL     1     -11.501  11.548  68.396  1.00  0.00    -0.364 A  
HETATM   15  C   UNL     1     -12.105  10.958  69.521  1.00  0.00    -0.380 A  
HETATM   16  C   UNL     1     -11.415  10.088  70.383  1.00  0.00    -0.314 A  
BRANCH  16  17
HETATM   17  N   UNL     1     -11.987   9.581  71.540  1.00  0.00    -0.374 NA 
HETATM   18  C   UNL     1     -11.391   8.477  72.293  1.00  0.00    -0.371 C  
HETATM   19  C   UNL     1     -13.324   9.956  71.995  1.00  0.00    -0.432 C  
ENDBRANCH  16  17
ENDBRANCH  10  11
BRANCH  10  20
HETATM   20  C   UNL     1      -8.884  11.238  65.971  1.00  0.00    -0.189 A  
HETATM   21  C   UNL     1      -6.920  10.009  65.164  1.00  0.00    -0.134 A  
HETATM   22  C   UNL     1      -9.147   9.766  64.011  1.00  0.00    -0.280 A  
HETATM   23  C   UNL     1      -7.447  10.952  65.965  1.00  0.00    -0.086 A  
HETATM   24  C   UNL     1      -9.629  10.732  64.807  1.00  0.00    -0.314 A  
HETATM   25  C   UNL     1      -7.790   9.176  64.261  1.00  0.00    -0.127 A  
BRANCH  25  26
HETATM   26  N   UNL     1      -7.389   8.047  63.737  1.00  0.00    -0.096 NA 
HETATM   27  C   UNL     1      -6.264   7.943  62.741  1.00  0.00    -0.073 C  
HETATM   28  C   UNL     1      -7.947   6.695  64.069  1.00  0.00    -0.084 C  
ENDBRANCH  25  26
ENDBRANCH  10  20
ENDBRANCH   7  10
ENDBRANCH   2   4
TORSDOF 6
ENDMDL
MODEL       32
REMARK 921   NORMALIZED FREE ENERGY PREDICTED BY IDOCK:   -5.30 KCAL/MOL
REMARK 922        TOTAL FREE ENERGY PREDICTED BY IDOCK:   -8.59 KCAL/MOL
REMARK 923 INTER-LIGAND FREE ENERGY PREDICTED BY IDOCK:   -7.25 KCAL/MOL
REMARK 924 INTRA-LIGAND FREE ENERGY PREDICTED BY IDOCK:   -1.34 KCAL/MOL
REMARK 927      BINDING AFFINITY PREDICTED BY RF-SCORE:    0.00 PKD
ROOT
HETATM    1  C   UNL     1     -10.055   6.592  74.424  1.00  0.00    -0.348 C  
HETATM    2  N   UNL     1      -9.345   7.672  73.740  1.00  0.00    -0.279 NA 
HETATM    3  C   UNL     1      -8.081   8.092  74.344  1.00  0.00    -0.246 C  
ENDROOT
BRANCH   2   4
HETATM    4  C   UNL     1      -9.615   7.969  72.405  1.00  0.00    -0.232 A  
HETATM    5  C   UNL     1     -10.885   7.784  71.823  1.00  0.00    -0.277 A  
HETATM    6  C   UNL     1     -11.142   8.039  70.460  1.00  0.00    -0.251 A  
HETATM    7  C   UNL     1     -10.134   8.513  69.623  1.00  0.00    -0.202 A  
HETATM    8  C   UNL     1      -8.878   8.755  70.187  1.00  0.00    -0.160 A  
HETATM    9  C   UNL     1      -8.632   8.490  71.545  1.00  0.00    -0.236 A  
BRANCH   7  10
HETATM   10  C   UNL     1     -10.325   8.696  68.150  1.00  0.00    -0.267 C  
BRANCH  10  11
HETATM   11  C   UNL     1     -10.022   7.551  67.238  1.00  0.00    -0.273 A  
HETATM   12  C   UNL     1      -8.488   6.377  65.757  1.00  0.00    -0.148 A  
HETATM   13  C   UNL     1      -8.826   7.509  66.525  1.00  0.00    -0.167 A  
HETATM   14  C   UNL     1     -10.894   6.468  67.124  1.00  0.00    -0.472 A  
HETATM   15  C   UNL     1     -10.548   5.350  66.343  1.00  0.00    -0.322 A  
HETATM   16  C   UNL     1      -9.326   5.253  65.656  1.00  0.00    -0.114 A  
BRANCH  16  17
HETATM   17  N   UNL     1      -8.951   4.113  64.963  1.00  0.00    -0.130 NA 
HETATM   18  C   UNL     1      -9.450   3.808  63.621  1.00  0.00    -0.141 C  
HETATM   19  C   UNL     1      -8.200   3.020  65.578  1.00  0.00    -0.088 C  
ENDBRANCH  16  17
ENDBRANCH  10  11
BRANCH  10  20
HETATM   20  C   UNL     1     -10.673   9.905  67.611  1.00  0.00    -0.339 A  
HETATM   21  C   UNL     1     -11.644  12.138  67.908  1.00  0.00    -0.413 A  
HETATM   22  C   UNL     1     -10.328  11.579  65.834  1.00  0.00    -0.293 A  
HETATM   23  C   UNL     1     -11.534  10.860  68.312  1.00  0.00    -0.376 A  
HETATM   24  C   UNL     1     -10.265  10.307  66.255  1.00  0.00    -0.287 A  
HETATM   25  C   UNL     1     -10.857  12.656  66.735  1.00  0.00    -0.250 A  
BRANCH  25  26
HETATM   26  N   UNL     1     -10.666  13.932  66.519  1.00  0.00    -0.277 NA 
HETATM   27  C   UNL     1     -10.504  14.949  67.618  1.00  0.00    -0.249 C  
HETATM   28  C   UNL     1     -10.535  14.568  65.167  1.00  0.00    -0.416 C  
ENDBRANCH  25  26
ENDBRANCH  10  20
ENDBRANCH   7  10
ENDBRANCH   2   4
TORSDOF 6
ENDMDL
MODEL       33
REMARK 921   NORMALIZED FREE ENERGY PREDICTED BY IDOCK:   -5.27 KCAL/MOL
REMARK 922        TOTAL FREE ENERGY PREDICTED BY IDOCK:   -8.55 KCAL/MOL
REMARK 923 INTER-LIGAND FREE ENERGY PREDICTED BY IDOCK:   -6.83 KCAL/MOL
REMARK 924 INTRA-LIGAND FREE ENERGY PREDICTED BY IDOCK:   -1.73 KCAL/MOL
REMARK 927      BINDING AFFINITY PREDICTED BY RF-SCORE:    0.00 PKD
ROOT
HETATM    1  C   UNL     1     -11.520  16.081  64.225  1.00  0.00    -0.157 C  
HETATM    2  N   UNL     1     -10.492  15.893  65.248  1.00  0.00    -0.478 NA 
HETATM    3  C   UNL     1     -10.101  17.090  65.993  1.00  0.00    -0.302 C  
ENDROOT
BRANCH   2   4
HETATM    4  C   UNL     1     -10.231  14.627  65.772  1.00  0.00    -0.340 A  
HETATM    5  C   UNL     1     -10.783  13.449  65.231  1.00  0.00    -0.321 A  
HETATM    6  C   UNL     1     -10.556  12.176  65.794  1.00  0.00    -0.295 A  
HETATM    7  C   UNL     1      -9.745  12.028  66.917  1.00  0.00    -0.213 A  
HETATM    8  C   UNL     1      -9.143  13.175  67.441  1.00  0.00    -0.208 A  
HETATM    9  C   UNL     1      -9.382  14.440  66.877  1.00  0.00    -0.269 A  
BRANCH   7  10
HETATM   10  C   UNL     1      -9.560  10.717  67.614  1.00  0.00    -0.174 C  
BRANCH  10  11
HETATM   11  C   UNL     1      -8.896   9.598  66.879  1.00  0.00    -0.143 A  
HETATM   12  C   UNL     1      -9.013   7.434  65.770  1.00  0.00    -0.061 A  
HETATM   13  C   UNL     1      -9.601   8.439  66.564  1.00  0.00    -0.304 A  
HETATM   14  C   UNL     1      -7.578   9.707  66.435  1.00  0.00    -0.101 A  
HETATM   15  C   UNL     1      -6.999   8.689  65.654  1.00  0.00    -0.075 A  
HETATM   16  C   UNL     1      -7.702   7.533  65.273  1.00  0.00    -0.112 A  
BRANCH  16  17
HETATM   17  N   UNL     1      -7.158   6.578  64.428  1.00  0.00    -0.060 NA 
HETATM   18  C   UNL     1      -6.013   6.856  63.560  1.00  0.00    -0.036 C  
HETATM   19  C   UNL     1      -7.796   5.287  64.174  1.00  0.00    -0.101 C  
ENDBRANCH  16  17
ENDBRANCH  10  11
BRANCH  10  20
HETATM   20  C   UNL     1     -10.067  10.486  68.865  1.00  0.00    -0.215 A  
HETATM   21  C   UNL     1     -11.969  10.579  70.412  1.00  0.00    -0.425 A  
HETATM   22  C   UNL     1      -9.915   9.239  70.986  1.00  0.00    -0.364 A  
HETATM   23  C   UNL     1     -11.356  11.029  69.303  1.00  0.00    -0.350 A  
HETATM   24  C   UNL     1      -9.324   9.733  69.887  1.00  0.00    -0.262 A  
HETATM   25  C   UNL     1     -11.376   9.467  71.235  1.00  0.00    -0.376 A  
BRANCH  25  26
HETATM   26  N   UNL     1     -12.075   8.775  72.097  1.00  0.00    -0.367 NA 
HETATM   27  C   UNL     1     -11.526   7.603  72.867  1.00  0.00    -0.290 C  
HETATM   28  C   UNL     1     -13.496   9.061  72.483  1.00  0.00    -0.429 C  
ENDBRANCH  25  26
ENDBRANCH  10  20
ENDBRANCH   7  10
ENDBRANCH   2   4
TORSDOF 6
ENDMDL
MODEL       34
REMARK 921   NORMALIZED FREE ENERGY PREDICTED BY IDOCK:   -5.25 KCAL/MOL
REMARK 922        TOTAL FREE ENERGY PREDICTED BY IDOCK:   -8.52 KCAL/MOL
REMARK 923 INTER-LIGAND FREE ENERGY PREDICTED BY IDOCK:   -7.01 KCAL/MOL
REMARK 924 INTRA-LIGAND FREE ENERGY PREDICTED BY IDOCK:   -1.51 KCAL/MOL
REMARK 927      BINDING AFFINITY PREDICTED BY RF-SCORE:    0.00 PKD
ROOT
HETATM    1  C   UNL     1      -6.358   7.675  63.996  1.00  0.00    -0.053 C  
HETATM    2  N   UNL     1      -6.475   9.101  63.692  1.00  0.00    -0.089 NA 
HETATM    3  C   UNL     1      -5.996   9.517  62.373  1.00  0.00    -0.092 C  
ENDROOT
BRANCH   2   4
HETATM    4  C   UNL     1      -7.359   9.911  64.402  1.00  0.00    -0.133 A  
HETATM    5  C   UNL     1      -8.597  10.334  63.877  1.00  0.00    -0.191 A  
HETATM    6  C   UNL     1      -9.466  11.194  64.579  1.00  0.00    -0.254 A  
HETATM    7  C   UNL     1      -9.139  11.651  65.854  1.00  0.00    -0.155 A  
HETATM    8  C   UNL     1      -7.942  11.203  66.419  1.00  0.00    -0.147 A  
HETATM    9  C   UNL     1      -7.079  10.353  65.707  1.00  0.00    -0.139 A  
BRANCH   7  10
HETATM   10  C   UNL     1      -9.974  12.648  66.595  1.00  0.00    -0.247 C  
BRANCH  10  11
HETATM   11  C   UNL     1      -9.743  14.104  66.349  1.00  0.00    -0.313 A  
HETATM   12  C   UNL     1     -10.520  16.258  65.524  1.00  0.00    -0.383 A  
HETATM   13  C   UNL     1     -10.681  14.864  65.655  1.00  0.00    -0.352 A  
HETATM   14  C   UNL     1      -8.618  14.753  66.859  1.00  0.00    -0.254 A  
HETATM   15  C   UNL     1      -8.465  16.143  66.709  1.00  0.00    -0.289 A  
HETATM   16  C   UNL     1      -9.420  16.947  66.063  1.00  0.00    -0.195 A  
BRANCH  16  17
HETATM   17  N   UNL     1      -9.309  18.327  65.998  1.00  0.00    -0.512 NA 
HETATM   18  C   UNL     1      -8.025  19.019  66.116  1.00  0.00    -0.255 C  
HETATM   19  C   UNL     1     -10.467  19.218  66.015  1.00  0.00    -0.487 C  
ENDBRANCH  16  17
ENDBRANCH  10  11
BRANCH  10  20
HETATM   20  C   UNL     1     -10.869  12.267  67.558  1.00  0.00    -0.271 A  
HETATM   21  C   UNL     1     -11.993  10.468  68.791  1.00  0.00     0.031 A  
HETATM   22  C   UNL     1     -12.104  12.848  69.612  1.00  0.00    -0.290 A  
HETATM   23  C   UNL     1     -11.341  10.886  67.692  1.00  0.00    -0.345 A  
HETATM   24  C   UNL     1     -11.480  13.231  68.488  1.00  0.00    -0.347 A  
HETATM   25  C   UNL     1     -12.236  11.392  69.954  1.00  0.00    -0.277 A  
BRANCH  25  26
HETATM   26  N   UNL     1     -12.545  10.960  71.149  1.00  0.00    -0.401 NA 
HETATM   27  C   UNL     1     -12.042   9.662  71.723  1.00  0.00    -0.369 C  
HETATM   28  C   UNL     1     -13.400  11.696  72.137  1.00  0.00    -0.205 C  
ENDBRANCH  25  26
ENDBRANCH  10  20
ENDBRANCH   7  10
ENDBRANCH   2   4
TORSDOF 6
ENDMDL
MODEL       35
REMARK 921   NORMALIZED FREE ENERGY PREDICTED BY IDOCK:   -5.23 KCAL/MOL
REMARK 922        TOTAL FREE ENERGY PREDICTED BY IDOCK:   -8.50 KCAL/MOL
REMARK 923 INTER-LIGAND FREE ENERGY PREDICTED BY IDOCK:   -7.62 KCAL/MOL
REMARK 924 INTRA-LIGAND FREE ENERGY PREDICTED BY IDOCK:   -0.88 KCAL/MOL
REMARK 927      BINDING AFFINITY PREDICTED BY RF-SCORE:    0.00 PKD
ROOT
HETATM    1  C   UNL     1     -14.387  15.910  72.598  1.00  0.00    -0.027 C  
HETATM    2  N   UNL     1     -13.130  15.204  72.841  1.00  0.00    -0.436 NA 
HETATM    3  C   UNL     1     -12.558  15.353  74.180  1.00  0.00    -0.556 C  
ENDROOT
BRANCH   2   4
HETATM    4  C   UNL     1     -12.744  14.137  72.031  1.00  0.00    -0.306 A  
HETATM    5  C   UNL     1     -13.152  12.810  72.270  1.00  0.00    -0.400 A  
HETATM    6  C   UNL     1     -12.719  11.727  71.478  1.00  0.00    -0.400 A  
HETATM    7  C   UNL     1     -11.870  11.934  70.392  1.00  0.00    -0.329 A  
HETATM    8  C   UNL     1     -11.493  13.247  70.102  1.00  0.00    -0.038 A  
HETATM    9  C   UNL     1     -11.924  14.319  70.903  1.00  0.00    -0.389 A  
BRANCH   7  10
HETATM   10  C   UNL     1     -11.297  10.809  69.588  1.00  0.00    -0.362 C  
BRANCH  10  11
HETATM   11  C   UNL     1     -11.223  10.953  68.102  1.00  0.00    -0.363 A  
HETATM   12  C   UNL     1     -11.642  12.241  66.079  1.00  0.00    -0.451 A  
HETATM   13  C   UNL     1     -11.811  12.043  67.464  1.00  0.00    -0.275 A  
HETATM   14  C   UNL     1     -10.514  10.039  67.323  1.00  0.00    -0.313 A  
HETATM   15  C   UNL     1     -10.365  10.243  65.938  1.00  0.00    -0.241 A  
HETATM   16  C   UNL     1     -10.898  11.361  65.274  1.00  0.00    -0.233 A  
BRANCH  16  17
HETATM   17  N   UNL     1     -10.671  11.604  63.929  1.00  0.00    -0.362 NA 
HETATM   18  C   UNL     1     -11.701  12.152  63.044  1.00  0.00     0.003 C  
HETATM   19  C   UNL     1      -9.470  11.150  63.231  1.00  0.00    -0.332 C  
ENDBRANCH  16  17
ENDBRANCH  10  11
BRANCH  10  20
HETATM   20  C   UNL     1     -10.932   9.622  70.163  1.00  0.00    -0.320 A  
HETATM   21  C   UNL     1      -9.580   8.415  71.817  1.00  0.00    -0.303 A  
HETATM   22  C   UNL     1     -11.501   7.274  70.654  1.00  0.00    -0.322 A  
HETATM   23  C   UNL     1      -9.769   9.500  71.046  1.00  0.00    -0.196 A  
HETATM   24  C   UNL     1     -11.640   8.363  69.883  1.00  0.00     0.289 A  
HETATM   25  C   UNL     1     -10.577   7.288  71.835  1.00  0.00    -0.212 A  
BRANCH  25  26
HETATM   26  N   UNL     1     -10.620   6.397  72.792  1.00  0.00    -0.218 NA 
HETATM   27  C   UNL     1     -10.200   6.676  74.211  1.00  0.00    -0.326 C  
HETATM   28  C   UNL     1     -11.126   4.993  72.641  1.00  0.00    -0.197 C  
ENDBRANCH  25  26
ENDBRANCH  10  20
ENDBRANCH   7  10
ENDBRANCH   2   4
TORSDOF 6
ENDMDL
MODEL       36
REMARK 921   NORMALIZED FREE ENERGY PREDICTED BY IDOCK:   -5.23 KCAL/MOL
REMARK 922        TOTAL FREE ENERGY PREDICTED BY IDOCK:   -8.50 KCAL/MOL
REMARK 923 INTER-LIGAND FREE ENERGY PREDICTED BY IDOCK:   -7.43 KCAL/MOL
REMARK 924 INTRA-LIGAND FREE ENERGY PREDICTED BY IDOCK:   -1.06 KCAL/MOL
REMARK 927      BINDING AFFINITY PREDICTED BY RF-SCORE:    0.00 PKD
ROOT
HETATM    1  C   UNL     1      -9.202  10.987  62.760  1.00  0.00    -0.351 C  
HETATM    2  N   UNL     1      -9.193   9.792  63.602  1.00  0.00    -0.240 NA 
HETATM    3  C   UNL     1      -8.419   8.657  63.098  1.00  0.00    -0.096 C  
ENDROOT
BRANCH   2   4
HETATM    4  C   UNL     1      -9.517   9.871  64.956  1.00  0.00    -0.280 A  
HETATM    5  C   UNL     1      -8.918   9.052  65.933  1.00  0.00    -0.233 A  
HETATM    6  C   UNL     1      -9.284   9.101  67.294  1.00  0.00    -0.157 A  
HETATM    7  C   UNL     1     -10.256   9.994  67.738  1.00  0.00    -0.235 A  
HETATM    8  C   UNL     1     -10.828  10.855  66.797  1.00  0.00    -0.283 A  
HETATM    9  C   UNL     1     -10.462  10.792  65.442  1.00  0.00    -0.272 A  
BRANCH   7  10
HETATM   10  C   UNL     1     -10.756  10.011  69.148  1.00  0.00    -0.244 C  
BRANCH  10  11
HETATM   11  C   UNL     1     -11.374  11.265  69.678  1.00  0.00    -0.359 A  
HETATM   12  C   UNL     1     -12.782  12.404  71.304  1.00  0.00    -0.347 A  
HETATM   13  C   UNL     1     -12.289  11.217  70.728  1.00  0.00    -0.504 A  
HETATM   14  C   UNL     1     -11.007  12.516  69.182  1.00  0.00    -0.198 A  
HETATM   15  C   UNL     1     -11.518  13.693  69.760  1.00  0.00    -0.256 A  
HETATM   16  C   UNL     1     -12.399  13.680  70.855  1.00  0.00    -0.371 A  
BRANCH  16  17
HETATM   17  N   UNL     1     -12.827  14.841  71.478  1.00  0.00    -0.311 NA 
HETATM   18  C   UNL     1     -14.182  14.995  72.011  1.00  0.00    -0.555 C  
HETATM   19  C   UNL     1     -12.048  16.078  71.476  1.00  0.00    -0.452 C  
ENDBRANCH  16  17
ENDBRANCH  10  11
BRANCH  10  20
HETATM   20  C   UNL     1     -10.576   8.948  69.992  1.00  0.00    -0.234 A  
HETATM   21  C   UNL     1     -11.180   6.665  70.656  1.00  0.00    -0.370 A  
HETATM   22  C   UNL     1      -9.101   7.756  71.568  1.00  0.00    -0.158 A  
HETATM   23  C   UNL     1     -11.504   7.815  70.040  1.00  0.00     0.023 A  
HETATM   24  C   UNL     1      -9.472   8.895  70.964  1.00  0.00    -0.318 A  
HETATM   25  C   UNL     1      -9.831   6.474  71.295  1.00  0.00    -0.181 A  
BRANCH  25  26
HETATM   26  N   UNL     1      -9.350   5.295  71.594  1.00  0.00    -0.145 NA 
HETATM   27  C   UNL     1      -9.642   4.049  70.800  1.00  0.00    -0.193 C  
HETATM   28  C   UNL     1      -8.412   5.009  72.729  1.00  0.00    -0.116 C  
ENDBRANCH  25  26
ENDBRANCH  10  20
ENDBRANCH   7  10
ENDBRANCH   2   4
TORSDOF 6
ENDMDL
MODEL       37
REMARK 921   NORMALIZED FREE ENERGY PREDICTED BY IDOCK:   -5.16 KCAL/MOL
REMARK 922        TOTAL FREE ENERGY PREDICTED BY IDOCK:   -8.40 KCAL/MOL
REMARK 923 INTER-LIGAND FREE ENERGY PREDICTED BY IDOCK:   -7.51 KCAL/MOL
REMARK 924 INTRA-LIGAND FREE ENERGY PREDICTED BY IDOCK:   -0.89 KCAL/MOL
REMARK 927      BINDING AFFINITY PREDICTED BY RF-SCORE:    0.00 PKD
ROOT
HETATM    1  C   UNL     1     -14.282  14.049  72.329  1.00  0.00    -0.504 C  
HETATM    2  N   UNL     1     -13.228  14.217  71.330  1.00  0.00    -0.341 NA 
HETATM    3  C   UNL     1     -12.614  15.543  71.260  1.00  0.00    -0.447 C  
ENDROOT
BRANCH   2   4
HETATM    4  C   UNL     1     -12.563  13.110  70.803  1.00  0.00    -0.260 A  
HETATM    5  C   UNL     1     -11.666  13.202  69.720  1.00  0.00    -0.350 A  
HETATM    6  C   UNL     1     -11.034  12.074  69.159  1.00  0.00    -0.231 A  
HETATM    7  C   UNL     1     -11.260  10.800  69.676  1.00  0.00    -0.355 A  
HETATM    8  C   UNL     1     -12.104  10.688  70.784  1.00  0.00    -0.474 A  
HETATM    9  C   UNL     1     -12.735  11.818  71.331  1.00  0.00    -0.413 A  
BRANCH   7  10
HETATM   10  C   UNL     1     -10.700   9.562  69.050  1.00  0.00    -0.224 C  
BRANCH  10  11
HETATM   11  C   UNL     1     -10.353   9.584  67.597  1.00  0.00    -0.299 A  
HETATM   12  C   UNL     1     -10.408  10.687  65.427  1.00  0.00    -0.303 A  
HETATM   13  C   UNL     1     -10.829  10.599  66.769  1.00  0.00    -0.233 A  
HETATM   14  C   UNL     1      -9.498   8.631  67.043  1.00  0.00    -0.221 A  
HETATM   15  C   UNL     1      -9.098   8.724  65.697  1.00  0.00    -0.247 A  
HETATM   16  C   UNL     1      -9.515   9.767  64.852  1.00  0.00    -0.265 A  
BRANCH  16  17
HETATM   17  N   UNL     1      -9.046   9.905  63.555  1.00  0.00    -0.252 NA 
HETATM   18  C   UNL     1      -8.203   8.896  62.912  1.00  0.00    -0.190 C  
HETATM   19  C   UNL     1      -9.172  11.146  62.793  1.00  0.00    -0.348 C  
ENDBRANCH  16  17
ENDBRANCH  10  11
BRANCH  10  20
HETATM   20  C   UNL     1     -10.589   8.387  69.745  1.00  0.00    -0.221 A  
HETATM   21  C   UNL     1     -11.406   6.114  70.175  1.00  0.00    -0.433 A  
HETATM   22  C   UNL     1      -9.166   6.859  71.055  1.00  0.00    -0.156 A  
HETATM   23  C   UNL     1     -11.634   7.361  69.726  1.00  0.00     0.124 A  
HETATM   24  C   UNL     1      -9.442   8.097  70.620  1.00  0.00    -0.174 A  
HETATM   25  C   UNL     1     -10.051   5.704  70.686  1.00  0.00    -0.211 A  
BRANCH  25  26
HETATM   26  N   UNL     1      -9.688   4.454  70.805  1.00  0.00    -0.188 NA 
HETATM   27  C   UNL     1      -9.159   3.625  69.664  1.00  0.00    -0.129 C  
HETATM   28  C   UNL     1      -9.699   3.671  72.085  1.00  0.00    -0.163 C  
ENDBRANCH  25  26
ENDBRANCH  10  20
ENDBRANCH   7  10
ENDBRANCH   2   4
TORSDOF 6
ENDMDL
MODEL       38
REMARK 921   NORMALIZED FREE ENERGY PREDICTED BY IDOCK:   -5.11 KCAL/MOL
REMARK 922        TOTAL FREE ENERGY PREDICTED BY IDOCK:   -8.34 KCAL/MOL
REMARK 923 INTER-LIGAND FREE ENERGY PREDICTED BY IDOCK:   -6.70 KCAL/MOL
REMARK 924 INTRA-LIGAND FREE ENERGY PREDICTED BY IDOCK:   -1.63 KCAL/MOL
REMARK 927      BINDING AFFINITY PREDICTED BY RF-SCORE:    0.00 PKD
ROOT
HETATM    1  C   UNL     1      -8.040  10.190  62.874  1.00  0.00    -0.147 C  
HETATM    2  N   UNL     1      -7.657   9.382  64.030  1.00  0.00    -0.110 NA 
HETATM    3  C   UNL     1      -6.351   8.728  63.952  1.00  0.00    -0.076 C  
ENDROOT
BRANCH   2   4
HETATM    4  C   UNL     1      -8.270   9.572  65.268  1.00  0.00    -0.130 A  
HETATM    5  C   UNL     1      -7.558   9.950  66.423  1.00  0.00    -0.101 A  
HETATM    6  C   UNL     1      -8.173  10.094  67.683  1.00  0.00    -0.110 A  
HETATM    7  C   UNL     1      -9.543   9.883  67.835  1.00  0.00    -0.157 A  
HETATM    8  C   UNL     1     -10.282   9.559  66.694  1.00  0.00    -0.310 A  
HETATM    9  C   UNL     1      -9.656   9.411  65.444  1.00  0.00    -0.296 A  
BRANCH   7  10
HETATM   10  C   UNL     1     -10.224   9.917  69.167  1.00  0.00    -0.218 C  
BRANCH  10  11
HETATM   11  C   UNL     1     -10.029   8.768  70.103  1.00  0.00    -0.201 A  
HETATM   12  C   UNL     1     -10.383   6.431  70.684  1.00  0.00    -0.243 A  
HETATM   13  C   UNL     1     -10.658   7.547  69.870  1.00  0.00    -0.243 A  
HETATM   14  C   UNL     1      -9.168   8.866  71.196  1.00  0.00    -0.324 A  
HETATM   15  C   UNL     1      -8.913   7.746  72.009  1.00  0.00    -0.175 A  
HETATM   16  C   UNL     1      -9.488   6.486  71.767  1.00  0.00    -0.152 A  
BRANCH  16  17
HETATM   17  N   UNL     1      -9.164   5.365  72.515  1.00  0.00    -0.136 NA 
HETATM   18  C   UNL     1     -10.129   4.301  72.797  1.00  0.00    -0.159 C  
HETATM   19  C   UNL     1      -7.911   5.240  73.256  1.00  0.00    -0.104 C  
ENDBRANCH  16  17
ENDBRANCH  10  11
BRANCH  10  20
HETATM   20  C   UNL     1     -11.093  10.917  69.509  1.00  0.00    -0.326 A  
HETATM   21  C   UNL     1     -12.846  11.758  71.005  1.00  0.00    -0.309 A  
HETATM   22  C   UNL     1     -11.668  13.313  69.411  1.00  0.00    -0.383 A  
HETATM   23  C   UNL     1     -12.180  10.720  70.471  1.00  0.00    -0.457 A  
HETATM   24  C   UNL     1     -11.045  12.248  68.883  1.00  0.00    -0.291 A  
HETATM   25  C   UNL     1     -12.480  13.178  70.665  1.00  0.00    -0.286 A  
BRANCH  25  26
HETATM   26  N   UNL     1     -12.850  14.199  71.394  1.00  0.00    -0.337 NA 
HETATM   27  C   UNL     1     -13.692  14.074  72.637  1.00  0.00    -0.477 C  
HETATM   28  C   UNL     1     -12.466  15.626  71.139  1.00  0.00    -0.448 C  
ENDBRANCH  25  26
ENDBRANCH  10  20
ENDBRANCH   7  10
ENDBRANCH   2   4
TORSDOF 6
ENDMDL
MODEL       39
REMARK 921   NORMALIZED FREE ENERGY PREDICTED BY IDOCK:   -5.11 KCAL/MOL
REMARK 922        TOTAL FREE ENERGY PREDICTED BY IDOCK:   -8.33 KCAL/MOL
REMARK 923 INTER-LIGAND FREE ENERGY PREDICTED BY IDOCK:   -6.72 KCAL/MOL
REMARK 924 INTRA-LIGAND FREE ENERGY PREDICTED BY IDOCK:   -1.61 KCAL/MOL
REMARK 927      BINDING AFFINITY PREDICTED BY RF-SCORE:    0.00 PKD
ROOT
HETATM    1  C   UNL     1     -11.376   4.899  73.057  1.00  0.00    -0.273 C  
HETATM    2  N   UNL     1     -10.825   6.242  73.230  1.00  0.00    -0.260 NA 
HETATM    3  C   UNL     1     -10.035   6.461  74.442  1.00  0.00    -0.343 C  
ENDROOT
BRANCH   2   4
HETATM    4  C   UNL     1     -10.687   7.101  72.140  1.00  0.00    -0.215 A  
HETATM    5  C   UNL     1     -11.201   6.803  70.862  1.00  0.00    -0.338 A  
HETATM    6  C   UNL     1     -11.015   7.650  69.752  1.00  0.00    -0.178 A  
HETATM    7  C   UNL     1     -10.321   8.852  69.881  1.00  0.00    -0.215 A  
HETATM    8  C   UNL     1      -9.847   9.197  71.149  1.00  0.00    -0.371 A  
HETATM    9  C   UNL     1     -10.031   8.340  72.248  1.00  0.00    -0.366 A  
BRANCH   7  10
HETATM   10  C   UNL     1     -10.005   9.733  68.713  1.00  0.00    -0.179 C  
BRANCH  10  11
HETATM   11  C   UNL     1     -10.443  11.161  68.751  1.00  0.00    -0.227 A  
HETATM   12  C   UNL     1     -12.071  12.857  69.383  1.00  0.00    -0.254 A  
HETATM   13  C   UNL     1     -11.702  11.505  69.238  1.00  0.00    -0.397 A  
HETATM   14  C   UNL     1      -9.586  12.190  68.360  1.00  0.00    -0.186 A  
HETATM   15  C   UNL     1      -9.973  13.536  68.499  1.00  0.00    -0.202 A  
HETATM   16  C   UNL     1     -11.214  13.917  69.038  1.00  0.00    -0.274 A  
BRANCH  16  17
HETATM   17  N   UNL     1     -11.554  15.243  69.257  1.00  0.00    -0.311 NA 
HETATM   18  C   UNL     1     -10.976  16.341  68.481  1.00  0.00    -0.345 C  
HETATM   19  C   UNL     1     -12.348  15.680  70.403  1.00  0.00    -0.391 C  
ENDBRANCH  16  17
ENDBRANCH  10  11
BRANCH  10  20
HETATM   20  C   UNL     1      -9.416   9.245  67.578  1.00  0.00    -0.160 A  
HETATM   21  C   UNL     1      -9.272   9.217  65.129  1.00  0.00    -0.264 A  
HETATM   22  C   UNL     1      -7.449   8.189  66.531  1.00  0.00    -0.088 A  
HETATM   23  C   UNL     1      -9.985   9.453  66.245  1.00  0.00    -0.353 A  
HETATM   24  C   UNL     1      -8.202   8.413  67.618  1.00  0.00    -0.126 A  
HETATM   25  C   UNL     1      -7.839   8.762  65.200  1.00  0.00    -0.108 A  
BRANCH  25  26
HETATM   26  N   UNL     1      -7.018   8.849  64.187  1.00  0.00    -0.089 NA 
HETATM   27  C   UNL     1      -6.912   7.805  63.106  1.00  0.00    -0.076 C  
HETATM   28  C   UNL     1      -6.098  10.003  63.919  1.00  0.00    -0.132 C  
ENDBRANCH  25  26
ENDBRANCH  10  20
ENDBRANCH   7  10
ENDBRANCH   2   4
TORSDOF 6
ENDMDL
MODEL       40
REMARK 921   NORMALIZED FREE ENERGY PREDICTED BY IDOCK:   -5.02 KCAL/MOL
REMARK 922        TOTAL FREE ENERGY PREDICTED BY IDOCK:   -8.22 KCAL/MOL
REMARK 923 INTER-LIGAND FREE ENERGY PREDICTED BY IDOCK:   -6.48 KCAL/MOL
REMARK 924 INTRA-LIGAND FREE ENERGY PREDICTED BY IDOCK:   -1.73 KCAL/MOL
REMARK 927      BINDING AFFINITY PREDICTED BY RF-SCORE:    0.00 PKD
ROOT
HETATM    1  C   UNL     1     -10.062  16.428  66.871  1.00  0.00    -0.281 C  
HETATM    2  N   UNL     1     -10.757  15.287  66.278  1.00  0.00    -0.310 NA 
HETATM    3  C   UNL     1     -11.311  15.498  64.940  1.00  0.00    -0.335 C  
ENDROOT
BRANCH   2   4
HETATM    4  C   UNL     1     -10.531  13.993  66.745  1.00  0.00    -0.277 A  
HETATM    5  C   UNL     1      -9.334  13.609  67.381  1.00  0.00    -0.227 A  
HETATM    6  C   UNL     1      -9.089  12.288  67.807  1.00  0.00    -0.191 A  
HETATM    7  C   UNL     1     -10.051  11.294  67.633  1.00  0.00    -0.201 A  
HETATM    8  C   UNL     1     -11.268  11.661  67.054  1.00  0.00    -0.376 A  
HETATM    9  C   UNL     1     -11.498  12.979  66.625  1.00  0.00    -0.382 A  
BRANCH   7  10
HETATM   10  C   UNL     1      -9.799   9.858  67.969  1.00  0.00    -0.170 C  
BRANCH  10  11
HETATM   11  C   UNL     1      -9.696   9.463  69.407  1.00  0.00    -0.181 A  
HETATM   12  C   UNL     1     -10.755   8.876  71.519  1.00  0.00    -0.398 A  
HETATM   13  C   UNL     1     -10.838   9.360  70.199  1.00  0.00    -0.287 A  
HETATM   14  C   UNL     1      -8.468   9.128  69.978  1.00  0.00    -0.164 A  
HETATM   15  C   UNL     1      -8.399   8.658  71.302  1.00  0.00    -0.211 A  
HETATM   16  C   UNL     1      -9.539   8.490  72.108  1.00  0.00    -0.312 A  
BRANCH  16  17
HETATM   17  N   UNL     1      -9.475   7.941  73.380  1.00  0.00    -0.284 NA 
HETATM   18  C   UNL     1      -8.359   8.196  74.292  1.00  0.00    -0.190 C  
HETATM   19  C   UNL     1     -10.396   6.906  73.845  1.00  0.00    -0.365 C  
ENDBRANCH  16  17
ENDBRANCH  10  11
BRANCH  10  20
HETATM   20  C   UNL     1      -9.565   8.919  67.001  1.00  0.00    -0.232 A  
HETATM   21  C   UNL     1      -8.283   8.199  65.037  1.00  0.00    -0.157 A  
HETATM   22  C   UNL     1      -9.747   6.569  66.279  1.00  0.00    -0.067 A  
HETATM   23  C   UNL     1      -8.729   9.190  65.829  1.00  0.00    -0.192 A  
HETATM   24  C   UNL     1     -10.193   7.589  67.028  1.00  0.00    -0.368 A  
HETATM   25  C   UNL     1      -8.591   6.758  65.342  1.00  0.00    -0.047 A  
BRANCH  25  26
HETATM   26  N   UNL     1      -7.916   5.765  64.823  1.00  0.00    -0.118 NA 
HETATM   27  C   UNL     1      -7.845   5.486  63.345  1.00  0.00    -0.096 C  
HETATM   28  C   UNL     1      -7.084   4.789  65.601  1.00  0.00    -0.064 C  
ENDBRANCH  25  26
ENDBRANCH  10  20
ENDBRANCH   7  10
ENDBRANCH   2   4
TORSDOF 6
ENDMDL
MODEL       41
REMARK 921   NORMALIZED FREE ENERGY PREDICTED BY IDOCK:   -5.01 KCAL/MOL
REMARK 922        TOTAL FREE ENERGY PREDICTED BY IDOCK:   -8.20 KCAL/MOL
REMARK 923 INTER-LIGAND FREE ENERGY PREDICTED BY IDOCK:   -6.79 KCAL/MOL
REMARK 924 INTRA-LIGAND FREE ENERGY PREDICTED BY IDOCK:   -1.41 KCAL/MOL
REMARK 927      BINDING AFFINITY PREDICTED BY RF-SCORE:    0.00 PKD
ROOT
HETATM    1  C   UNL     1      -8.352   8.010  74.035  1.00  0.00    -0.265 C  
HETATM    2  N   UNL     1      -9.234   7.144  73.254  1.00  0.00    -0.145 NA 
HETATM    3  C   UNL     1     -10.261   6.425  74.008  1.00  0.00    -0.332 C  
ENDROOT
BRANCH   2   4
HETATM    4  C   UNL     1      -9.375   7.326  71.878  1.00  0.00    -0.137 A  
HETATM    5  C   UNL     1     -10.590   7.108  71.200  1.00  0.00    -0.240 A  
HETATM    6  C   UNL     1     -10.716   7.244  69.802  1.00  0.00    -0.253 A  
HETATM    7  C   UNL     1      -9.627   7.629  69.024  1.00  0.00    -0.151 A  
HETATM    8  C   UNL     1      -8.423   7.903  69.678  1.00  0.00    -0.132 A  
HETATM    9  C   UNL     1      -8.307   7.756  71.071  1.00  0.00    -0.114 A  
BRANCH   7  10
HETATM   10  C   UNL     1      -9.679   7.683  67.529  1.00  0.00    -0.197 C  
BRANCH  10  11
HETATM   11  C   UNL     1      -9.985   8.988  66.867  1.00  0.00    -0.313 A  
HETATM   12  C   UNL     1      -9.969  10.412  64.893  1.00  0.00    -0.409 A  
HETATM   13  C   UNL     1      -9.580   9.231  65.557  1.00  0.00    -0.291 A  
HETATM   14  C   UNL     1     -10.735   9.969  67.517  1.00  0.00    -0.339 A  
HETATM   15  C   UNL     1     -11.104  11.149  66.845  1.00  0.00    -0.313 A  
HETATM   16  C   UNL     1     -10.759  11.400  65.506  1.00  0.00    -0.253 A  
BRANCH  16  17
HETATM   17  N   UNL     1     -11.202  12.521  64.821  1.00  0.00    -0.296 NA 
HETATM   18  C   UNL     1     -12.111  12.436  63.678  1.00  0.00    -0.556 C  
HETATM   19  C   UNL     1     -10.649  13.856  65.041  1.00  0.00    -0.404 C  
ENDBRANCH  16  17
ENDBRANCH  10  11
BRANCH  10  20
HETATM   20  C   UNL     1      -9.553   6.558  66.760  1.00  0.00    -0.198 A  
HETATM   21  C   UNL     1     -10.599   4.615  65.689  1.00  0.00    -0.241 A  
HETATM   22  C   UNL     1      -8.264   5.321  65.061  1.00  0.00    -0.134 A  
HETATM   23  C   UNL     1     -10.619   5.560  66.645  1.00  0.00    -0.365 A  
HETATM   24  C   UNL     1      -8.309   6.231  66.045  1.00  0.00    -0.138 A  
HETATM   25  C   UNL     1      -9.497   4.563  64.666  1.00  0.00    -0.103 A  
BRANCH  25  26
HETATM   26  N   UNL     1      -9.606   3.904  63.541  1.00  0.00    -0.142 NA 
HETATM   27  C   UNL     1     -10.737   2.957  63.235  1.00  0.00    -0.235 C  
HETATM   28  C   UNL     1      -8.663   4.018  62.380  1.00  0.00    -0.090 C  
ENDBRANCH  25  26
ENDBRANCH  10  20
ENDBRANCH   7  10
ENDBRANCH   2   4
TORSDOF 6
ENDMDL
MODEL       42
REMARK 921   NORMALIZED FREE ENERGY PREDICTED BY IDOCK:   -4.97 KCAL/MOL
REMARK 922        TOTAL FREE ENERGY PREDICTED BY IDOCK:   -8.14 KCAL/MOL
REMARK 923 INTER-LIGAND FREE ENERGY PREDICTED BY IDOCK:   -6.79 KCAL/MOL
REMARK 924 INTRA-LIGAND FREE ENERGY PREDICTED BY IDOCK:   -1.35 KCAL/MOL
REMARK 927      BINDING AFFINITY PREDICTED BY RF-SCORE:    0.00 PKD
ROOT
HETATM    1  C   UNL     1      -9.412   6.579  74.161  1.00  0.00    -0.212 C  
HETATM    2  N   UNL     1     -10.115   5.806  73.139  1.00  0.00    -0.176 NA 
HETATM    3  C   UNL     1     -11.151   4.894  73.624  1.00  0.00    -0.297 C  
ENDROOT
BRANCH   2   4
HETATM    4  C   UNL     1     -10.114   6.218  71.807  1.00  0.00    -0.186 A  
HETATM    5  C   UNL     1     -11.272   6.209  71.004  1.00  0.00    -0.361 A  
HETATM    6  C   UNL     1     -11.257   6.580  69.644  1.00  0.00    -0.446 A  
HETATM    7  C   UNL     1     -10.076   6.998  69.033  1.00  0.00    -0.182 A  
HETATM    8  C   UNL     1      -8.924   7.066  69.821  1.00  0.00    -0.141 A  
HETATM    9  C   UNL     1      -8.949   6.687  71.174  1.00  0.00    -0.145 A  
BRANCH   7  10
HETATM   10  C   UNL     1      -9.984   7.297  67.570  1.00  0.00    -0.218 C  
BRANCH  10  11
HETATM   11  C   UNL     1      -9.728   6.172  66.620  1.00  0.00    -0.196 A  
HETATM   12  C   UNL     1     -10.549   4.347  65.234  1.00  0.00    -0.181 A  
HETATM   13  C   UNL     1     -10.765   5.333  66.217  1.00  0.00    -0.260 A  
HETATM   14  C   UNL     1      -8.464   5.968  66.066  1.00  0.00    -0.139 A  
HETATM   15  C   UNL     1      -8.261   4.971  65.094  1.00  0.00    -0.131 A  
HETATM   16  C   UNL     1      -9.298   4.145  64.626  1.00  0.00    -0.163 A  
BRANCH  16  17
HETATM   17  N   UNL     1      -9.113   3.227  63.604  1.00  0.00    -0.095 NA 
HETATM   18  C   UNL     1     -10.216   2.452  63.034  1.00  0.00    -0.122 C  
HETATM   19  C   UNL     1      -7.791   2.799  63.151  1.00  0.00    -0.068 C  
ENDBRANCH  16  17
ENDBRANCH  10  11
BRANCH  10  20
HETATM   20  C   UNL     1     -10.030   8.578  67.090  1.00  0.00    -0.304 A  
HETATM   21  C   UNL     1      -9.674  10.142  65.233  1.00  0.00    -0.365 A  
HETATM   22  C   UNL     1     -10.986  10.844  67.266  1.00  0.00    -0.355 A  
HETATM   23  C   UNL     1      -9.395   8.969  65.829  1.00  0.00    -0.302 A  
HETATM   24  C   UNL     1     -10.662   9.676  67.840  1.00  0.00    -0.302 A  
HETATM   25  C   UNL     1     -10.682  11.094  65.818  1.00  0.00    -0.188 A  
BRANCH  25  26
HETATM   26  N   UNL     1     -11.232  12.057  65.124  1.00  0.00    -0.318 NA 
HETATM   27  C   UNL     1     -10.955  12.296  63.663  1.00  0.00    -0.471 C  
HETATM   28  C   UNL     1     -12.240  13.034  65.653  1.00  0.00    -0.466 C  
ENDBRANCH  25  26
ENDBRANCH  10  20
ENDBRANCH   7  10
ENDBRANCH   2   4
TORSDOF 6
ENDMDL
MODEL       43
REMARK 921   NORMALIZED FREE ENERGY PREDICTED BY IDOCK:   -4.96 KCAL/MOL
REMARK 922        TOTAL FREE ENERGY PREDICTED BY IDOCK:   -8.14 KCAL/MOL
REMARK 923 INTER-LIGAND FREE ENERGY PREDICTED BY IDOCK:   -6.43 KCAL/MOL
REMARK 924 INTRA-LIGAND FREE ENERGY PREDICTED BY IDOCK:   -1.71 KCAL/MOL
REMARK 927      BINDING AFFINITY PREDICTED BY RF-SCORE:    0.00 PKD
ROOT
HETATM    1  C   UNL     1      -6.069  17.293  69.803  1.00  0.00    -0.231 C  
HETATM    2  N   UNL     1      -7.312  17.094  69.061  1.00  0.00    -0.240 NA 
HETATM    3  C   UNL     1      -7.823  18.260  68.339  1.00  0.00    -0.305 C  
ENDROOT
BRANCH   2   4
HETATM    4  C   UNL     1      -7.734  15.813  68.706  1.00  0.00    -0.177 A  
HETATM    5  C   UNL     1      -8.874  15.576  67.913  1.00  0.00    -0.171 A  
HETATM    6  C   UNL     1      -9.324  14.278  67.598  1.00  0.00    -0.201 A  
HETATM    7  C   UNL     1      -8.634  13.155  68.051  1.00  0.00    -0.182 A  
HETATM    8  C   UNL     1      -7.470  13.363  68.796  1.00  0.00    -0.061 A  
HETATM    9  C   UNL     1      -7.034  14.662  69.110  1.00  0.00    -0.134 A  
BRANCH   7  10
HETATM   10  C   UNL     1      -9.130  11.760  67.837  1.00  0.00    -0.181 C  
BRANCH  10  11
HETATM   11  C   UNL     1      -9.880  11.086  68.940  1.00  0.00    -0.189 A  
HETATM   12  C   UNL     1     -11.923  10.778  70.228  1.00  0.00    -0.438 A  
HETATM   13  C   UNL     1     -11.173  11.488  69.269  1.00  0.00    -0.336 A  
HETATM   14  C   UNL     1      -9.334  10.000  69.627  1.00  0.00    -0.242 A  
HETATM   15  C   UNL     1     -10.091   9.310  70.591  1.00  0.00    -0.339 A  
HETATM   16  C   UNL     1     -11.417   9.656  70.905  1.00  0.00    -0.353 A  
BRANCH  16  17
HETATM   17  N   UNL     1     -12.188   8.917  71.789  1.00  0.00    -0.335 NA 
HETATM   18  C   UNL     1     -11.746   7.632  72.334  1.00  0.00    -0.317 C  
HETATM   19  C   UNL     1     -13.580   9.242  72.092  1.00  0.00    -0.471 C  
ENDBRANCH  16  17
ENDBRANCH  10  11
BRANCH  10  20
HETATM   20  C   UNL     1      -8.833  11.053  66.703  1.00  0.00    -0.168 A  
HETATM   21  C   UNL     1      -7.169   9.884  65.330  1.00  0.00    -0.125 A  
HETATM   22  C   UNL     1      -9.631   9.618  64.864  1.00  0.00    -0.244 A  
HETATM   23  C   UNL     1      -7.455  10.798  66.274  1.00  0.00    -0.138 A  
HETATM   24  C   UNL     1      -9.875  10.556  65.791  1.00  0.00    -0.295 A  
HETATM   25  C   UNL     1      -8.251   9.052  64.696  1.00  0.00    -0.160 A  
BRANCH  25  26
HETATM   26  N   UNL     1      -8.003   7.944  64.047  1.00  0.00    -0.142 NA 
HETATM   27  C   UNL     1      -7.807   7.875  62.556  1.00  0.00    -0.141 C  
HETATM   28  C   UNL     1      -7.835   6.594  64.680  1.00  0.00    -0.116 C  
ENDBRANCH  25  26
ENDBRANCH  10  20
ENDBRANCH   7  10
ENDBRANCH   2   4
TORSDOF 6
ENDMDL
MODEL       44
REMARK 921   NORMALIZED FREE ENERGY PREDICTED BY IDOCK:   -4.93 KCAL/MOL
REMARK 922        TOTAL FREE ENERGY PREDICTED BY IDOCK:   -8.09 KCAL/MOL
REMARK 923 INTER-LIGAND FREE ENERGY PREDICTED BY IDOCK:   -6.54 KCAL/MOL
REMARK 924 INTRA-LIGAND FREE ENERGY PREDICTED BY IDOCK:   -1.55 KCAL/MOL
REMARK 927      BINDING AFFINITY PREDICTED BY RF-SCORE:    0.00 PKD
ROOT
HETATM    1  C   UNL     1     -11.658   5.482  72.587  1.00  0.00    -0.232 C  
HETATM    2  N   UNL     1     -11.004   6.785  72.693  1.00  0.00    -0.246 NA 
HETATM    3  C   UNL     1     -10.136   6.977  73.855  1.00  0.00    -0.348 C  
ENDROOT
BRANCH   2   4
HETATM    4  C   UNL     1     -10.864   7.605  71.573  1.00  0.00    -0.227 A  
HETATM    5  C   UNL     1     -11.057   7.139  70.257  1.00  0.00    -0.303 A  
HETATM    6  C   UNL     1     -10.866   7.958  69.126  1.00  0.00    -0.054 A  
HETATM    7  C   UNL     1     -10.493   9.293  69.267  1.00  0.00    -0.228 A  
HETATM    8  C   UNL     1     -10.347   9.794  70.564  1.00  0.00    -0.348 A  
HETATM    9  C   UNL     1     -10.532   8.967  71.685  1.00  0.00    -0.408 A  
BRANCH   7  10
HETATM   10  C   UNL     1     -10.174  10.172  68.100  1.00  0.00    -0.200 C  
BRANCH  10  11
HETATM   11  C   UNL     1      -9.489   9.573  66.914  1.00  0.00    -0.204 A  
HETATM   12  C   UNL     1      -9.215   9.384  64.502  1.00  0.00    -0.155 A  
HETATM   13  C   UNL     1      -9.930   9.853  65.623  1.00  0.00    -0.353 A  
HETATM   14  C   UNL     1      -8.357   8.771  67.062  1.00  0.00    -0.103 A  
HETATM   15  C   UNL     1      -7.661   8.299  65.934  1.00  0.00    -0.087 A  
HETATM   16  C   UNL     1      -8.048   8.610  64.619  1.00  0.00    -0.156 A  
BRANCH  16  17
HETATM   17  N   UNL     1      -7.308   8.218  63.515  1.00  0.00    -0.103 NA 
HETATM   18  C   UNL     1      -7.658   7.049  62.707  1.00  0.00    -0.101 C  
HETATM   19  C   UNL     1      -6.011   8.803  63.180  1.00  0.00    -0.085 C  
ENDBRANCH  16  17
ENDBRANCH  10  11
BRANCH  10  20
HETATM   20  C   UNL     1     -10.401  11.522  68.127  1.00  0.00    -0.211 A  
HETATM   21  C   UNL     1     -11.957  13.385  68.485  1.00  0.00    -0.363 A  
HETATM   22  C   UNL     1      -9.474  13.794  68.365  1.00  0.00    -0.198 A  
HETATM   23  C   UNL     1     -11.750  12.091  68.182  1.00  0.00    -0.398 A  
HETATM   24  C   UNL     1      -9.310  12.505  68.034  1.00  0.00    -0.205 A  
HETATM   25  C   UNL     1     -10.811  14.301  68.820  1.00  0.00    -0.253 A  
BRANCH  25  26
HETATM   26  N   UNL     1     -10.974  15.441  69.441  1.00  0.00    -0.257 NA 
HETATM   27  C   UNL     1     -11.554  15.561  70.826  1.00  0.00    -0.367 C  
HETATM   28  C   UNL     1     -10.577  16.782  68.900  1.00  0.00    -0.350 C  
ENDBRANCH  25  26
ENDBRANCH  10  20
ENDBRANCH   7  10
ENDBRANCH   2   4
TORSDOF 6
ENDMDL
MODEL       45
REMARK 921   NORMALIZED FREE ENERGY PREDICTED BY IDOCK:   -4.92 KCAL/MOL
REMARK 922        TOTAL FREE ENERGY PREDICTED BY IDOCK:   -8.08 KCAL/MOL
REMARK 923 INTER-LIGAND FREE ENERGY PREDICTED BY IDOCK:   -6.42 KCAL/MOL
REMARK 924 INTRA-LIGAND FREE ENERGY PREDICTED BY IDOCK:   -1.66 KCAL/MOL
REMARK 927      BINDING AFFINITY PREDICTED BY RF-SCORE:    0.00 PKD
ROOT
HETATM    1  C   UNL     1     -10.741  16.318  67.742  1.00  0.00    -0.325 C  
HETATM    2  N   UNL     1     -10.834  15.297  66.699  1.00  0.00    -0.311 NA 
HETATM    3  C   UNL     1     -10.748  15.778  65.320  1.00  0.00    -0.428 C  
ENDROOT
BRANCH   2   4
HETATM    4  C   UNL     1     -10.579  13.957  66.989  1.00  0.00    -0.279 A  
HETATM    5  C   UNL     1     -11.547  12.945  66.835  1.00  0.00    -0.425 A  
HETATM    6  C   UNL     1     -11.301  11.599  67.176  1.00  0.00    -0.373 A  
HETATM    7  C   UNL     1     -10.059  11.205  67.670  1.00  0.00    -0.203 A  
HETATM    8  C   UNL     1      -9.065  12.180  67.784  1.00  0.00    -0.189 A  
HETATM    9  C   UNL     1      -9.323  13.520  67.447  1.00  0.00    -0.228 A  
BRANCH   7  10
HETATM   10  C   UNL     1      -9.783   9.814  68.148  1.00  0.00    -0.163 C  
BRANCH  10  11
HETATM   11  C   UNL     1      -9.448   8.762  67.141  1.00  0.00    -0.208 A  
HETATM   12  C   UNL     1      -8.131   7.995  65.243  1.00  0.00    -0.138 A  
HETATM   13  C   UNL     1      -8.536   9.020  66.120  1.00  0.00    -0.135 A  
HETATM   14  C   UNL     1      -9.987   7.478  67.231  1.00  0.00    -0.273 A  
HETATM   15  C   UNL     1      -9.584   6.468  66.339  1.00  0.00    -0.151 A  
HETATM   16  C   UNL     1      -8.624   6.682  65.334  1.00  0.00    -0.056 A  
BRANCH  16  17
HETATM   17  N   UNL     1      -8.163   5.662  64.517  1.00  0.00    -0.128 NA 
HETATM   18  C   UNL     1      -7.495   4.472  65.046  1.00  0.00    -0.073 C  
HETATM   19  C   UNL     1      -8.114   5.771  63.060  1.00  0.00    -0.107 C  
ENDBRANCH  16  17
ENDBRANCH  10  11
BRANCH  10  20
HETATM   20  C   UNL     1      -9.923   9.461  69.463  1.00  0.00    -0.200 A  
HETATM   21  C   UNL     1     -11.364   8.672  71.285  1.00  0.00    -0.341 A  
HETATM   22  C   UNL     1      -8.858   8.669  71.541  1.00  0.00    -0.285 A  
HETATM   23  C   UNL     1     -11.234   9.279  70.093  1.00  0.00    -0.237 A  
HETATM   24  C   UNL     1      -8.769   9.303  70.362  1.00  0.00    -0.263 A  
HETATM   25  C   UNL     1     -10.170   8.115  72.012  1.00  0.00    -0.249 A  
BRANCH  25  26
HETATM   26  N   UNL     1     -10.275   7.236  72.976  1.00  0.00    -0.237 NA 
HETATM   27  C   UNL     1     -11.284   6.118  72.979  1.00  0.00    -0.172 C  
HETATM   28  C   UNL     1      -9.394   7.177  74.188  1.00  0.00    -0.242 C  
ENDBRANCH  25  26
ENDBRANCH  10  20
ENDBRANCH   7  10
ENDBRANCH   2   4
TORSDOF 6
ENDMDL
MODEL       46
REMARK 921   NORMALIZED FREE ENERGY PREDICTED BY IDOCK:   -4.80 KCAL/MOL
REMARK 922        TOTAL FREE ENERGY PREDICTED BY IDOCK:   -7.91 KCAL/MOL
REMARK 923 INTER-LIGAND FREE ENERGY PREDICTED BY IDOCK:   -6.15 KCAL/MOL
REMARK 924 INTRA-LIGAND FREE ENERGY PREDICTED BY IDOCK:   -1.76 KCAL/MOL
REMARK 927      BINDING AFFINITY PREDICTED BY RF-SCORE:    0.00 PKD
ROOT
HETATM    1  C   UNL     1      -7.338  18.647  68.458  1.00  0.00    -0.295 C  
HETATM    2  N   UNL     1      -6.654  17.401  68.800  1.00  0.00    -0.196 NA 
HETATM    3  C   UNL     1      -5.685  17.480  69.894  1.00  0.00    -0.250 C  
ENDROOT
BRANCH   2   4
HETATM    4  C   UNL     1      -7.189  16.168  68.428  1.00  0.00    -0.135 A  
HETATM    5  C   UNL     1      -8.010  16.003  67.294  1.00  0.00    -0.207 A  
HETATM    6  C   UNL     1      -8.589  14.765  66.949  1.00  0.00    -0.254 A  
HETATM    7  C   UNL     1      -8.351  13.628  67.719  1.00  0.00    -0.181 A  
HETATM    8  C   UNL     1      -7.497  13.754  68.818  1.00  0.00    -0.098 A  
HETATM    9  C   UNL     1      -6.931  14.994  69.157  1.00  0.00    -0.139 A  
BRANCH   7  10
HETATM   10  C   UNL     1      -9.026  12.319  67.458  1.00  0.00    -0.180 C  
BRANCH  10  11
HETATM   11  C   UNL     1     -10.021  11.812  68.453  1.00  0.00    -0.202 A  
HETATM   12  C   UNL     1     -10.704  10.161  70.106  1.00  0.00    -0.355 A  
HETATM   13  C   UNL     1      -9.831  10.585  69.085  1.00  0.00    -0.233 A  
HETATM   14  C   UNL     1     -11.128  12.577  68.821  1.00  0.00    -0.314 A  
HETATM   15  C   UNL     1     -11.999  12.134  69.834  1.00  0.00    -0.380 A  
HETATM   16  C   UNL     1     -11.803  10.928  70.529  1.00  0.00    -0.360 A  
BRANCH  16  17
HETATM   17  N   UNL     1     -12.611  10.540  71.586  1.00  0.00    -0.407 NA 
HETATM   18  C   UNL     1     -12.626   9.172  72.104  1.00  0.00    -0.381 C  
HETATM   19  C   UNL     1     -13.659  11.395  72.140  1.00  0.00     0.021 C  
ENDBRANCH  16  17
ENDBRANCH  10  11
BRANCH  10  20
HETATM   20  C   UNL     1      -8.689  11.531  66.391  1.00  0.00    -0.179 A  
HETATM   21  C   UNL     1      -7.120   9.955  65.355  1.00  0.00    -0.121 A  
HETATM   22  C   UNL     1      -9.426  10.285  64.396  1.00  0.00    -0.360 A  
HETATM   23  C   UNL     1      -7.358  10.936  66.243  1.00  0.00    -0.127 A  
HETATM   24  C   UNL     1      -9.615  11.279  65.276  1.00  0.00    -0.265 A  
HETATM   25  C   UNL     1      -8.222   9.395  64.496  1.00  0.00    -0.147 A  
BRANCH  25  26
HETATM   26  N   UNL     1      -8.127   8.243  63.885  1.00  0.00    -0.147 NA 
HETATM   27  C   UNL     1      -7.959   6.929  64.602  1.00  0.00    -0.112 C  
HETATM   28  C   UNL     1      -8.214   8.044  62.401  1.00  0.00    -0.150 C  
ENDBRANCH  25  26
ENDBRANCH  10  20
ENDBRANCH   7  10
ENDBRANCH   2   4
TORSDOF 6
ENDMDL
MODEL       47
REMARK 921   NORMALIZED FREE ENERGY PREDICTED BY IDOCK:   -4.79 KCAL/MOL
REMARK 922        TOTAL FREE ENERGY PREDICTED BY IDOCK:   -7.90 KCAL/MOL
REMARK 923 INTER-LIGAND FREE ENERGY PREDICTED BY IDOCK:   -6.42 KCAL/MOL
REMARK 924 INTRA-LIGAND FREE ENERGY PREDICTED BY IDOCK:   -1.49 KCAL/MOL
REMARK 927      BINDING AFFINITY PREDICTED BY RF-SCORE:    0.00 PKD
ROOT
HETATM    1  C   UNL     1      -9.507   6.812  74.080  1.00  0.00    -0.239 C  
HETATM    2  N   UNL     1      -8.505   7.141  73.068  1.00  0.00    -0.118 NA 
HETATM    3  C   UNL     1      -7.132   6.732  73.366  1.00  0.00    -0.075 C  
ENDROOT
BRANCH   2   4
HETATM    4  C   UNL     1      -8.883   7.416  71.754  1.00  0.00    -0.115 A  
HETATM    5  C   UNL     1     -10.159   7.104  71.245  1.00  0.00    -0.196 A  
HETATM    6  C   UNL     1     -10.520   7.338  69.903  1.00  0.00    -0.236 A  
HETATM    7  C   UNL     1      -9.618   7.919  69.013  1.00  0.00    -0.155 A  
HETATM    8  C   UNL     1      -8.363   8.286  69.506  1.00  0.00    -0.121 A  
HETATM    9  C   UNL     1      -8.011   8.041  70.845  1.00  0.00    -0.094 A  
BRANCH   7  10
HETATM   10  C   UNL     1      -9.914   8.089  67.557  1.00  0.00    -0.253 C  
BRANCH  10  11
HETATM   11  C   UNL     1      -9.822   6.896  66.660  1.00  0.00    -0.217 A  
HETATM   12  C   UNL     1      -8.514   5.421  65.233  1.00  0.00    -0.149 A  
HETATM   13  C   UNL     1      -8.639   6.606  65.985  1.00  0.00    -0.152 A  
HETATM   14  C   UNL     1     -10.891   6.011  66.524  1.00  0.00    -0.193 A  
HETATM   15  C   UNL     1     -10.755   4.837  65.760  1.00  0.00    -0.220 A  
HETATM   16  C   UNL     1      -9.558   4.488  65.112  1.00  0.00    -0.159 A  
BRANCH  16  17
HETATM   17  N   UNL     1      -9.401   3.288  64.436  1.00  0.00    -0.133 NA 
HETATM   18  C   UNL     1     -10.452   2.717  63.592  1.00  0.00    -0.189 C  
HETATM   19  C   UNL     1      -8.271   2.389  64.665  1.00  0.00    -0.086 C  
ENDBRANCH  16  17
ENDBRANCH  10  11
BRANCH  10  20
HETATM   20  C   UNL     1     -10.169   9.317  67.010  1.00  0.00    -0.331 A  
HETATM   21  C   UNL     1     -10.129  10.797  65.053  1.00  0.00    -0.377 A  
HETATM   22  C   UNL     1     -11.439  11.428  67.110  1.00  0.00    -0.268 A  
HETATM   23  C   UNL     1      -9.655   9.716  65.697  1.00  0.00    -0.338 A  
HETATM   24  C   UNL     1     -10.921  10.357  67.730  1.00  0.00    -0.369 A  
HETATM   25  C   UNL     1     -11.240  11.628  65.636  1.00  0.00    -0.214 A  
BRANCH  25  26
HETATM   26  N   UNL     1     -11.954  12.457  64.920  1.00  0.00    -0.397 NA 
HETATM   27  C   UNL     1     -12.651  13.665  65.489  1.00  0.00    -0.496 C  
HETATM   28  C   UNL     1     -12.155  12.363  63.436  1.00  0.00    -0.524 C  
ENDBRANCH  25  26
ENDBRANCH  10  20
ENDBRANCH   7  10
ENDBRANCH   2   4
TORSDOF 6
ENDMDL
MODEL       48
REMARK 921   NORMALIZED FREE ENERGY PREDICTED BY IDOCK:   -4.79 KCAL/MOL
REMARK 922        TOTAL FREE ENERGY PREDICTED BY IDOCK:   -7.90 KCAL/MOL
REMARK 923 INTER-LIGAND FREE ENERGY PREDICTED BY IDOCK:   -6.19 KCAL/MOL
REMARK 924 INTRA-LIGAND FREE ENERGY PREDICTED BY IDOCK:   -1.71 KCAL/MOL
REMARK 927      BINDING AFFINITY PREDICTED BY RF-SCORE:    0.00 PKD
ROOT
HETATM    1  C   UNL     1     -10.415  18.249  66.323  1.00  0.00    -0.376 C  
HETATM    2  N   UNL     1      -9.200  17.560  66.756  1.00  0.00    -0.257 NA 
HETATM    3  C   UNL     1      -8.268  18.348  67.563  1.00  0.00    -0.248 C  
ENDROOT
BRANCH   2   4
HETATM    4  C   UNL     1      -9.141  16.167  66.781  1.00  0.00    -0.230 A  
HETATM    5  C   UNL     1      -9.993  15.353  66.009  1.00  0.00    -0.350 A  
HETATM    6  C   UNL     1      -9.964  13.945  66.074  1.00  0.00    -0.325 A  
HETATM    7  C   UNL     1      -9.057  13.289  66.905  1.00  0.00    -0.235 A  
HETATM    8  C   UNL     1      -8.165  14.073  67.641  1.00  0.00    -0.185 A  
HETATM    9  C   UNL     1      -8.208  15.476  67.574  1.00  0.00    -0.182 A  
BRANCH   7  10
HETATM   10  C   UNL     1      -9.058  11.805  67.091  1.00  0.00    -0.175 C  
BRANCH  10  11
HETATM   11  C   UNL     1      -8.614  10.937  65.957  1.00  0.00    -0.179 A  
HETATM   12  C   UNL     1      -6.855   9.741  64.775  1.00  0.00    -0.122 A  
HETATM   13  C   UNL     1      -7.264  10.651  65.770  1.00  0.00    -0.104 A  
HETATM   14  C   UNL     1      -9.538  10.343  65.098  1.00  0.00    -0.329 A  
HETATM   15  C   UNL     1      -9.113   9.446  64.100  1.00  0.00    -0.132 A  
HETATM   16  C   UNL     1      -7.764   9.094  63.921  1.00  0.00    -0.122 A  
BRANCH  16  17
HETATM   17  N   UNL     1      -7.361   8.142  62.998  1.00  0.00    -0.097 NA 
HETATM   18  C   UNL     1      -8.302   7.225  62.352  1.00  0.00    -0.013 C  
HETATM   19  C   UNL     1      -5.957   7.828  62.741  1.00  0.00    -0.067 C  
ENDBRANCH  16  17
ENDBRANCH  10  11
BRANCH  10  20
HETATM   20  C   UNL     1      -9.545  11.219  68.229  1.00  0.00    -0.193 A  
HETATM   21  C   UNL     1     -11.473  10.555  69.592  1.00  0.00    -0.349 A  
HETATM   22  C   UNL     1      -9.176   9.650  70.094  1.00  0.00    -0.287 A  
HETATM   23  C   UNL     1     -10.944  11.346  68.642  1.00  0.00    -0.267 A  
HETATM   24  C   UNL     1      -8.681  10.476  69.160  1.00  0.00    -0.155 A  
HETATM   25  C   UNL     1     -10.658   9.474  70.250  1.00  0.00    -0.266 A  
BRANCH  25  26
HETATM   26  N   UNL     1     -11.199   8.481  70.908  1.00  0.00    -0.261 NA 
HETATM   27  C   UNL     1     -11.305   7.081  70.365  1.00  0.00    -0.310 C  
HETATM   28  C   UNL     1     -11.752   8.568  72.299  1.00  0.00    -0.373 C  
ENDBRANCH  25  26
ENDBRANCH  10  20
ENDBRANCH   7  10
ENDBRANCH   2   4
TORSDOF 6
ENDMDL
MODEL       49
REMARK 921   NORMALIZED FREE ENERGY PREDICTED BY IDOCK:   -4.72 KCAL/MOL
REMARK 922        TOTAL FREE ENERGY PREDICTED BY IDOCK:   -7.81 KCAL/MOL
REMARK 923 INTER-LIGAND FREE ENERGY PREDICTED BY IDOCK:   -6.28 KCAL/MOL
REMARK 924 INTRA-LIGAND FREE ENERGY PREDICTED BY IDOCK:   -1.53 KCAL/MOL
REMARK 927      BINDING AFFINITY PREDICTED BY RF-SCORE:    0.00 PKD
ROOT
HETATM    1  C   UNL     1     -11.317   4.654  73.293  1.00  0.00    -0.304 C  
HETATM    2  N   UNL     1     -10.697   5.975  73.396  1.00  0.00    -0.262 NA 
HETATM    3  C   UNL     1      -9.832   6.189  74.556  1.00  0.00    -0.309 C  
ENDROOT
BRANCH   2   4
HETATM    4  C   UNL     1     -10.582   6.797  72.276  1.00  0.00    -0.213 A  
HETATM    5  C   UNL     1     -11.261   6.542  71.068  1.00  0.00    -0.362 A  
HETATM    6  C   UNL     1     -11.103   7.348  69.922  1.00  0.00    -0.208 A  
HETATM    7  C   UNL     1     -10.268   8.464  69.946  1.00  0.00    -0.201 A  
HETATM    8  C   UNL     1      -9.624   8.769  71.148  1.00  0.00    -0.309 A  
HETATM    9  C   UNL     1      -9.783   7.954  72.282  1.00  0.00    -0.269 A  
BRANCH   7  10
HETATM   10  C   UNL     1      -9.983   9.287  68.730  1.00  0.00    -0.193 C  
BRANCH  10  11
HETATM   11  C   UNL     1      -9.246   8.657  67.592  1.00  0.00    -0.148 A  
HETATM   12  C   UNL     1      -7.739   6.947  66.737  1.00  0.00    -0.102 A  
HETATM   13  C   UNL     1      -8.345   7.619  67.817  1.00  0.00    -0.118 A  
HETATM   14  C   UNL     1      -9.485   9.045  66.273  1.00  0.00    -0.306 A  
HETATM   15  C   UNL     1      -8.862   8.373  65.205  1.00  0.00    -0.113 A  
HETATM   16  C   UNL     1      -7.992   7.286  65.397  1.00  0.00    -0.125 A  
BRANCH  16  17
HETATM   17  N   UNL     1      -7.453   6.570  64.340  1.00  0.00    -0.083 NA 
HETATM   18  C   UNL     1      -6.345   5.629  64.510  1.00  0.00    -0.033 C  
HETATM   19  C   UNL     1      -7.795   6.837  62.944  1.00  0.00    -0.108 C  
ENDBRANCH  16  17
ENDBRANCH  10  11
BRANCH  10  20
HETATM   20  C   UNL     1     -10.289  10.620  68.671  1.00  0.00    -0.202 A  
HETATM   21  C   UNL     1      -9.629  12.904  68.065  1.00  0.00    -0.221 A  
HETATM   22  C   UNL     1     -12.030  12.364  68.604  1.00  0.00    -0.272 A  
HETATM   23  C   UNL     1      -9.282  11.647  68.392  1.00  0.00    -0.182 A  
HETATM   24  C   UNL     1     -11.641  11.128  68.952  1.00  0.00    -0.385 A  
HETATM   25  C   UNL     1     -11.073  13.305  67.933  1.00  0.00    -0.262 A  
BRANCH  25  26
HETATM   26  N   UNL     1     -11.452  14.385  67.299  1.00  0.00    -0.342 NA 
HETATM   27  C   UNL     1     -11.124  15.781  67.758  1.00  0.00    -0.313 C  
HETATM   28  C   UNL     1     -12.224  14.403  66.013  1.00  0.00    -0.336 C  
ENDBRANCH  25  26
ENDBRANCH  10  20
ENDBRANCH   7  10
ENDBRANCH   2   4
TORSDOF 6
ENDMDL
MODEL       50
REMARK 921   NORMALIZED FREE ENERGY PREDICTED BY IDOCK:   -4.72 KCAL/MOL
REMARK 922        TOTAL FREE ENERGY PREDICTED BY IDOCK:   -7.81 KCAL/MOL
REMARK 923 INTER-LIGAND FREE ENERGY PREDICTED BY IDOCK:   -6.57 KCAL/MOL
REMARK 924 INTRA-LIGAND FREE ENERGY PREDICTED BY IDOCK:   -1.24 KCAL/MOL
REMARK 927      BINDING AFFINITY PREDICTED BY RF-SCORE:    0.00 PKD
ROOT
HETATM    1  C   UNL     1      -7.217  20.045  65.954  1.00  0.00    -0.309 C  
HETATM    2  N   UNL     1      -8.614  19.688  66.193  1.00  0.00    -0.358 NA 
HETATM    3  C   UNL     1      -9.614  20.591  65.622  1.00  0.00     0.345 C  
ENDROOT
BRANCH   2   4
HETATM    4  C   UNL     1      -8.968  18.386  66.544  1.00  0.00    -0.286 A  
HETATM    5  C   UNL     1     -10.257  18.039  66.994  1.00  0.00    -0.367 A  
HETATM    6  C   UNL     1     -10.597  16.731  67.394  1.00  0.00    -0.291 A  
HETATM    7  C   UNL     1      -9.657  15.703  67.340  1.00  0.00    -0.217 A  
HETATM    8  C   UNL     1      -8.386  16.009  66.847  1.00  0.00    -0.278 A  
HETATM    9  C   UNL     1      -8.056  17.319  66.458  1.00  0.00    -0.313 A  
BRANCH   7  10
HETATM   10  C   UNL     1      -9.934  14.326  67.854  1.00  0.00    -0.230 C  
BRANCH  10  11
HETATM   11  C   UNL     1      -9.543  13.153  67.014  1.00  0.00    -0.241 A  
HETATM   12  C   UNL     1      -8.337  11.056  66.742  1.00  0.00    -0.147 A  
HETATM   13  C   UNL     1      -8.618  12.222  67.481  1.00  0.00    -0.174 A  
HETATM   14  C   UNL     1     -10.137  12.924  65.772  1.00  0.00    -0.294 A  
HETATM   15  C   UNL     1      -9.836  11.761  65.039  1.00  0.00    -0.257 A  
HETATM   16  C   UNL     1      -8.950  10.776  65.508  1.00  0.00    -0.193 A  
BRANCH  16  17
HETATM   17  N   UNL     1      -8.727   9.591  64.825  1.00  0.00    -0.185 NA 
HETATM   18  C   UNL     1      -8.597   8.302  65.508  1.00  0.00    -0.159 C  
HETATM   19  C   UNL     1      -8.398   9.544  63.402  1.00  0.00    -0.179 C  
ENDBRANCH  16  17
ENDBRANCH  10  11
BRANCH  10  20
HETATM   20  C   UNL     1     -10.620  14.114  69.020  1.00  0.00    -0.227 A  
HETATM   21  C   UNL     1     -11.548  15.011  71.106  1.00  0.00    -0.377 A  
HETATM   22  C   UNL     1     -12.225  12.729  70.279  1.00  0.00    -0.351 A  
HETATM   23  C   UNL     1     -10.662  15.104  70.098  1.00  0.00    -0.245 A  
HETATM   24  C   UNL     1     -11.309  12.845  69.306  1.00  0.00    -0.303 A  
HETATM   25  C   UNL     1     -12.564  13.902  71.151  1.00  0.00    -0.370 A  
BRANCH  25  26
HETATM   26  N   UNL     1     -13.639  13.957  71.896  1.00  0.00    -0.401 NA 
HETATM   27  C   UNL     1     -14.317  15.243  72.288  1.00  0.00    -0.494 C  
HETATM   28  C   UNL     1     -14.378  12.767  72.431  1.00  0.00     0.327 C  
ENDBRANCH  25  26
ENDBRANCH  10  20
ENDBRANCH   7  10
ENDBRANCH   2   4
TORSDOF 6
ENDMDL
MODEL       51
REMARK 921   NORMALIZED FREE ENERGY PREDICTED BY IDOCK:   -4.72 KCAL/MOL
REMARK 922        TOTAL FREE ENERGY PREDICTED BY IDOCK:   -7.81 KCAL/MOL
REMARK 923 INTER-LIGAND FREE ENERGY PREDICTED BY IDOCK:   -6.22 KCAL/MOL
REMARK 924 INTRA-LIGAND FREE ENERGY PREDICTED BY IDOCK:   -1.59 KCAL/MOL
REMARK 927      BINDING AFFINITY PREDICTED BY RF-SCORE:    0.00 PKD
ROOT
HETATM    1  C   UNL     1      -7.223  10.111  64.045  1.00  0.00    -0.106 C  
HETATM    2  N   UNL     1      -8.190  10.035  65.140  1.00  0.00    -0.140 NA 
HETATM    3  C   UNL     1      -8.391   8.711  65.728  1.00  0.00    -0.144 C  
ENDROOT
BRANCH   2   4
HETATM    4  C   UNL     1      -8.553  11.179  65.851  1.00  0.00    -0.135 A  
HETATM    5  C   UNL     1      -9.523  12.090  65.388  1.00  0.00    -0.080 A  
HETATM    6  C   UNL     1      -9.852  13.270  66.085  1.00  0.00    -0.286 A  
HETATM    7  C   UNL     1      -9.233  13.578  67.295  1.00  0.00    -0.233 A  
HETATM    8  C   UNL     1      -8.305  12.665  67.802  1.00  0.00    -0.172 A  
HETATM    9  C   UNL     1      -7.979  11.495  67.095  1.00  0.00    -0.160 A  
BRANCH   7  10
HETATM   10  C   UNL     1      -9.466  14.867  68.018  1.00  0.00    -0.198 C  
BRANCH  10  11
HETATM   11  C   UNL     1     -10.573  14.939  69.020  1.00  0.00    -0.245 A  
HETATM   12  C   UNL     1     -12.673  14.095  69.914  1.00  0.00    -0.077 A  
HETATM   13  C   UNL     1     -11.687  14.110  68.908  1.00  0.00    -0.369 A  
HETATM   14  C   UNL     1     -10.494  15.790  70.123  1.00  0.00    -0.288 A  
HETATM   15  C   UNL     1     -11.494  15.773  71.113  1.00  0.00    -0.466 A  
HETATM   16  C   UNL     1     -12.602  14.908  71.057  1.00  0.00    -0.336 A  
BRANCH  16  17
HETATM   17  N   UNL     1     -13.535  14.831  72.079  1.00  0.00    -0.346 NA 
HETATM   18  C   UNL     1     -13.741  15.914  73.041  1.00  0.00    -0.481 C  
HETATM   19  C   UNL     1     -14.244  13.597  72.415  1.00  0.00    -0.383 C  
ENDBRANCH  16  17
ENDBRANCH  10  11
BRANCH  10  20
HETATM   20  C   UNL     1      -8.761  16.002  67.718  1.00  0.00    -0.170 A  
HETATM   21  C   UNL     1      -6.623  17.203  67.693  1.00  0.00    -0.164 A  
HETATM   22  C   UNL     1      -8.592  18.065  66.379  1.00  0.00    -0.253 A  
HETATM   23  C   UNL     1      -7.401  16.235  68.208  1.00  0.00    -0.146 A  
HETATM   24  C   UNL     1      -9.344  17.105  66.937  1.00  0.00    -0.260 A  
HETATM   25  C   UNL     1      -7.103  18.070  66.560  1.00  0.00    -0.228 A  
BRANCH  25  26
HETATM   26  N   UNL     1      -6.290  18.771  65.812  1.00  0.00    -0.220 NA 
HETATM   27  C   UNL     1      -5.610  18.229  64.583  1.00  0.00     0.044 C  
HETATM   28  C   UNL     1      -5.947  20.215  66.030  1.00  0.00    -0.178 C  
ENDBRANCH  25  26
ENDBRANCH  10  20
ENDBRANCH   7  10
ENDBRANCH   2   4
TORSDOF 6
ENDMDL
MODEL       52
REMARK 921   NORMALIZED FREE ENERGY PREDICTED BY IDOCK:   -4.72 KCAL/MOL
REMARK 922        TOTAL FREE ENERGY PREDICTED BY IDOCK:   -7.80 KCAL/MOL
REMARK 923 INTER-LIGAND FREE ENERGY PREDICTED BY IDOCK:   -6.26 KCAL/MOL
REMARK 924 INTRA-LIGAND FREE ENERGY PREDICTED BY IDOCK:   -1.54 KCAL/MOL
REMARK 927      BINDING AFFINITY PREDICTED BY RF-SCORE:    0.00 PKD
ROOT
HETATM    1  C   UNL     1      -5.435   5.904  65.187  1.00  0.00    -0.016 C  
HETATM    2  N   UNL     1      -5.871   7.209  64.692  1.00  0.00    -0.036 NA 
HETATM    3  C   UNL     1      -5.654   7.460  63.267  1.00  0.00    -0.045 C  
ENDROOT
BRANCH   2   4
HETATM    4  C   UNL     1      -6.804   7.964  65.402  1.00  0.00    -0.058 A  
HETATM    5  C   UNL     1      -8.193   7.743  65.312  1.00  0.00    -0.142 A  
HETATM    6  C   UNL     1      -9.135   8.541  65.992  1.00  0.00    -0.246 A  
HETATM    7  C   UNL     1      -8.721   9.587  66.814  1.00  0.00    -0.138 A  
HETATM    8  C   UNL     1      -7.347   9.794  66.963  1.00  0.00    -0.091 A  
HETATM    9  C   UNL     1      -6.416   8.997  66.273  1.00  0.00    -0.066 A  
BRANCH   7  10
HETATM   10  C   UNL     1      -9.680  10.529  67.471  1.00  0.00    -0.190 C  
BRANCH  10  11
HETATM   11  C   UNL     1      -9.909  11.870  66.852  1.00  0.00    -0.217 A  
HETATM   12  C   UNL     1     -11.241  13.354  65.456  1.00  0.00    -0.303 A  
HETATM   13  C   UNL     1     -10.952  12.067  65.949  1.00  0.00    -0.342 A  
HETATM   14  C   UNL     1      -9.129  12.971  67.206  1.00  0.00    -0.209 A  
HETATM   15  C   UNL     1      -9.422  14.249  66.695  1.00  0.00    -0.302 A  
HETATM   16  C   UNL     1     -10.501  14.490  65.826  1.00  0.00    -0.323 A  
BRANCH  16  17
HETATM   17  N   UNL     1     -10.840  15.764  65.398  1.00  0.00    -0.370 NA 
HETATM   18  C   UNL     1     -11.657  16.003  64.208  1.00  0.00    -0.138 C  
HETATM   19  C   UNL     1     -10.249  16.976  65.964  1.00  0.00    -0.325 C  
ENDBRANCH  16  17
ENDBRANCH  10  11
BRANCH  10  20
HETATM   20  C   UNL     1     -10.275  10.236  68.668  1.00  0.00    -0.196 A  
HETATM   21  C   UNL     1     -12.227  10.410  70.144  1.00  0.00    -0.305 A  
HETATM   22  C   UNL     1     -10.387   8.763  70.643  1.00  0.00    -0.253 A  
HETATM   23  C   UNL     1     -11.507  10.890  69.116  1.00  0.00    -0.373 A  
HETATM   24  C   UNL     1      -9.685   9.290  69.628  1.00  0.00    -0.192 A  
HETATM   25  C   UNL     1     -11.820   9.151  70.862  1.00  0.00    -0.270 A  
BRANCH  25  26
HETATM   26  N   UNL     1     -12.642   8.468  71.615  1.00  0.00    -0.321 NA 
HETATM   27  C   UNL     1     -12.469   7.005  71.927  1.00  0.00    -0.311 C  
HETATM   28  C   UNL     1     -13.844   9.033  72.313  1.00  0.00    -0.484 C  
ENDBRANCH  25  26
ENDBRANCH  10  20
ENDBRANCH   7  10
ENDBRANCH   2   4
TORSDOF 6
ENDMDL
MODEL       53
REMARK 921   NORMALIZED FREE ENERGY PREDICTED BY IDOCK:   -4.69 KCAL/MOL
REMARK 922        TOTAL FREE ENERGY PREDICTED BY IDOCK:   -7.77 KCAL/MOL
REMARK 923 INTER-LIGAND FREE ENERGY PREDICTED BY IDOCK:   -6.23 KCAL/MOL
REMARK 924 INTRA-LIGAND FREE ENERGY PREDICTED BY IDOCK:   -1.54 KCAL/MOL
REMARK 927      BINDING AFFINITY PREDICTED BY RF-SCORE:    0.00 PKD
ROOT
HETATM    1  C   UNL     1     -11.556  16.037  64.341  1.00  0.00    -0.212 C  
HETATM    2  N   UNL     1     -10.395  15.735  65.177  1.00  0.00    -0.485 NA 
HETATM    3  C   UNL     1      -9.836  16.859  65.930  1.00  0.00    -0.215 C  
ENDROOT
BRANCH   2   4
HETATM    4  C   UNL     1     -10.120  14.426  65.569  1.00  0.00    -0.356 A  
HETATM    5  C   UNL     1     -10.618  13.302  64.880  1.00  0.00    -0.381 A  
HETATM    6  C   UNL     1     -10.378  11.980  65.308  1.00  0.00    -0.311 A  
HETATM    7  C   UNL     1      -9.607  11.727  66.441  1.00  0.00    -0.234 A  
HETATM    8  C   UNL     1      -9.058  12.823  67.112  1.00  0.00    -0.219 A  
HETATM    9  C   UNL     1      -9.309  14.137  66.681  1.00  0.00    -0.299 A  
BRANCH   7  10
HETATM   10  C   UNL     1      -9.414  10.352  66.997  1.00  0.00    -0.189 C  
BRANCH  10  11
HETATM   11  C   UNL     1     -10.029  10.017  68.318  1.00  0.00    -0.173 A  
HETATM   12  C   UNL     1     -11.913  10.113  69.857  1.00  0.00    -0.156 A  
HETATM   13  C   UNL     1     -11.281  10.520  68.665  1.00  0.00    -0.328 A  
HETATM   14  C   UNL     1      -9.400   9.147  69.208  1.00  0.00    -0.157 A  
HETATM   15  C   UNL     1     -10.038   8.759  70.401  1.00  0.00    -0.223 A  
HETATM   16  C   UNL     1     -11.324   9.205  70.753  1.00  0.00    -0.280 A  
BRANCH  16  17
HETATM   17  N   UNL     1     -11.985   8.750  71.883  1.00  0.00    -0.339 NA 
HETATM   18  C   UNL     1     -13.244   9.333  72.347  1.00  0.00    -0.426 C  
HETATM   19  C   UNL     1     -11.391   7.799  72.822  1.00  0.00    -0.389 C  
ENDBRANCH  16  17
ENDBRANCH  10  11
BRANCH  10  20
HETATM   20  C   UNL     1      -8.612   9.429  66.381  1.00  0.00    -0.144 A  
HETATM   21  C   UNL     1      -8.382   7.260  65.259  1.00  0.00    -0.110 A  
HETATM   22  C   UNL     1      -6.524   8.958  65.158  1.00  0.00    -0.064 A  
HETATM   23  C   UNL     1      -9.060   8.063  66.097  1.00  0.00    -0.224 A  
HETATM   24  C   UNL     1      -7.215   9.718  66.020  1.00  0.00    -0.101 A  
HETATM   25  C   UNL     1      -7.150   7.741  64.542  1.00  0.00    -0.065 A  
BRANCH  25  26
HETATM   26  N   UNL     1      -6.666   7.141  63.485  1.00  0.00    -0.050 NA 
HETATM   27  C   UNL     1      -5.193   7.009  63.201  1.00  0.00    -0.032 C  
HETATM   28  C   UNL     1      -7.486   6.464  62.427  1.00  0.00    -0.066 C  
ENDBRANCH  25  26
ENDBRANCH  10  20
ENDBRANCH   7  10
ENDBRANCH   2   4
TORSDOF 6
ENDMDL
MODEL       54
REMARK 921   NORMALIZED FREE ENERGY PREDICTED BY IDOCK:   -4.67 KCAL/MOL
REMARK 922        TOTAL FREE ENERGY PREDICTED BY IDOCK:   -7.74 KCAL/MOL
REMARK 923 INTER-LIGAND FREE ENERGY PREDICTED BY IDOCK:   -6.50 KCAL/MOL
REMARK 924 INTRA-LIGAND FREE ENERGY PREDICTED BY IDOCK:   -1.24 KCAL/MOL
REMARK 927      BINDING AFFINITY PREDICTED BY RF-SCORE:    0.00 PKD
ROOT
HETATM    1  C   UNL     1      -5.323  18.255  65.436  1.00  0.00    -0.178 C  
HETATM    2  N   UNL     1      -6.611  18.319  66.126  1.00  0.00    -0.223 NA 
HETATM    3  C   UNL     1      -7.328  19.590  66.030  1.00  0.00    -0.295 C  
ENDROOT
BRANCH   2   4
HETATM    4  C   UNL     1      -7.297  17.153  66.463  1.00  0.00    -0.276 A  
HETATM    5  C   UNL     1      -8.601  16.875  66.006  1.00  0.00    -0.194 A  
HETATM    6  C   UNL     1      -9.311  15.719  66.389  1.00  0.00    -0.333 A  
HETATM    7  C   UNL     1      -8.731  14.775  67.235  1.00  0.00    -0.226 A  
HETATM    8  C   UNL     1      -7.418  15.000  67.659  1.00  0.00    -0.202 A  
HETATM    9  C   UNL     1      -6.723  16.160  67.277  1.00  0.00    -0.233 A  
BRANCH   7  10
HETATM   10  C   UNL     1      -9.478  13.588  67.756  1.00  0.00    -0.216 C  
BRANCH  10  11
HETATM   11  C   UNL     1      -9.009  12.220  67.379  1.00  0.00    -0.183 A  
HETATM   12  C   UNL     1      -8.735  10.463  65.716  1.00  0.00    -0.180 A  
HETATM   13  C   UNL     1      -9.276  11.702  66.113  1.00  0.00    -0.228 A  
HETATM   14  C   UNL     1      -8.242  11.452  68.255  1.00  0.00    -0.150 A  
HETATM   15  C   UNL     1      -7.719  10.210  67.849  1.00  0.00    -0.089 A  
HETATM   16  C   UNL     1      -7.924   9.686  66.561  1.00  0.00    -0.112 A  
BRANCH  16  17
HETATM   17  N   UNL     1      -7.332   8.507  66.136  1.00  0.00    -0.080 NA 
HETATM   18  C   UNL     1      -8.107   7.380  65.615  1.00  0.00    -0.129 C  
HETATM   19  C   UNL     1      -5.920   8.201  66.359  1.00  0.00    -0.041 C  
ENDBRANCH  16  17
ENDBRANCH  10  11
BRANCH  10  20
HETATM   20  C   UNL     1     -10.630  13.722  68.484  1.00  0.00    -0.261 A  
HETATM   21  C   UNL     1     -12.371  12.693  69.872  1.00  0.00    -0.126 A  
HETATM   22  C   UNL     1     -12.139  15.199  69.757  1.00  0.00    -0.354 A  
HETATM   23  C   UNL     1     -11.411  12.570  68.938  1.00  0.00    -0.355 A  
HETATM   24  C   UNL     1     -11.207  15.037  68.805  1.00  0.00    -0.288 A  
HETATM   25  C   UNL     1     -12.662  14.019  70.522  1.00  0.00    -0.280 A  
BRANCH  25  26
HETATM   26  N   UNL     1     -13.321  14.126  71.646  1.00  0.00    -0.345 NA 
HETATM   27  C   UNL     1     -13.764  15.441  72.231  1.00  0.00    -0.526 C  
HETATM   28  C   UNL     1     -13.772  12.975  72.495  1.00  0.00    -0.398 C  
ENDBRANCH  25  26
ENDBRANCH  10  20
ENDBRANCH   7  10
ENDBRANCH   2   4
TORSDOF 6
ENDMDL
MODEL       55
REMARK 921   NORMALIZED FREE ENERGY PREDICTED BY IDOCK:   -4.66 KCAL/MOL
REMARK 922        TOTAL FREE ENERGY PREDICTED BY IDOCK:   -7.73 KCAL/MOL
REMARK 923 INTER-LIGAND FREE ENERGY PREDICTED BY IDOCK:   -6.11 KCAL/MOL
REMARK 924 INTRA-LIGAND FREE ENERGY PREDICTED BY IDOCK:   -1.62 KCAL/MOL
REMARK 927      BINDING AFFINITY PREDICTED BY RF-SCORE:    0.00 PKD
ROOT
HETATM    1  C   UNL     1      -6.081   5.049  64.857  1.00  0.00    -0.029 C  
HETATM    2  N   UNL     1      -6.441   6.462  64.760  1.00  0.00    -0.034 NA 
HETATM    3  C   UNL     1      -6.285   7.075  63.440  1.00  0.00    -0.044 C  
ENDROOT
BRANCH   2   4
HETATM    4  C   UNL     1      -7.271   7.054  65.711  1.00  0.00    -0.073 A  
HETATM    5  C   UNL     1      -8.677   7.009  65.632  1.00  0.00    -0.082 A  
HETATM    6  C   UNL     1      -9.513   7.651  66.569  1.00  0.00    -0.250 A  
HETATM    7  C   UNL     1      -8.970   8.350  67.645  1.00  0.00    -0.141 A  
HETATM    8  C   UNL     1      -7.579   8.366  67.776  1.00  0.00    -0.102 A  
HETATM    9  C   UNL     1      -6.755   7.729  66.832  1.00  0.00    -0.067 A  
BRANCH   7  10
HETATM   10  C   UNL     1      -9.807   9.137  68.604  1.00  0.00    -0.175 C  
BRANCH  10  11
HETATM   11  C   UNL     1     -10.104  10.568  68.292  1.00  0.00    -0.180 A  
HETATM   12  C   UNL     1      -9.352  12.860  67.961  1.00  0.00    -0.213 A  
HETATM   13  C   UNL     1      -9.102  11.534  68.366  1.00  0.00    -0.185 A  
HETATM   14  C   UNL     1     -11.369  10.966  67.861  1.00  0.00    -0.380 A  
HETATM   15  C   UNL     1     -11.607  12.298  67.471  1.00  0.00    -0.422 A  
HETATM   16  C   UNL     1     -10.604  13.282  67.482  1.00  0.00    -0.246 A  
BRANCH  16  17
HETATM   17  N   UNL     1     -10.819  14.568  67.011  1.00  0.00    -0.292 NA 
HETATM   18  C   UNL     1     -11.021  15.709  67.906  1.00  0.00    -0.319 C  
HETATM   19  C   UNL     1     -11.070  14.867  65.603  1.00  0.00    -0.348 C  
ENDBRANCH  16  17
ENDBRANCH  10  11
BRANCH  10  20
HETATM   20  C   UNL     1     -10.223   8.613  69.798  1.00  0.00    -0.206 A  
HETATM   21  C   UNL     1     -11.432   6.861  71.018  1.00  0.00    -0.358 A  
HETATM   22  C   UNL     1      -9.888   8.438  72.234  1.00  0.00    -0.383 A  
HETATM   23  C   UNL     1     -11.232   7.555  69.884  1.00  0.00    -0.124 A  
HETATM   24  C   UNL     1      -9.738   9.123  71.090  1.00  0.00    -0.360 A  
HETATM   25  C   UNL     1     -10.599   7.116  72.245  1.00  0.00    -0.215 A  
BRANCH  25  26
HETATM   26  N   UNL     1     -10.515   6.264  73.234  1.00  0.00    -0.232 NA 
HETATM   27  C   UNL     1      -9.720   6.515  74.488  1.00  0.00    -0.309 C  
HETATM   28  C   UNL     1     -11.220   4.941  73.294  1.00  0.00    -0.345 C  
ENDBRANCH  25  26
ENDBRANCH  10  20
ENDBRANCH   7  10
ENDBRANCH   2   4
TORSDOF 6
ENDMDL
MODEL       56
REMARK 921   NORMALIZED FREE ENERGY PREDICTED BY IDOCK:   -4.58 KCAL/MOL
REMARK 922        TOTAL FREE ENERGY PREDICTED BY IDOCK:   -7.62 KCAL/MOL
REMARK 923 INTER-LIGAND FREE ENERGY PREDICTED BY IDOCK:   -6.10 KCAL/MOL
REMARK 924 INTRA-LIGAND FREE ENERGY PREDICTED BY IDOCK:   -1.52 KCAL/MOL
REMARK 927      BINDING AFFINITY PREDICTED BY RF-SCORE:    0.00 PKD
ROOT
HETATM    1  C   UNL     1      -6.202   9.518  63.332  1.00  0.00    -0.100 C  
HETATM    2  N   UNL     1      -6.869   8.362  63.929  1.00  0.00    -0.075 NA 
HETATM    3  C   UNL     1      -6.383   7.050  63.502  1.00  0.00    -0.044 C  
ENDROOT
BRANCH   2   4
HETATM    4  C   UNL     1      -7.590   8.489  65.115  1.00  0.00    -0.094 A  
HETATM    5  C   UNL     1      -8.721   7.701  65.410  1.00  0.00    -0.029 A  
HETATM    6  C   UNL     1      -9.476   7.866  66.589  1.00  0.00    -0.270 A  
HETATM    7  C   UNL     1      -9.114   8.820  67.539  1.00  0.00    -0.146 A  
HETATM    8  C   UNL     1      -7.966   9.578  67.295  1.00  0.00    -0.106 A  
HETATM    9  C   UNL     1      -7.225   9.411  66.113  1.00  0.00    -0.092 A  
BRANCH   7  10
HETATM   10  C   UNL     1      -9.942   9.108  68.751  1.00  0.00    -0.188 C  
BRANCH  10  11
HETATM   11  C   UNL     1      -9.977   8.100  69.854  1.00  0.00    -0.190 A  
HETATM   12  C   UNL     1      -9.084   7.214  71.938  1.00  0.00    -0.144 A  
HETATM   13  C   UNL     1      -8.989   8.086  70.835  1.00  0.00    -0.150 A  
HETATM   14  C   UNL     1     -11.029   7.190  69.967  1.00  0.00    -0.287 A  
HETATM   15  C   UNL     1     -11.104   6.316  71.068  1.00  0.00    -0.357 A  
HETATM   16  C   UNL     1     -10.152   6.316  72.102  1.00  0.00    -0.182 A  
BRANCH  16  17
HETATM   17  N   UNL     1     -10.279   5.518  73.228  1.00  0.00    -0.183 NA 
HETATM   18  C   UNL     1      -9.282   5.503  74.299  1.00  0.00    -0.123 C  
HETATM   19  C   UNL     1     -11.298   4.477  73.353  1.00  0.00    -0.286 C  
ENDBRANCH  16  17
ENDBRANCH  10  11
BRANCH  10  20
HETATM   20  C   UNL     1     -10.739  10.218  68.835  1.00  0.00    -0.256 A  
HETATM   21  C   UNL     1     -11.902  11.871  70.225  1.00  0.00    -0.368 A  
HETATM   22  C   UNL     1     -11.603  12.259  67.754  1.00  0.00    -0.416 A  
HETATM   23  C   UNL     1     -11.357  10.649  70.091  1.00  0.00    -0.402 A  
HETATM   24  C   UNL     1     -11.093  11.022  67.654  1.00  0.00    -0.363 A  
HETATM   25  C   UNL     1     -11.868  12.869  69.099  1.00  0.00    -0.303 A  
BRANCH  25  26
HETATM   26  N   UNL     1     -12.064  14.149  69.281  1.00  0.00    -0.335 NA 
HETATM   27  C   UNL     1     -11.801  15.192  68.227  1.00  0.00    -0.250 C  
HETATM   28  C   UNL     1     -12.615  14.768  70.532  1.00  0.00    -0.359 C  
ENDBRANCH  25  26
ENDBRANCH  10  20
ENDBRANCH   7  10
ENDBRANCH   2   4
TORSDOF 6
ENDMDL
MODEL       57
REMARK 921   NORMALIZED FREE ENERGY PREDICTED BY IDOCK:   -4.56 KCAL/MOL
REMARK 922        TOTAL FREE ENERGY PREDICTED BY IDOCK:   -7.60 KCAL/MOL
REMARK 923 INTER-LIGAND FREE ENERGY PREDICTED BY IDOCK:   -5.87 KCAL/MOL
REMARK 924 INTRA-LIGAND FREE ENERGY PREDICTED BY IDOCK:   -1.73 KCAL/MOL
REMARK 927      BINDING AFFINITY PREDICTED BY RF-SCORE:    0.00 PKD
ROOT
HETATM    1  C   UNL     1     -10.553  16.255  65.449  1.00  0.00    -0.352 C  
HETATM    2  N   UNL     1     -11.339  15.031  65.300  1.00  0.00    -0.358 NA 
HETATM    3  C   UNL     1     -12.325  15.029  64.220  1.00  0.00    -0.226 C  
ENDROOT
BRANCH   2   4
HETATM    4  C   UNL     1     -10.891  13.827  65.841  1.00  0.00    -0.283 A  
HETATM    5  C   UNL     1      -9.611  13.674  66.410  1.00  0.00    -0.280 A  
HETATM    6  C   UNL     1      -9.143  12.442  66.910  1.00  0.00    -0.211 A  
HETATM    7  C   UNL     1      -9.953  11.308  66.881  1.00  0.00    -0.238 A  
HETATM    8  C   UNL     1     -11.246  11.445  66.370  1.00  0.00    -0.250 A  
HETATM    9  C   UNL     1     -11.699  12.676  65.867  1.00  0.00    -0.470 A  
BRANCH   7  10
HETATM   10  C   UNL     1      -9.467   9.956  67.299  1.00  0.00    -0.181 C  
BRANCH  10  11
HETATM   11  C   UNL     1     -10.040   9.335  68.532  1.00  0.00    -0.211 A  
HETATM   12  C   UNL     1     -11.007   9.554  70.755  1.00  0.00    -0.389 A  
HETATM   13  C   UNL     1     -10.359  10.119  69.639  1.00  0.00    -0.278 A  
HETATM   14  C   UNL     1     -10.329   7.972  68.587  1.00  0.00    -0.224 A  
HETATM   15  C   UNL     1     -10.964   7.419  69.714  1.00  0.00    -0.215 A  
HETATM   16  C   UNL     1     -11.349   8.193  70.823  1.00  0.00    -0.270 A  
BRANCH  16  17
HETATM   17  N   UNL     1     -12.055   7.661  71.891  1.00  0.00    -0.289 NA 
HETATM   18  C   UNL     1     -11.897   6.272  72.325  1.00  0.00    -0.278 C  
HETATM   19  C   UNL     1     -13.160   8.364  72.541  1.00  0.00    -0.170 C  
ENDBRANCH  16  17
ENDBRANCH  10  11
BRANCH  10  20
HETATM   20  C   UNL     1      -8.449   9.319  66.642  1.00  0.00    -0.130 A  
HETATM   21  C   UNL     1      -6.222   8.292  66.710  1.00  0.00    -0.055 A  
HETATM   22  C   UNL     1      -7.734   7.943  64.726  1.00  0.00    -0.118 A  
HETATM   23  C   UNL     1      -7.120   9.145  67.233  1.00  0.00    -0.079 A  
HETATM   24  C   UNL     1      -8.591   8.823  65.264  1.00  0.00    -0.212 A  
HETATM   25  C   UNL     1      -6.556   7.446  65.511  1.00  0.00    -0.045 A  
BRANCH  25  26
HETATM   26  N   UNL     1      -5.870   6.382  65.182  1.00  0.00    -0.022 NA 
HETATM   27  C   UNL     1      -5.679   5.197  66.092  1.00  0.00    -0.018 C  
HETATM   28  C   UNL     1      -5.211   6.158  63.853  1.00  0.00    -0.017 C  
ENDBRANCH  25  26
ENDBRANCH  10  20
ENDBRANCH   7  10
ENDBRANCH   2   4
TORSDOF 6
ENDMDL
MODEL       58
REMARK 921   NORMALIZED FREE ENERGY PREDICTED BY IDOCK:   -4.53 KCAL/MOL
REMARK 922        TOTAL FREE ENERGY PREDICTED BY IDOCK:   -7.55 KCAL/MOL
REMARK 923 INTER-LIGAND FREE ENERGY PREDICTED BY IDOCK:   -5.82 KCAL/MOL
REMARK 924 INTRA-LIGAND FREE ENERGY PREDICTED BY IDOCK:   -1.73 KCAL/MOL
REMARK 927      BINDING AFFINITY PREDICTED BY RF-SCORE:    0.00 PKD
ROOT
HETATM    1  C   UNL     1      -9.710   1.812  63.534  1.00  0.00    -0.118 C  
HETATM    2  N   UNL     1      -8.859   2.990  63.692  1.00  0.00    -0.092 NA 
HETATM    3  C   UNL     1      -8.076   3.378  62.518  1.00  0.00    -0.072 C  
ENDROOT
BRANCH   2   4
HETATM    4  C   UNL     1      -9.102   3.914  64.707  1.00  0.00    -0.141 A  
HETATM    5  C   UNL     1      -8.074   4.642  65.339  1.00  0.00    -0.107 A  
HETATM    6  C   UNL     1      -8.319   5.539  66.399  1.00  0.00    -0.111 A  
HETATM    7  C   UNL     1      -9.616   5.762  66.858  1.00  0.00    -0.153 A  
HETATM    8  C   UNL     1     -10.659   5.092  66.213  1.00  0.00    -0.332 A  
HETATM    9  C   UNL     1     -10.402   4.194  65.162  1.00  0.00    -0.198 A  
BRANCH   7  10
HETATM   10  C   UNL     1      -9.917   6.618  68.047  1.00  0.00    -0.157 C  
BRANCH  10  11
HETATM   11  C   UNL     1      -9.680   8.091  67.951  1.00  0.00    -0.189 A  
HETATM   12  C   UNL     1      -8.276  10.037  68.363  1.00  0.00    -0.106 A  
HETATM   13  C   UNL     1      -8.563   8.670  68.551  1.00  0.00    -0.135 A  
HETATM   14  C   UNL     1     -10.530   8.913  67.211  1.00  0.00    -0.348 A  
HETATM   15  C   UNL     1     -10.237  10.279  67.043  1.00  0.00    -0.282 A  
HETATM   16  C   UNL     1      -9.090  10.882  67.588  1.00  0.00    -0.148 A  
BRANCH  16  17
HETATM   17  N   UNL     1      -8.759  12.205  67.344  1.00  0.00    -0.169 NA 
HETATM   18  C   UNL     1      -7.389  12.707  67.457  1.00  0.00    -0.151 C  
HETATM   19  C   UNL     1      -9.761  13.253  67.157  1.00  0.00    -0.236 C  
ENDBRANCH  16  17
ENDBRANCH  10  11
BRANCH  10  20
HETATM   20  C   UNL     1     -10.308   6.081  69.244  1.00  0.00    -0.294 A  
HETATM   21  C   UNL     1      -9.943   4.442  71.032  1.00  0.00    -0.242 A  
HETATM   22  C   UNL     1     -11.527   6.372  71.367  1.00  0.00    -0.363 A  
HETATM   23  C   UNL     1      -9.768   4.818  69.754  1.00  0.00    -0.272 A  
HETATM   24  C   UNL     1     -11.352   6.698  70.078  1.00  0.00    -0.440 A  
HETATM   25  C   UNL     1     -10.671   5.322  72.013  1.00  0.00    -0.196 A  
BRANCH  25  26
HETATM   26  N   UNL     1     -10.571   5.172  73.308  1.00  0.00    -0.215 NA 
HETATM   27  C   UNL     1     -10.786   3.860  74.015  1.00  0.00    -0.220 C  
HETATM   28  C   UNL     1     -10.191   6.254  74.275  1.00  0.00    -0.335 C  
ENDBRANCH  25  26
ENDBRANCH  10  20
ENDBRANCH   7  10
ENDBRANCH   2   4
TORSDOF 6
ENDMDL
MODEL       59
REMARK 921   NORMALIZED FREE ENERGY PREDICTED BY IDOCK:   -4.52 KCAL/MOL
REMARK 922        TOTAL FREE ENERGY PREDICTED BY IDOCK:   -7.53 KCAL/MOL
REMARK 923 INTER-LIGAND FREE ENERGY PREDICTED BY IDOCK:   -5.92 KCAL/MOL
REMARK 924 INTRA-LIGAND FREE ENERGY PREDICTED BY IDOCK:   -1.61 KCAL/MOL
REMARK 927      BINDING AFFINITY PREDICTED BY RF-SCORE:    0.00 PKD
ROOT
HETATM    1  C   UNL     1      -5.129   5.576  64.822  1.00  0.00    -0.009 C  
HETATM    2  N   UNL     1      -5.644   6.776  64.165  1.00  0.00    -0.031 NA 
HETATM    3  C   UNL     1      -5.567   6.791  62.704  1.00  0.00    -0.032 C  
ENDROOT
BRANCH   2   4
HETATM    4  C   UNL     1      -6.527   7.628  64.827  1.00  0.00    -0.044 A  
HETATM    5  C   UNL     1      -7.921   7.428  64.833  1.00  0.00    -0.128 A  
HETATM    6  C   UNL     1      -8.814   8.319  65.462  1.00  0.00    -0.152 A  
HETATM    7  C   UNL     1      -8.342   9.445  66.134  1.00  0.00    -0.118 A  
HETATM    8  C   UNL     1      -6.959   9.637  66.189  1.00  0.00    -0.093 A  
HETATM    9  C   UNL     1      -6.078   8.747  65.551  1.00  0.00    -0.052 A  
BRANCH   7  10
HETATM   10  C   UNL     1      -9.251  10.476  66.724  1.00  0.00    -0.175 C  
BRANCH  10  11
HETATM   11  C   UNL     1     -10.055  10.120  67.933  1.00  0.00    -0.207 A  
HETATM   12  C   UNL     1     -10.284   8.930  70.044  1.00  0.00    -0.214 A  
HETATM   13  C   UNL     1      -9.584   9.181  68.847  1.00  0.00    -0.152 A  
HETATM   14  C   UNL     1     -11.264  10.759  68.210  1.00  0.00    -0.358 A  
HETATM   15  C   UNL     1     -11.958  10.489  69.404  1.00  0.00    -0.230 A  
HETATM   16  C   UNL     1     -11.481   9.588  70.373  1.00  0.00    -0.242 A  
BRANCH  16  17
HETATM   17  N   UNL     1     -12.122   9.394  71.586  1.00  0.00    -0.365 NA 
HETATM   18  C   UNL     1     -11.867   8.228  72.433  1.00  0.00    -0.396 C  
HETATM   19  C   UNL     1     -13.247  10.215  72.031  1.00  0.00    -0.430 C  
ENDBRANCH  16  17
ENDBRANCH  10  11
BRANCH  10  20
HETATM   20  C   UNL     1      -9.440  11.696  66.133  1.00  0.00    -0.240 A  
HETATM   21  C   UNL     1     -10.419  13.023  64.316  1.00  0.00    -0.424 A  
HETATM   22  C   UNL     1      -9.494  14.150  66.372  1.00  0.00    -0.289 A  
HETATM   23  C   UNL     1      -9.982  11.839  64.779  1.00  0.00    -0.275 A  
HETATM   24  C   UNL     1      -9.047  12.955  66.786  1.00  0.00    -0.211 A  
HETATM   25  C   UNL     1     -10.405  14.253  65.183  1.00  0.00    -0.415 A  
BRANCH  25  26
HETATM   26  N   UNL     1     -11.115  15.318  64.913  1.00  0.00    -0.421 NA 
HETATM   27  C   UNL     1     -12.377  15.292  64.091  1.00  0.00    -0.044 C  
HETATM   28  C   UNL     1     -10.817  16.702  65.407  1.00  0.00    -0.173 C  
ENDBRANCH  25  26
ENDBRANCH  10  20
ENDBRANCH   7  10
ENDBRANCH   2   4
TORSDOF 6
ENDMDL
MODEL       60
REMARK 921   NORMALIZED FREE ENERGY PREDICTED BY IDOCK:   -4.49 KCAL/MOL
REMARK 922        TOTAL FREE ENERGY PREDICTED BY IDOCK:   -7.49 KCAL/MOL
REMARK 923 INTER-LIGAND FREE ENERGY PREDICTED BY IDOCK:   -5.87 KCAL/MOL
REMARK 924 INTRA-LIGAND FREE ENERGY PREDICTED BY IDOCK:   -1.63 KCAL/MOL
REMARK 927      BINDING AFFINITY PREDICTED BY RF-SCORE:    0.00 PKD
ROOT
HETATM    1  C   UNL     1     -11.259   5.134  73.445  1.00  0.00    -0.290 C  
HETATM    2  N   UNL     1     -10.547   6.411  73.402  1.00  0.00    -0.262 NA 
HETATM    3  C   UNL     1      -9.702   6.714  74.557  1.00  0.00    -0.288 C  
ENDROOT
BRANCH   2   4
HETATM    4  C   UNL     1     -10.340   7.071  72.191  1.00  0.00    -0.191 A  
HETATM    5  C   UNL     1     -11.022   6.726  71.007  1.00  0.00    -0.297 A  
HETATM    6  C   UNL     1     -10.773   7.363  69.774  1.00  0.00    -0.252 A  
HETATM    7  C   UNL     1      -9.840   8.393  69.680  1.00  0.00    -0.184 A  
HETATM    8  C   UNL     1      -9.188   8.790  70.851  1.00  0.00    -0.261 A  
HETATM    9  C   UNL     1      -9.438   8.143  72.074  1.00  0.00    -0.279 A  
BRANCH   7  10
HETATM   10  C   UNL     1      -9.462   9.026  68.378  1.00  0.00    -0.154 C  
BRANCH  10  11
HETATM   11  C   UNL     1      -9.968  10.399  68.072  1.00  0.00    -0.178 A  
HETATM   12  C   UNL     1      -9.561  12.775  67.733  1.00  0.00    -0.204 A  
HETATM   13  C   UNL     1      -9.116  11.500  68.134  1.00  0.00    -0.181 A  
HETATM   14  C   UNL     1     -11.283  10.608  67.658  1.00  0.00    -0.361 A  
HETATM   15  C   UNL     1     -11.717  11.890  67.273  1.00  0.00    -0.319 A  
HETATM   16  C   UNL     1     -10.867  13.010  67.271  1.00  0.00    -0.252 A  
BRANCH  16  17
HETATM   17  N   UNL     1     -11.274  14.251  66.805  1.00  0.00    -0.322 NA 
HETATM   18  C   UNL     1     -11.160  15.469  67.608  1.00  0.00    -0.311 C  
HETATM   19  C   UNL     1     -12.034  14.424  65.569  1.00  0.00    -0.358 C  
ENDBRANCH  16  17
ENDBRANCH  10  11
BRANCH  10  20
HETATM   20  C   UNL     1      -8.752   8.348  67.425  1.00  0.00    -0.136 A  
HETATM   21  C   UNL     1      -7.259   6.491  66.838  1.00  0.00    -0.078 A  
HETATM   22  C   UNL     1      -8.454   7.791  65.041  1.00  0.00    -0.052 A  
HETATM   23  C   UNL     1      -7.746   7.338  67.762  1.00  0.00    -0.112 A  
HETATM   24  C   UNL     1      -8.895   8.633  65.988  1.00  0.00    -0.213 A  
HETATM   25  C   UNL     1      -7.755   6.518  65.417  1.00  0.00    -0.099 A  
BRANCH  25  26
HETATM   26  N   UNL     1      -7.578   5.523  64.587  1.00  0.00    -0.075 NA 
HETATM   27  C   UNL     1      -7.189   4.134  65.021  1.00  0.00    -0.071 C  
HETATM   28  C   UNL     1      -7.772   5.594  63.102  1.00  0.00    -0.085 C  
ENDBRANCH  25  26
ENDBRANCH  10  20
ENDBRANCH   7  10
ENDBRANCH   2   4
TORSDOF 6
ENDMDL
MODEL       61
REMARK 921   NORMALIZED FREE ENERGY PREDICTED BY IDOCK:   -4.48 KCAL/MOL
REMARK 922        TOTAL FREE ENERGY PREDICTED BY IDOCK:   -7.49 KCAL/MOL
REMARK 923 INTER-LIGAND FREE ENERGY PREDICTED BY IDOCK:   -5.93 KCAL/MOL
REMARK 924 INTRA-LIGAND FREE ENERGY PREDICTED BY IDOCK:   -1.56 KCAL/MOL
REMARK 927      BINDING AFFINITY PREDICTED BY RF-SCORE:    0.00 PKD
ROOT
HETATM    1  C   UNL     1     -11.051  12.647  63.838  1.00  0.00    -0.427 C  
HETATM    2  N   UNL     1     -11.208  12.486  65.282  1.00  0.00    -0.295 NA 
HETATM    3  C   UNL     1     -12.239  13.312  65.912  1.00  0.00    -0.441 C  
ENDROOT
BRANCH   2   4
HETATM    4  C   UNL     1     -10.738  11.342  65.927  1.00  0.00    -0.255 A  
HETATM    5  C   UNL     1      -9.817  10.456  65.335  1.00  0.00    -0.347 A  
HETATM    6  C   UNL     1      -9.382   9.275  65.970  1.00  0.00    -0.283 A  
HETATM    7  C   UNL     1      -9.839   8.942  67.244  1.00  0.00    -0.256 A  
HETATM    8  C   UNL     1     -10.713   9.831  67.875  1.00  0.00    -0.312 A  
HETATM    9  C   UNL     1     -11.146  11.002  67.229  1.00  0.00    -0.359 A  
BRANCH   7  10
HETATM   10  C   UNL     1      -9.493   7.650  67.915  1.00  0.00    -0.156 C  
BRANCH  10  11
HETATM   11  C   UNL     1      -8.852   6.569  67.107  1.00  0.00    -0.110 A  
HETATM   12  C   UNL     1      -8.980   4.873  65.366  1.00  0.00    -0.151 A  
HETATM   13  C   UNL     1      -9.604   5.811  66.212  1.00  0.00    -0.159 A  
HETATM   14  C   UNL     1      -7.479   6.330  67.179  1.00  0.00    -0.084 A  
HETATM   15  C   UNL     1      -6.873   5.380  66.337  1.00  0.00    -0.059 A  
HETATM   16  C   UNL     1      -7.595   4.640  65.385  1.00  0.00    -0.081 A  
BRANCH  16  17
HETATM   17  N   UNL     1      -6.979   3.772  64.496  1.00  0.00    -0.049 NA 
HETATM   18  C   UNL     1      -6.635   2.395  64.851  1.00  0.00    -0.027 C  
HETATM   19  C   UNL     1      -6.435   4.206  63.211  1.00  0.00    -0.026 C  
ENDBRANCH  16  17
ENDBRANCH  10  11
BRANCH  10  20
HETATM   20  C   UNL     1      -9.835   7.398  69.216  1.00  0.00    -0.168 A  
HETATM   21  C   UNL     1     -11.331   6.302  70.822  1.00  0.00    -0.397 A  
HETATM   22  C   UNL     1      -9.133   7.274  71.577  1.00  0.00    -0.145 A  
HETATM   23  C   UNL     1     -11.117   6.795  69.590  1.00  0.00    -0.343 A  
HETATM   24  C   UNL     1      -8.969   7.777  70.344  1.00  0.00    -0.147 A  
HETATM   25  C   UNL     1     -10.247   6.312  71.866  1.00  0.00    -0.201 A  
BRANCH  25  26
HETATM   26  N   UNL     1     -10.285   5.557  72.933  1.00  0.00    -0.179 NA 
HETATM   27  C   UNL     1     -10.487   4.065  72.893  1.00  0.00    -0.171 C  
HETATM   28  C   UNL     1     -10.094   6.041  74.340  1.00  0.00    -0.304 C  
ENDBRANCH  25  26
ENDBRANCH  10  20
ENDBRANCH   7  10
ENDBRANCH   2   4
TORSDOF 6
ENDMDL
MODEL       62
REMARK 921   NORMALIZED FREE ENERGY PREDICTED BY IDOCK:   -4.48 KCAL/MOL
REMARK 922        TOTAL FREE ENERGY PREDICTED BY IDOCK:   -7.49 KCAL/MOL
REMARK 923 INTER-LIGAND FREE ENERGY PREDICTED BY IDOCK:   -6.00 KCAL/MOL
REMARK 924 INTRA-LIGAND FREE ENERGY PREDICTED BY IDOCK:   -1.49 KCAL/MOL
REMARK 927      BINDING AFFINITY PREDICTED BY RF-SCORE:    0.00 PKD
ROOT
HETATM    1  C   UNL     1      -9.938   2.211  63.697  1.00  0.00    -0.134 C  
HETATM    2  N   UNL     1      -9.079   3.392  63.774  1.00  0.00    -0.096 NA 
HETATM    3  C   UNL     1      -8.315   3.709  62.567  1.00  0.00    -0.076 C  
ENDROOT
BRANCH   2   4
HETATM    4  C   UNL     1      -9.301   4.373  64.739  1.00  0.00    -0.160 A  
HETATM    5  C   UNL     1      -8.349   5.364  65.054  1.00  0.00    -0.145 A  
HETATM    6  C   UNL     1      -8.558   6.323  66.066  1.00  0.00    -0.146 A  
HETATM    7  C   UNL     1      -9.746   6.344  66.794  1.00  0.00    -0.199 A  
HETATM    8  C   UNL     1     -10.727   5.406  66.465  1.00  0.00    -0.309 A  
HETATM    9  C   UNL     1     -10.506   4.449  65.460  1.00  0.00    -0.228 A  
BRANCH   7  10
HETATM   10  C   UNL     1      -9.972   7.271  67.947  1.00  0.00    -0.192 C  
BRANCH  10  11
HETATM   11  C   UNL     1     -10.150   6.689  69.312  1.00  0.00    -0.187 A  
HETATM   12  C   UNL     1      -9.206   5.753  71.351  1.00  0.00    -0.157 A  
HETATM   13  C   UNL     1      -9.058   6.193  70.021  1.00  0.00    -0.151 A  
HETATM   14  C   UNL     1     -11.397   6.684  69.938  1.00  0.00    -0.422 A  
HETATM   15  C   UNL     1     -11.532   6.230  71.263  1.00  0.00    -0.352 A  
HETATM   16  C   UNL     1     -10.440   5.775  72.023  1.00  0.00    -0.218 A  
BRANCH  16  17
HETATM   17  N   UNL     1     -10.562   5.414  73.356  1.00  0.00    -0.236 NA 
HETATM   18  C   UNL     1     -10.174   6.305  74.450  1.00  0.00    -0.321 C  
HETATM   19  C   UNL     1     -10.888   4.055  73.784  1.00  0.00    -0.253 C  
ENDBRANCH  16  17
ENDBRANCH  10  11
BRANCH  10  20
HETATM   20  C   UNL     1     -10.116   8.621  67.772  1.00  0.00    -0.266 A  
HETATM   21  C   UNL     1      -9.915  10.892  68.678  1.00  0.00    -0.196 A  
HETATM   22  C   UNL     1     -10.261  10.523  66.210  1.00  0.00    -0.296 A  
HETATM   23  C   UNL     1     -10.048   9.570  68.885  1.00  0.00    -0.199 A  
HETATM   24  C   UNL     1     -10.420   9.214  66.460  1.00  0.00    -0.197 A  
HETATM   25  C   UNL     1      -9.790  11.455  67.287  1.00  0.00    -0.189 A  
BRANCH  25  26
HETATM   26  N   UNL     1      -9.324  12.653  67.048  1.00  0.00    -0.213 NA 
HETATM   27  C   UNL     1      -7.933  13.096  67.417  1.00  0.00    -0.171 C  
HETATM   28  C   UNL     1     -10.072  13.744  66.342  1.00  0.00    -0.295 C  
ENDBRANCH  25  26
ENDBRANCH  10  20
ENDBRANCH   7  10
ENDBRANCH   2   4
TORSDOF 6
ENDMDL
MODEL       63
REMARK 921   NORMALIZED FREE ENERGY PREDICTED BY IDOCK:   -4.46 KCAL/MOL
REMARK 922        TOTAL FREE ENERGY PREDICTED BY IDOCK:   -7.46 KCAL/MOL
REMARK 923 INTER-LIGAND FREE ENERGY PREDICTED BY IDOCK:   -5.80 KCAL/MOL
REMARK 924 INTRA-LIGAND FREE ENERGY PREDICTED BY IDOCK:   -1.66 KCAL/MOL
REMARK 927      BINDING AFFINITY PREDICTED BY RF-SCORE:    0.00 PKD
ROOT
HETATM    1  C   UNL     1      -9.912   3.683  64.749  1.00  0.00    -0.160 C  
HETATM    2  N   UNL     1      -8.928   4.762  64.679  1.00  0.00    -0.153 NA 
HETATM    3  C   UNL     1      -8.093   4.792  63.478  1.00  0.00    -0.101 C  
ENDROOT
BRANCH   2   4
HETATM    4  C   UNL     1      -9.070   5.908  65.461  1.00  0.00     0.010 A  
HETATM    5  C   UNL     1      -8.226   7.029  65.332  1.00  0.00    -0.133 A  
HETATM    6  C   UNL     1      -8.342   8.166  66.159  1.00  0.00    -0.126 A  
HETATM    7  C   UNL     1      -9.328   8.235  67.141  1.00  0.00    -0.189 A  
HETATM    8  C   UNL     1     -10.211   7.158  67.254  1.00  0.00    -0.315 A  
HETATM    9  C   UNL     1     -10.082   6.027  66.430  1.00  0.00    -0.142 A  
BRANCH   7  10
HETATM   10  C   UNL     1      -9.424   9.369  68.112  1.00  0.00    -0.146 C  
BRANCH  10  11
HETATM   11  C   UNL     1      -9.384   9.067  69.576  1.00  0.00    -0.160 A  
HETATM   12  C   UNL     1     -10.534   8.613  71.673  1.00  0.00    -0.366 A  
HETATM   13  C   UNL     1     -10.559   9.012  70.321  1.00  0.00    -0.250 A  
HETATM   14  C   UNL     1      -8.182   8.773  70.220  1.00  0.00    -0.120 A  
HETATM   15  C   UNL     1      -8.171   8.389  71.574  1.00  0.00    -0.182 A  
HETATM   16  C   UNL     1      -9.345   8.270  72.338  1.00  0.00    -0.268 A  
BRANCH  16  17
HETATM   17  N   UNL     1      -9.337   7.804  73.643  1.00  0.00    -0.287 NA 
HETATM   18  C   UNL     1      -8.181   7.958  74.527  1.00  0.00    -0.208 C  
HETATM   19  C   UNL     1     -10.387   6.944  74.186  1.00  0.00    -0.243 C  
ENDBRANCH  16  17
ENDBRANCH  10  11
BRANCH  10  20
HETATM   20  C   UNL     1      -9.645  10.656  67.702  1.00  0.00    -0.178 A  
HETATM   21  C   UNL     1     -11.225  12.480  67.260  1.00  0.00    -0.347 A  
HETATM   22  C   UNL     1      -8.749  12.930  67.376  1.00  0.00    -0.197 A  
HETATM   23  C   UNL     1     -10.983  11.164  67.391  1.00  0.00    -0.347 A  
HETATM   24  C   UNL     1      -8.545  11.607  67.474  1.00  0.00    -0.149 A  
HETATM   25  C   UNL     1     -10.135  13.498  67.463  1.00  0.00    -0.234 A  
BRANCH  25  26
HETATM   26  N   UNL     1     -10.381  14.763  67.684  1.00  0.00    -0.237 NA 
HETATM   27  C   UNL     1     -11.621  15.264  68.375  1.00  0.00    -0.349 C  
HETATM   28  C   UNL     1      -9.462  15.894  67.330  1.00  0.00    -0.219 C  
ENDBRANCH  25  26
ENDBRANCH  10  20
ENDBRANCH   7  10
ENDBRANCH   2   4
TORSDOF 6
ENDMDL
MODEL       64
REMARK 921   NORMALIZED FREE ENERGY PREDICTED BY IDOCK:   -4.45 KCAL/MOL
REMARK 922        TOTAL FREE ENERGY PREDICTED BY IDOCK:   -7.45 KCAL/MOL
REMARK 923 INTER-LIGAND FREE ENERGY PREDICTED BY IDOCK:   -5.95 KCAL/MOL
REMARK 924 INTRA-LIGAND FREE ENERGY PREDICTED BY IDOCK:   -1.50 KCAL/MOL
REMARK 927      BINDING AFFINITY PREDICTED BY RF-SCORE:    0.00 PKD
ROOT
HETATM    1  C   UNL     1      -6.720   7.837  62.719  1.00  0.00    -0.076 C  
HETATM    2  N   UNL     1      -6.663   8.955  63.660  1.00  0.00    -0.089 NA 
HETATM    3  C   UNL     1      -6.207  10.232  63.111  1.00  0.00    -0.140 C  
ENDROOT
BRANCH   2   4
HETATM    4  C   UNL     1      -7.390   8.924  64.849  1.00  0.00    -0.093 A  
HETATM    5  C   UNL     1      -8.792   8.791  64.884  1.00  0.00    -0.119 A  
HETATM    6  C   UNL     1      -9.528   8.811  66.086  1.00  0.00    -0.315 A  
HETATM    7  C   UNL     1      -8.883   8.942  67.314  1.00  0.00    -0.137 A  
HETATM    8  C   UNL     1      -7.488   9.022  67.311  1.00  0.00    -0.084 A  
HETATM    9  C   UNL     1      -6.765   9.010  66.106  1.00  0.00    -0.070 A  
BRANCH   7  10
HETATM   10  C   UNL     1      -9.624   9.077  68.607  1.00  0.00    -0.158 C  
BRANCH  10  11
HETATM   11  C   UNL     1     -10.233  10.397  68.953  1.00  0.00    -0.220 A  
HETATM   12  C   UNL     1     -10.506  12.777  68.522  1.00  0.00    -0.252 A  
HETATM   13  C   UNL     1      -9.850  11.554  68.278  1.00  0.00    -0.203 A  
HETATM   14  C   UNL     1     -11.241  10.498  69.912  1.00  0.00    -0.374 A  
HETATM   15  C   UNL     1     -11.879  11.729  70.153  1.00  0.00    -0.408 A  
HETATM   16  C   UNL     1     -11.554  12.902  69.450  1.00  0.00    -0.302 A  
BRANCH  16  17
HETATM   17  N   UNL     1     -12.246  14.090  69.627  1.00  0.00    -0.346 NA 
HETATM   18  C   UNL     1     -12.134  15.212  68.693  1.00  0.00    -0.151 C  
HETATM   19  C   UNL     1     -12.977  14.409  70.852  1.00  0.00    -0.348 C  
ENDBRANCH  16  17
ENDBRANCH  10  11
BRANCH  10  20
HETATM   20  C   UNL     1      -9.674   8.058  69.520  1.00  0.00    -0.170 A  
HETATM   21  C   UNL     1      -8.775   7.003  71.544  1.00  0.00    -0.121 A  
HETATM   22  C   UNL     1     -11.004   6.291  70.610  1.00  0.00    -0.370 A  
HETATM   23  C   UNL     1      -8.601   7.814  70.486  1.00  0.00    -0.132 A  
HETATM   24  C   UNL     1     -10.780   7.088  69.554  1.00  0.00    -0.263 A  
HETATM   25  C   UNL     1     -10.098   6.335  71.806  1.00  0.00    -0.186 A  
BRANCH  25  26
HETATM   26  N   UNL     1     -10.419   5.831  72.969  1.00  0.00    -0.207 NA 
HETATM   27  C   UNL     1     -10.241   6.562  74.273  1.00  0.00    -0.350 C  
HETATM   28  C   UNL     1     -11.045   4.484  73.182  1.00  0.00    -0.264 C  
ENDBRANCH  25  26
ENDBRANCH  10  20
ENDBRANCH   7  10
ENDBRANCH   2   4
TORSDOF 6
ENDMDL
MODEL       65
REMARK 921   NORMALIZED FREE ENERGY PREDICTED BY IDOCK:   -4.44 KCAL/MOL
REMARK 922        TOTAL FREE ENERGY PREDICTED BY IDOCK:   -7.43 KCAL/MOL
REMARK 923 INTER-LIGAND FREE ENERGY PREDICTED BY IDOCK:   -5.67 KCAL/MOL
REMARK 924 INTRA-LIGAND FREE ENERGY PREDICTED BY IDOCK:   -1.76 KCAL/MOL
REMARK 927      BINDING AFFINITY PREDICTED BY RF-SCORE:    0.00 PKD
ROOT
HETATM    1  C   UNL     1     -10.375  12.182  63.621  1.00  0.00    -0.452 C  
HETATM    2  N   UNL     1     -10.441  12.062  65.076  1.00  0.00    -0.276 NA 
HETATM    3  C   UNL     1     -11.210  13.094  65.772  1.00  0.00    -0.286 C  
ENDROOT
BRANCH   2   4
HETATM    4  C   UNL     1     -10.177  10.845  65.703  1.00  0.00    -0.263 A  
HETATM    5  C   UNL     1      -9.273   9.898  65.183  1.00  0.00    -0.288 A  
HETATM    6  C   UNL     1      -9.046   8.647  65.794  1.00  0.00    -0.242 A  
HETATM    7  C   UNL     1      -9.706   8.300  66.971  1.00  0.00    -0.274 A  
HETATM    8  C   UNL     1     -10.569   9.243  67.536  1.00  0.00    -0.329 A  
HETATM    9  C   UNL     1     -10.793  10.483  66.915  1.00  0.00    -0.252 A  
BRANCH   7  10
HETATM   10  C   UNL     1      -9.583   6.947  67.598  1.00  0.00    -0.143 C  
BRANCH  10  11
HETATM   11  C   UNL     1      -9.393   6.855  69.078  1.00  0.00    -0.135 A  
HETATM   12  C   UNL     1      -8.121   7.392  71.083  1.00  0.00    -0.101 A  
HETATM   13  C   UNL     1      -8.248   7.373  69.680  1.00  0.00    -0.130 A  
HETATM   14  C   UNL     1     -10.377   6.307  69.900  1.00  0.00    -0.249 A  
HETATM   15  C   UNL     1     -10.230   6.321  71.300  1.00  0.00    -0.238 A  
HETATM   16  C   UNL     1      -9.114   6.886  71.940  1.00  0.00    -0.141 A  
BRANCH  16  17
HETATM   17  N   UNL     1      -9.016   6.980  73.319  1.00  0.00    -0.128 NA 
HETATM   18  C   UNL     1      -9.939   6.290  74.221  1.00  0.00    -0.310 C  
HETATM   19  C   UNL     1      -8.127   7.926  73.991  1.00  0.00    -0.226 C  
ENDBRANCH  16  17
ENDBRANCH  10  11
BRANCH  10  20
HETATM   20  C   UNL     1      -9.542   5.803  66.847  1.00  0.00    -0.153 A  
HETATM   21  C   UNL     1     -10.669   4.252  65.317  1.00  0.00    -0.118 A  
HETATM   22  C   UNL     1      -8.176   4.130  65.659  1.00  0.00    -0.109 A  
HETATM   23  C   UNL     1     -10.744   5.200  66.268  1.00  0.00    -0.272 A  
HETATM   24  C   UNL     1      -8.295   5.055  66.623  1.00  0.00    -0.107 A  
HETATM   25  C   UNL     1      -9.342   3.793  64.776  1.00  0.00    -0.155 A  
BRANCH  25  26
HETATM   26  N   UNL     1      -9.223   3.148  63.645  1.00  0.00    -0.095 NA 
HETATM   27  C   UNL     1     -10.396   2.716  62.804  1.00  0.00    -0.131 C  
HETATM   28  C   UNL     1      -7.923   2.781  62.993  1.00  0.00    -0.069 C  
ENDBRANCH  25  26
ENDBRANCH  10  20
ENDBRANCH   7  10
ENDBRANCH   2   4
TORSDOF 6
ENDMDL
MODEL       66
REMARK 921   NORMALIZED FREE ENERGY PREDICTED BY IDOCK:   -4.44 KCAL/MOL
REMARK 922        TOTAL FREE ENERGY PREDICTED BY IDOCK:   -7.42 KCAL/MOL
REMARK 923 INTER-LIGAND FREE ENERGY PREDICTED BY IDOCK:   -5.93 KCAL/MOL
REMARK 924 INTRA-LIGAND FREE ENERGY PREDICTED BY IDOCK:   -1.49 KCAL/MOL
REMARK 927      BINDING AFFINITY PREDICTED BY RF-SCORE:    0.00 PKD
ROOT
HETATM    1  C   UNL     1     -10.534   3.091  62.390  1.00  0.00    -0.135 C  
HETATM    2  N   UNL     1      -9.811   3.059  63.660  1.00  0.00    -0.129 NA 
HETATM    3  C   UNL     1      -8.727   2.081  63.757  1.00  0.00    -0.085 C  
ENDROOT
BRANCH   2   4
HETATM    4  C   UNL     1      -9.851   4.147  64.530  1.00  0.00    -0.162 A  
HETATM    5  C   UNL     1      -8.747   4.998  64.740  1.00  0.00    -0.149 A  
HETATM    6  C   UNL     1      -8.776   6.068  65.658  1.00  0.00    -0.142 A  
HETATM    7  C   UNL     1      -9.927   6.345  66.393  1.00  0.00    -0.096 A  
HETATM    8  C   UNL     1     -11.052   5.548  66.165  1.00  0.00     0.191 A  
HETATM    9  C   UNL     1     -11.010   4.480  65.253  1.00  0.00    -0.014 A  
BRANCH   7  10
HETATM   10  C   UNL     1      -9.974   7.397  67.456  1.00  0.00    -0.225 C  
BRANCH  10  11
HETATM   11  C   UNL     1     -10.172   8.822  67.048  1.00  0.00    -0.351 A  
HETATM   12  C   UNL     1     -10.040  10.578  65.368  1.00  0.00    -0.358 A  
HETATM   13  C   UNL     1      -9.749   9.268  65.798  1.00  0.00    -0.339 A  
HETATM   14  C   UNL     1     -10.839   9.724  67.877  1.00  0.00    -0.298 A  
HETATM   15  C   UNL     1     -11.110  11.033  67.439  1.00  0.00    -0.370 A  
HETATM   16  C   UNL     1     -10.746  11.497  66.163  1.00  0.00    -0.274 A  
BRANCH  16  17
HETATM   17  N   UNL     1     -11.095  12.756  65.702  1.00  0.00    -0.274 NA 
HETATM   18  C   UNL     1     -10.455  13.375  64.540  1.00  0.00    -0.413 C  
HETATM   19  C   UNL     1     -11.975  13.658  66.444  1.00  0.00    -0.426 C  
ENDBRANCH  16  17
ENDBRANCH  10  11
BRANCH  10  20
HETATM   20  C   UNL     1      -9.745   7.105  68.773  1.00  0.00    -0.145 A  
HETATM   21  C   UNL     1      -8.242   7.177  70.711  1.00  0.00    -0.120 A  
HETATM   22  C   UNL     1     -10.682   6.618  71.001  1.00  0.00    -0.278 A  
HETATM   23  C   UNL     1      -8.413   7.194  69.378  1.00  0.00    -0.134 A  
HETATM   24  C   UNL     1     -10.806   6.613  69.665  1.00  0.00    -0.336 A  
HETATM   25  C   UNL     1      -9.418   7.104  71.648  1.00  0.00    -0.152 A  
BRANCH  25  26
HETATM   26  N   UNL     1      -9.336   7.425  72.913  1.00  0.00    -0.152 NA 
HETATM   27  C   UNL     1     -10.348   7.008  73.947  1.00  0.00    -0.348 C  
HETATM   28  C   UNL     1      -8.217   8.208  73.533  1.00  0.00    -0.215 C  
ENDBRANCH  25  26
ENDBRANCH  10  20
ENDBRANCH   7  10
ENDBRANCH   2   4
TORSDOF 6
ENDMDL
MODEL       67
REMARK 921   NORMALIZED FREE ENERGY PREDICTED BY IDOCK:   -4.40 KCAL/MOL
REMARK 922        TOTAL FREE ENERGY PREDICTED BY IDOCK:   -7.38 KCAL/MOL
REMARK 923 INTER-LIGAND FREE ENERGY PREDICTED BY IDOCK:   -5.65 KCAL/MOL
REMARK 924 INTRA-LIGAND FREE ENERGY PREDICTED BY IDOCK:   -1.73 KCAL/MOL
REMARK 927      BINDING AFFINITY PREDICTED BY RF-SCORE:    0.00 PKD
ROOT
HETATM    1  C   UNL     1     -10.584  13.966  66.848  1.00  0.00    -0.280 C  
HETATM    2  N   UNL     1      -9.399  13.141  67.082  1.00  0.00    -0.227 NA 
HETATM    3  C   UNL     1      -8.186  13.857  67.478  1.00  0.00    -0.188 C  
ENDROOT
BRANCH   2   4
HETATM    4  C   UNL     1      -9.521  11.776  67.338  1.00  0.00    -0.173 A  
HETATM    5  C   UNL     1      -8.505  11.022  67.959  1.00  0.00    -0.129 A  
HETATM    6  C   UNL     1      -8.612   9.632  68.171  1.00  0.00    -0.119 A  
HETATM    7  C   UNL     1      -9.759   8.939  67.788  1.00  0.00    -0.196 A  
HETATM    8  C   UNL     1     -10.803   9.673  67.218  1.00  0.00    -0.212 A  
HETATM    9  C   UNL     1     -10.682  11.057  67.004  1.00  0.00    -0.319 A  
BRANCH   7  10
HETATM   10  C   UNL     1      -9.878   7.452  67.892  1.00  0.00    -0.177 C  
BRANCH  10  11
HETATM   11  C   UNL     1     -10.109   6.841  69.237  1.00  0.00    -0.179 A  
HETATM   12  C   UNL     1      -9.279   5.638  71.184  1.00  0.00    -0.169 A  
HETATM   13  C   UNL     1      -9.103   6.113  69.869  1.00  0.00    -0.146 A  
HETATM   14  C   UNL     1     -11.309   7.034  69.921  1.00  0.00    -0.260 A  
HETATM   15  C   UNL     1     -11.475   6.542  71.229  1.00  0.00    -0.371 A  
HETATM   16  C   UNL     1     -10.460   5.852  71.914  1.00  0.00    -0.220 A  
BRANCH  16  17
HETATM   17  N   UNL     1     -10.596   5.450  73.234  1.00  0.00    -0.227 NA 
HETATM   18  C   UNL     1     -11.283   4.215  73.613  1.00  0.00    -0.225 C  
HETATM   19  C   UNL     1     -10.255   6.310  74.365  1.00  0.00    -0.321 C  
ENDBRANCH  16  17
ENDBRANCH  10  11
BRANCH  10  20
HETATM   20  C   UNL     1      -9.683   6.633  66.812  1.00  0.00    -0.217 A  
HETATM   21  C   UNL     1      -8.227   5.860  64.996  1.00  0.00    -0.138 A  
HETATM   22  C   UNL     1     -10.296   4.564  65.619  1.00  0.00    -0.274 A  
HETATM   23  C   UNL     1      -8.569   6.814  65.879  1.00  0.00    -0.153 A  
HETATM   24  C   UNL     1     -10.620   5.552  66.468  1.00  0.00    -0.343 A  
HETATM   25  C   UNL     1      -8.953   4.542  64.951  1.00  0.00    -0.151 A  
BRANCH  25  26
HETATM   26  N   UNL     1      -8.456   3.480  64.371  1.00  0.00    -0.093 NA 
HETATM   27  C   UNL     1      -7.048   2.993  64.586  1.00  0.00    -0.054 C  
HETATM   28  C   UNL     1      -9.211   2.569  63.448  1.00  0.00    -0.093 C  
ENDBRANCH  25  26
ENDBRANCH  10  20
ENDBRANCH   7  10
ENDBRANCH   2   4
TORSDOF 6
ENDMDL
MODEL       68
REMARK 921   NORMALIZED FREE ENERGY PREDICTED BY IDOCK:   -4.39 KCAL/MOL
REMARK 922        TOTAL FREE ENERGY PREDICTED BY IDOCK:   -7.37 KCAL/MOL
REMARK 923 INTER-LIGAND FREE ENERGY PREDICTED BY IDOCK:   -5.95 KCAL/MOL
REMARK 924 INTRA-LIGAND FREE ENERGY PREDICTED BY IDOCK:   -1.42 KCAL/MOL
REMARK 927      BINDING AFFINITY PREDICTED BY RF-SCORE:    0.00 PKD
ROOT
HETATM    1  C   UNL     1     -11.189  12.789  63.890  1.00  0.00    -0.440 C  
HETATM    2  N   UNL     1     -11.150  12.459  65.314  1.00  0.00    -0.294 NA 
HETATM    3  C   UNL     1     -12.022  13.252  66.181  1.00  0.00    -0.418 C  
ENDROOT
BRANCH   2   4
HETATM    4  C   UNL     1     -10.671  11.223  65.746  1.00  0.00    -0.223 A  
HETATM    5  C   UNL     1      -9.938  10.354  64.913  1.00  0.00    -0.409 A  
HETATM    6  C   UNL     1      -9.499   9.084  65.338  1.00  0.00    -0.163 A  
HETATM    7  C   UNL     1      -9.758   8.637  66.632  1.00  0.00    -0.315 A  
HETATM    8  C   UNL     1     -10.438   9.501  67.495  1.00  0.00    -0.336 A  
HETATM    9  C   UNL     1     -10.878  10.762  67.058  1.00  0.00    -0.311 A  
BRANCH   7  10
HETATM   10  C   UNL     1      -9.409   7.258  67.097  1.00  0.00    -0.170 C  
BRANCH  10  11
HETATM   11  C   UNL     1      -9.748   6.865  68.499  1.00  0.00    -0.138 A  
HETATM   12  C   UNL     1      -9.127   6.652  70.843  1.00  0.00    -0.154 A  
HETATM   13  C   UNL     1      -8.781   6.909  69.501  1.00  0.00    -0.133 A  
HETATM   14  C   UNL     1     -11.047   6.504  68.854  1.00  0.00    -0.371 A  
HETATM   15  C   UNL     1     -11.375   6.237  70.196  1.00  0.00    -0.476 A  
HETATM   16  C   UNL     1     -10.436   6.328  71.238  1.00  0.00    -0.218 A  
BRANCH  16  17
HETATM   17  N   UNL     1     -10.783   6.153  72.569  1.00  0.00    -0.213 NA 
HETATM   18  C   UNL     1     -10.815   7.260  73.525  1.00  0.00    -0.245 C  
HETATM   19  C   UNL     1     -10.945   4.836  73.181  1.00  0.00    -0.300 C  
ENDBRANCH  16  17
ENDBRANCH  10  11
BRANCH  10  20
HETATM   20  C   UNL     1      -8.705   6.387  66.310  1.00  0.00    -0.146 A  
HETATM   21  C   UNL     1      -6.543   5.598  65.462  1.00  0.00    -0.040 A  
HETATM   22  C   UNL     1      -8.623   4.208  65.159  1.00  0.00    -0.116 A  
HETATM   23  C   UNL     1      -7.288   6.582  65.994  1.00  0.00    -0.080 A  
HETATM   24  C   UNL     1      -9.337   5.225  65.666  1.00  0.00    -0.126 A  
HETATM   25  C   UNL     1      -7.123   4.234  65.201  1.00  0.00    -0.063 A  
BRANCH  25  26
HETATM   26  N   UNL     1      -6.381   3.172  65.016  1.00  0.00    -0.023 NA 
HETATM   27  C   UNL     1      -5.440   2.621  66.055  1.00  0.00    -0.016 C  
HETATM   28  C   UNL     1      -6.380   2.325  63.779  1.00  0.00    -0.014 C  
ENDBRANCH  25  26
ENDBRANCH  10  20
ENDBRANCH   7  10
ENDBRANCH   2   4
TORSDOF 6
ENDMDL
MODEL       69
REMARK 921   NORMALIZED FREE ENERGY PREDICTED BY IDOCK:   -4.38 KCAL/MOL
REMARK 922        TOTAL FREE ENERGY PREDICTED BY IDOCK:   -7.35 KCAL/MOL
REMARK 923 INTER-LIGAND FREE ENERGY PREDICTED BY IDOCK:   -5.78 KCAL/MOL
REMARK 924 INTRA-LIGAND FREE ENERGY PREDICTED BY IDOCK:   -1.57 KCAL/MOL
REMARK 927      BINDING AFFINITY PREDICTED BY RF-SCORE:    0.00 PKD
ROOT
HETATM    1  C   UNL     1      -6.464   5.737  63.668  1.00  0.00    -0.029 C  
HETATM    2  N   UNL     1      -7.854   5.782  64.119  1.00  0.00    -0.111 NA 
HETATM    3  C   UNL     1      -8.605   4.530  64.011  1.00  0.00    -0.133 C  
ENDROOT
BRANCH   2   4
HETATM    4  C   UNL     1      -8.292   6.788  64.980  1.00  0.00    -0.048 A  
HETATM    5  C   UNL     1      -7.897   8.134  64.844  1.00  0.00    -0.128 A  
HETATM    6  C   UNL     1      -8.302   9.139  65.746  1.00  0.00    -0.131 A  
HETATM    7  C   UNL     1      -9.143   8.839  66.816  1.00  0.00    -0.180 A  
HETATM    8  C   UNL     1      -9.592   7.522  66.942  1.00  0.00    -0.242 A  
HETATM    9  C   UNL     1      -9.175   6.526  66.042  1.00  0.00    -0.077 A  
BRANCH   7  10
HETATM   10  C   UNL     1      -9.513   9.845  67.860  1.00  0.00    -0.149 C  
BRANCH  10  11
HETATM   11  C   UNL     1      -9.991  11.192  67.423  1.00  0.00    -0.204 A  
HETATM   12  C   UNL     1      -9.523  13.458  66.667  1.00  0.00    -0.264 A  
HETATM   13  C   UNL     1      -9.086  12.225  67.190  1.00  0.00    -0.193 A  
HETATM   14  C   UNL     1     -11.343  11.435  67.177  1.00  0.00    -0.327 A  
HETATM   15  C   UNL     1     -11.766  12.676  66.667  1.00  0.00    -0.464 A  
HETATM   16  C   UNL     1     -10.872  13.719  66.369  1.00  0.00    -0.287 A  
BRANCH  16  17
HETATM   17  N   UNL     1     -11.283  14.905  65.782  1.00  0.00    -0.338 NA 
HETATM   18  C   UNL     1     -12.205  14.942  64.647  1.00  0.00    -0.341 C  
HETATM   19  C   UNL     1     -10.682  16.199  66.100  1.00  0.00    -0.221 C  
ENDBRANCH  16  17
ENDBRANCH  10  11
BRANCH  10  20
HETATM   20  C   UNL     1      -9.335   9.600  69.195  1.00  0.00    -0.172 A  
HETATM   21  C   UNL     1     -10.310   9.287  71.424  1.00  0.00    -0.392 A  
HETATM   22  C   UNL     1      -7.910   8.665  70.976  1.00  0.00    -0.128 A  
HETATM   23  C   UNL     1     -10.404   9.785  70.178  1.00  0.00    -0.335 A  
HETATM   24  C   UNL     1      -8.033   9.199  69.752  1.00  0.00    -0.098 A  
HETATM   25  C   UNL     1      -9.113   8.482  71.854  1.00  0.00    -0.244 A  
BRANCH  25  26
HETATM   26  N   UNL     1      -9.124   7.704  72.906  1.00  0.00    -0.160 NA 
HETATM   27  C   UNL     1     -10.221   6.715  73.200  1.00  0.00    -0.219 C  
HETATM   28  C   UNL     1      -8.045   7.644  73.945  1.00  0.00    -0.173 C  
ENDBRANCH  25  26
ENDBRANCH  10  20
ENDBRANCH   7  10
ENDBRANCH   2   4
TORSDOF 6
ENDMDL
MODEL       70
REMARK 921   NORMALIZED FREE ENERGY PREDICTED BY IDOCK:   -4.33 KCAL/MOL
REMARK 922        TOTAL FREE ENERGY PREDICTED BY IDOCK:   -7.28 KCAL/MOL
REMARK 923 INTER-LIGAND FREE ENERGY PREDICTED BY IDOCK:   -5.59 KCAL/MOL
REMARK 924 INTRA-LIGAND FREE ENERGY PREDICTED BY IDOCK:   -1.70 KCAL/MOL
REMARK 927      BINDING AFFINITY PREDICTED BY RF-SCORE:    0.00 PKD
ROOT
HETATM    1  C   UNL     1     -12.209  13.624  66.492  1.00  0.00    -0.404 C  
HETATM    2  N   UNL     1     -12.052  12.415  65.685  1.00  0.00    -0.584 NA 
HETATM    3  C   UNL     1     -12.407  12.537  64.270  1.00  0.00    -0.456 C  
ENDROOT
BRANCH   2   4
HETATM    4  C   UNL     1     -11.228  11.375  66.112  1.00  0.00    -0.137 A  
HETATM    5  C   UNL     1     -10.379  10.666  65.238  1.00  0.00    -0.321 A  
HETATM    6  C   UNL     1      -9.584   9.582  65.664  1.00  0.00    -0.346 A  
HETATM    7  C   UNL     1      -9.590   9.175  66.997  1.00  0.00    -0.223 A  
HETATM    8  C   UNL     1     -10.384   9.895  67.894  1.00  0.00    -0.256 A  
HETATM    9  C   UNL     1     -11.178  10.969  67.457  1.00  0.00    -0.372 A  
BRANCH   7  10
HETATM   10  C   UNL     1      -8.850   7.967  67.477  1.00  0.00    -0.128 C  
BRANCH  10  11
HETATM   11  C   UNL     1      -9.072   6.663  66.780  1.00  0.00    -0.154 A  
HETATM   12  C   UNL     1     -10.550   4.847  66.115  1.00  0.00    -0.322 A  
HETATM   13  C   UNL     1     -10.302   6.014  66.865  1.00  0.00    -0.303 A  
HETATM   14  C   UNL     1      -8.082   6.094  65.980  1.00  0.00    -0.118 A  
HETATM   15  C   UNL     1      -8.340   4.921  65.247  1.00  0.00    -0.131 A  
HETATM   16  C   UNL     1      -9.587   4.273  65.267  1.00  0.00    -0.185 A  
BRANCH  16  17
HETATM   17  N   UNL     1      -9.865   3.171  64.474  1.00  0.00    -0.150 NA 
HETATM   18  C   UNL     1     -10.887   3.193  63.426  1.00  0.00    -0.209 C  
HETATM   19  C   UNL     1      -9.320   1.841  64.742  1.00  0.00    -0.100 C  
ENDBRANCH  16  17
ENDBRANCH  10  11
BRANCH  10  20
HETATM   20  C   UNL     1      -8.055   8.001  68.591  1.00  0.00    -0.125 A  
HETATM   21  C   UNL     1      -5.961   8.703  69.659  1.00  0.00    -0.032 A  
HETATM   22  C   UNL     1      -7.893   7.877  71.048  1.00  0.00    -0.089 A  
HETATM   23  C   UNL     1      -6.649   8.407  68.542  1.00  0.00    -0.059 A  
HETATM   24  C   UNL     1      -8.536   7.567  69.913  1.00  0.00    -0.138 A  
HETATM   25  C   UNL     1      -6.617   8.666  71.012  1.00  0.00    -0.053 A  
BRANCH  25  26
HETATM   26  N   UNL     1      -6.110   9.260  72.061  1.00  0.00    -0.246 NA 
HETATM   27  C   UNL     1      -6.370   8.820  73.478  1.00  0.00    -0.007 C  
HETATM   28  C   UNL     1      -5.170  10.428  72.020  1.00  0.00     0.062 C  
ENDBRANCH  25  26
ENDBRANCH  10  20
ENDBRANCH   7  10
ENDBRANCH   2   4
TORSDOF 6
ENDMDL
MODEL       71
REMARK 921   NORMALIZED FREE ENERGY PREDICTED BY IDOCK:   -4.29 KCAL/MOL
REMARK 922        TOTAL FREE ENERGY PREDICTED BY IDOCK:   -7.23 KCAL/MOL
REMARK 923 INTER-LIGAND FREE ENERGY PREDICTED BY IDOCK:   -5.69 KCAL/MOL
REMARK 924 INTRA-LIGAND FREE ENERGY PREDICTED BY IDOCK:   -1.55 KCAL/MOL
REMARK 927      BINDING AFFINITY PREDICTED BY RF-SCORE:    0.00 PKD
ROOT
HETATM    1  C   UNL     1     -11.265  13.775  66.279  1.00  0.00    -0.306 C  
HETATM    2  N   UNL     1     -11.141  12.627  65.381  1.00  0.00    -0.285 NA 
HETATM    3  C   UNL     1     -10.956  12.938  63.963  1.00  0.00    -0.411 C  
ENDROOT
BRANCH   2   4
HETATM    4  C   UNL     1     -10.785  11.372  65.874  1.00  0.00    -0.255 A  
HETATM    5  C   UNL     1     -11.214  10.895  67.129  1.00  0.00    -0.258 A  
HETATM    6  C   UNL     1     -10.811   9.647  67.645  1.00  0.00    -0.276 A  
HETATM    7  C   UNL     1      -9.973   8.809  66.912  1.00  0.00    -0.327 A  
HETATM    8  C   UNL     1      -9.576   9.236  65.642  1.00  0.00    -0.324 A  
HETATM    9  C   UNL     1      -9.977  10.486  65.140  1.00  0.00    -0.375 A  
BRANCH   7  10
HETATM   10  C   UNL     1      -9.431   7.526  67.458  1.00  0.00    -0.165 C  
BRANCH  10  11
HETATM   11  C   UNL     1      -9.720   7.172  68.881  1.00  0.00    -0.146 A  
HETATM   12  C   UNL     1     -10.768   5.716  70.527  1.00  0.00    -0.344 A  
HETATM   13  C   UNL     1     -10.586   6.125  69.191  1.00  0.00    -0.345 A  
HETATM   14  C   UNL     1      -9.086   7.834  69.933  1.00  0.00    -0.147 A  
HETATM   15  C   UNL     1      -9.288   7.422  71.264  1.00  0.00    -0.158 A  
HETATM   16  C   UNL     1     -10.111   6.334  71.604  1.00  0.00    -0.188 A  
BRANCH  16  17
HETATM   17  N   UNL     1     -10.234   5.875  72.906  1.00  0.00    -0.185 NA 
HETATM   18  C   UNL     1     -11.222   4.867  73.295  1.00  0.00    -0.345 C  
HETATM   19  C   UNL     1      -9.544   6.495  74.036  1.00  0.00    -0.219 C  
ENDBRANCH  16  17
ENDBRANCH  10  11
BRANCH  10  20
HETATM   20  C   UNL     1      -8.602   6.721  66.725  1.00  0.00    -0.119 A  
HETATM   21  C   UNL     1      -8.315   5.096  64.909  1.00  0.00    -0.145 A  
HETATM   22  C   UNL     1      -6.318   6.243  65.930  1.00  0.00    -0.039 A  
HETATM   23  C   UNL     1      -9.109   5.686  65.821  1.00  0.00    -0.139 A  
HETATM   24  C   UNL     1      -7.137   6.788  66.842  1.00  0.00    -0.075 A  
HETATM   25  C   UNL     1      -6.874   5.501  64.751  1.00  0.00    -0.048 A  
BRANCH  25  26
HETATM   26  N   UNL     1      -6.173   5.217  63.683  1.00  0.00    -0.022 NA 
HETATM   27  C   UNL     1      -6.353   3.959  62.877  1.00  0.00    -0.022 C  
HETATM   28  C   UNL     1      -5.127   6.106  63.078  1.00  0.00    -0.017 C  
ENDBRANCH  25  26
ENDBRANCH  10  20
ENDBRANCH   7  10
ENDBRANCH   2   4
TORSDOF 6
ENDMDL
MODEL       72
REMARK 921   NORMALIZED FREE ENERGY PREDICTED BY IDOCK:   -4.27 KCAL/MOL
REMARK 922        TOTAL FREE ENERGY PREDICTED BY IDOCK:   -7.20 KCAL/MOL
REMARK 923 INTER-LIGAND FREE ENERGY PREDICTED BY IDOCK:   -5.97 KCAL/MOL
REMARK 924 INTRA-LIGAND FREE ENERGY PREDICTED BY IDOCK:   -1.23 KCAL/MOL
REMARK 927      BINDING AFFINITY PREDICTED BY RF-SCORE:    0.00 PKD
ROOT
HETATM    1  C   UNL     1     -10.231  12.338  63.683  1.00  0.00    -0.403 C  
HETATM    2  N   UNL     1      -9.824  10.938  63.569  1.00  0.00    -0.327 NA 
HETATM    3  C   UNL     1      -9.123  10.572  62.338  1.00  0.00    -0.281 C  
ENDROOT
BRANCH   2   4
HETATM    4  C   UNL     1      -9.714  10.134  64.703  1.00  0.00    -0.309 A  
HETATM    5  C   UNL     1      -8.922   8.969  64.738  1.00  0.00    -0.146 A  
HETATM    6  C   UNL     1      -8.853   8.131  65.870  1.00  0.00    -0.194 A  
HETATM    7  C   UNL     1      -9.561   8.441  67.029  1.00  0.00    -0.248 A  
HETATM    8  C   UNL     1     -10.312   9.619  67.038  1.00  0.00    -0.315 A  
HETATM    9  C   UNL     1     -10.380  10.443  65.902  1.00  0.00    -0.261 A  
BRANCH   7  10
HETATM   10  C   UNL     1      -9.607   7.531  68.217  1.00  0.00    -0.157 C  
BRANCH  10  11
HETATM   11  C   UNL     1      -8.990   6.174  68.107  1.00  0.00    -0.114 A  
HETATM   12  C   UNL     1      -9.034   3.895  67.251  1.00  0.00    -0.151 A  
HETATM   13  C   UNL     1      -9.661   5.140  67.457  1.00  0.00    -0.177 A  
HETATM   14  C   UNL     1      -7.707   5.922  68.593  1.00  0.00    -0.094 A  
HETATM   15  C   UNL     1      -7.098   4.669  68.391  1.00  0.00    -0.057 A  
HETATM   16  C   UNL     1      -7.727   3.624  67.692  1.00  0.00    -0.074 A  
BRANCH  16  17
HETATM   17  N   UNL     1      -7.088   2.425  67.416  1.00  0.00    -0.051 NA 
HETATM   18  C   UNL     1      -5.951   1.941  68.201  1.00  0.00    -0.024 C  
HETATM   19  C   UNL     1      -7.351   1.645  66.209  1.00  0.00    -0.060 C  
ENDBRANCH  16  17
ENDBRANCH  10  11
BRANCH  10  20
HETATM   20  C   UNL     1     -10.279   7.869  69.360  1.00  0.00    -0.206 A  
HETATM   21  C   UNL     1     -10.838   9.557  71.049  1.00  0.00    -0.423 A  
HETATM   22  C   UNL     1     -12.159   7.418  70.890  1.00  0.00    -0.290 A  
HETATM   23  C   UNL     1     -10.001   9.101  70.101  1.00  0.00    -0.231 A  
HETATM   24  C   UNL     1     -11.285   6.984  69.970  1.00  0.00    -0.310 A  
HETATM   25  C   UNL     1     -12.123   8.840  71.368  1.00  0.00    -0.307 A  
BRANCH  25  26
HETATM   26  N   UNL     1     -13.109   9.407  72.012  1.00  0.00    -0.401 NA 
HETATM   27  C   UNL     1     -13.373  10.890  71.997  1.00  0.00    -0.289 C  
HETATM   28  C   UNL     1     -14.143   8.680  72.820  1.00  0.00    -0.071 C  
ENDBRANCH  25  26
ENDBRANCH  10  20
ENDBRANCH   7  10
ENDBRANCH   2   4
TORSDOF 6
ENDMDL
MODEL       73
REMARK 921   NORMALIZED FREE ENERGY PREDICTED BY IDOCK:   -4.24 KCAL/MOL
REMARK 922        TOTAL FREE ENERGY PREDICTED BY IDOCK:   -7.16 KCAL/MOL
REMARK 923 INTER-LIGAND FREE ENERGY PREDICTED BY IDOCK:   -5.61 KCAL/MOL
REMARK 924 INTRA-LIGAND FREE ENERGY PREDICTED BY IDOCK:   -1.55 KCAL/MOL
REMARK 927      BINDING AFFINITY PREDICTED BY RF-SCORE:    0.00 PKD
ROOT
HETATM    1  C   UNL     1     -12.795  14.113  65.477  1.00  0.00    -0.376 C  
HETATM    2  N   UNL     1     -12.399  12.962  64.668  1.00  0.00    -0.482 NA 
HETATM    3  C   UNL     1     -12.623  13.082  63.227  1.00  0.00    -0.047 C  
ENDROOT
BRANCH   2   4
HETATM    4  C   UNL     1     -11.491  12.024  65.159  1.00  0.00    -0.287 A  
HETATM    5  C   UNL     1     -10.662  11.252  64.320  1.00  0.00    -0.416 A  
HETATM    6  C   UNL     1      -9.782  10.270  64.818  1.00  0.00    -0.397 A  
HETATM    7  C   UNL     1      -9.679  10.034  66.187  1.00  0.00    -0.286 A  
HETATM    8  C   UNL     1     -10.451  10.823  67.044  1.00  0.00    -0.297 A  
HETATM    9  C   UNL     1     -11.332  11.794  66.537  1.00  0.00    -0.370 A  
BRANCH   7  10
HETATM   10  C   UNL     1      -8.842   8.932  66.757  1.00  0.00    -0.142 C  
BRANCH  10  11
HETATM   11  C   UNL     1      -9.022   7.546  66.230  1.00  0.00    -0.199 A  
HETATM   12  C   UNL     1      -8.259   5.694  64.846  1.00  0.00    -0.134 A  
HETATM   13  C   UNL     1      -8.163   7.038  65.258  1.00  0.00    -0.128 A  
HETATM   14  C   UNL     1     -10.011   6.703  66.737  1.00  0.00    -0.238 A  
HETATM   15  C   UNL     1     -10.103   5.366  66.307  1.00  0.00    -0.209 A  
HETATM   16  C   UNL     1      -9.216   4.809  65.369  1.00  0.00    -0.155 A  
BRANCH  16  17
HETATM   17  N   UNL     1      -9.254   3.469  65.016  1.00  0.00    -0.143 NA 
HETATM   18  C   UNL     1     -10.094   2.965  63.928  1.00  0.00    -0.162 C  
HETATM   19  C   UNL     1      -8.630   2.419  65.818  1.00  0.00    -0.113 C  
ENDBRANCH  16  17
ENDBRANCH  10  11
BRANCH  10  20
HETATM   20  C   UNL     1      -7.992   9.141  67.810  1.00  0.00    -0.101 A  
HETATM   21  C   UNL     1      -5.806   9.897  68.629  1.00  0.00    -0.038 A  
HETATM   22  C   UNL     1      -7.714   9.521  70.230  1.00  0.00    -0.170 A  
HETATM   23  C   UNL     1      -6.566   9.426  67.625  1.00  0.00    -0.063 A  
HETATM   24  C   UNL     1      -8.432   9.028  69.209  1.00  0.00    -0.128 A  
HETATM   25  C   UNL     1      -6.395  10.191  69.982  1.00  0.00    -0.088 A  
BRANCH  25  26
HETATM   26  N   UNL     1      -5.799  10.953  70.863  1.00  0.00    -0.320 NA 
HETATM   27  C   UNL     1      -5.126  10.426  72.103  1.00  0.00     0.025 C  
HETATM   28  C   UNL     1      -5.656  12.442  70.758  1.00  0.00    -0.150 C  
ENDBRANCH  25  26
ENDBRANCH  10  20
ENDBRANCH   7  10
ENDBRANCH   2   4
TORSDOF 6
ENDMDL
MODEL       74
REMARK 921   NORMALIZED FREE ENERGY PREDICTED BY IDOCK:   -4.20 KCAL/MOL
REMARK 922        TOTAL FREE ENERGY PREDICTED BY IDOCK:   -7.10 KCAL/MOL
REMARK 923 INTER-LIGAND FREE ENERGY PREDICTED BY IDOCK:   -5.76 KCAL/MOL
REMARK 924 INTRA-LIGAND FREE ENERGY PREDICTED BY IDOCK:   -1.34 KCAL/MOL
REMARK 927      BINDING AFFINITY PREDICTED BY RF-SCORE:    0.00 PKD
ROOT
HETATM    1  C   UNL     1      -7.549   6.385  62.967  1.00  0.00    -0.081 C  
HETATM    2  N   UNL     1      -6.796   7.425  63.667  1.00  0.00    -0.052 NA 
HETATM    3  C   UNL     1      -5.519   7.808  63.066  1.00  0.00    -0.050 C  
ENDROOT
BRANCH   2   4
HETATM    4  C   UNL     1      -7.432   8.282  64.565  1.00  0.00    -0.101 A  
HETATM    5  C   UNL     1      -6.741   9.269  65.297  1.00  0.00    -0.074 A  
HETATM    6  C   UNL     1      -7.379  10.100  66.240  1.00  0.00    -0.112 A  
HETATM    7  C   UNL     1      -8.748   9.992  66.475  1.00  0.00    -0.142 A  
HETATM    8  C   UNL     1      -9.465   9.057  65.723  1.00  0.00    -0.305 A  
HETATM    9  C   UNL     1      -8.818   8.228  64.791  1.00  0.00     0.134 A  
BRANCH   7  10
HETATM   10  C   UNL     1      -9.451  10.773  67.539  1.00  0.00    -0.168 C  
BRANCH  10  11
HETATM   11  C   UNL     1      -9.616  10.159  68.892  1.00  0.00    -0.186 A  
HETATM   12  C   UNL     1     -11.021   9.107  70.579  1.00  0.00    -0.307 A  
HETATM   13  C   UNL     1     -10.878   9.792  69.356  1.00  0.00    -0.256 A  
HETATM   14  C   UNL     1      -8.513   9.881  69.699  1.00  0.00    -0.198 A  
HETATM   15  C   UNL     1      -8.673   9.208  70.924  1.00  0.00    -0.277 A  
HETATM   16  C   UNL     1      -9.925   8.775  71.393  1.00  0.00    -0.283 A  
BRANCH  16  17
HETATM   17  N   UNL     1     -10.067   8.033  72.556  1.00  0.00    -0.252 NA 
HETATM   18  C   UNL     1      -9.027   7.977  73.585  1.00  0.00    -0.247 C  
HETATM   19  C   UNL     1     -11.160   7.086  72.766  1.00  0.00    -0.284 C  
ENDBRANCH  16  17
ENDBRANCH  10  11
BRANCH  10  20
HETATM   20  C   UNL     1     -10.030  11.987  67.282  1.00  0.00    -0.205 A  
HETATM   21  C   UNL     1     -11.013  14.069  68.128  1.00  0.00    -0.268 A  
HETATM   22  C   UNL     1     -10.362  13.852  65.704  1.00  0.00    -0.337 A  
HETATM   23  C   UNL     1     -10.697  12.777  68.320  1.00  0.00    -0.257 A  
HETATM   24  C   UNL     1     -10.086  12.559  65.927  1.00  0.00    -0.270 A  
HETATM   25  C   UNL     1     -10.661  14.777  66.848  1.00  0.00    -0.308 A  
BRANCH  25  26
HETATM   26  N   UNL     1     -10.633  16.081  66.744  1.00  0.00    -0.315 NA 
HETATM   27  C   UNL     1     -10.707  16.815  65.431  1.00  0.00    -0.189 C  
HETATM   28  C   UNL     1     -10.568  17.036  67.898  1.00  0.00    -0.365 C  
ENDBRANCH  25  26
ENDBRANCH  10  20
ENDBRANCH   7  10
ENDBRANCH   2   4
TORSDOF 6
ENDMDL
MODEL       75
REMARK 921   NORMALIZED FREE ENERGY PREDICTED BY IDOCK:   -4.17 KCAL/MOL
REMARK 922        TOTAL FREE ENERGY PREDICTED BY IDOCK:   -7.07 KCAL/MOL
REMARK 923 INTER-LIGAND FREE ENERGY PREDICTED BY IDOCK:   -5.32 KCAL/MOL
REMARK 924 INTRA-LIGAND FREE ENERGY PREDICTED BY IDOCK:   -1.74 KCAL/MOL
REMARK 927      BINDING AFFINITY PREDICTED BY RF-SCORE:    0.00 PKD
ROOT
HETATM    1  C   UNL     1      -9.836   2.548  63.640  1.00  0.00    -0.137 C  
HETATM    2  N   UNL     1      -8.769   3.514  63.897  1.00  0.00    -0.093 NA 
HETATM    3  C   UNL     1      -7.700   3.571  62.900  1.00  0.00    -0.063 C  
ENDROOT
BRANCH   2   4
HETATM    4  C   UNL     1      -8.972   4.585  64.767  1.00  0.00    -0.152 A  
HETATM    5  C   UNL     1      -8.155   5.734  64.767  1.00  0.00    -0.132 A  
HETATM    6  C   UNL     1      -8.333   6.793  65.680  1.00  0.00    -0.147 A  
HETATM    7  C   UNL     1      -9.358   6.755  66.624  1.00  0.00    -0.197 A  
HETATM    8  C   UNL     1     -10.214   5.651  66.611  1.00  0.00    -0.276 A  
HETATM    9  C   UNL     1     -10.023   4.597  65.700  1.00  0.00    -0.228 A  
BRANCH   7  10
HETATM   10  C   UNL     1      -9.521   7.799  67.683  1.00  0.00    -0.168 C  
BRANCH  10  11
HETATM   11  C   UNL     1      -9.748   7.363  69.094  1.00  0.00    -0.165 A  
HETATM   12  C   UNL     1     -11.255   6.922  70.955  1.00  0.00    -0.332 A  
HETATM   13  C   UNL     1     -11.016   7.440  69.667  1.00  0.00    -0.186 A  
HETATM   14  C   UNL     1      -8.716   6.811  69.854  1.00  0.00    -0.141 A  
HETATM   15  C   UNL     1      -8.967   6.309  71.145  1.00  0.00    -0.146 A  
HETATM   16  C   UNL     1     -10.246   6.322  71.728  1.00  0.00    -0.196 A  
BRANCH  16  17
HETATM   17  N   UNL     1     -10.506   5.744  72.961  1.00  0.00    -0.207 NA 
HETATM   18  C   UNL     1     -11.533   4.719  73.148  1.00  0.00    -0.260 C  
HETATM   19  C   UNL     1      -9.934   6.245  74.209  1.00  0.00    -0.310 C  
ENDBRANCH  16  17
ENDBRANCH  10  11
BRANCH  10  20
HETATM   20  C   UNL     1      -9.568   9.133  67.381  1.00  0.00    -0.193 A  
HETATM   21  C   UNL     1     -10.863  11.073  66.622  1.00  0.00    -0.284 A  
HETATM   22  C   UNL     1      -8.599  11.381  67.683  1.00  0.00    -0.130 A  
HETATM   23  C   UNL     1     -10.695   9.740  66.670  1.00  0.00    -0.106 A  
HETATM   24  C   UNL     1      -8.455  10.047  67.686  1.00  0.00    -0.114 A  
HETATM   25  C   UNL     1      -9.917  12.005  67.330  1.00  0.00    -0.191 A  
BRANCH  25  26
HETATM   26  N   UNL     1     -10.218  13.249  67.600  1.00  0.00    -0.225 NA 
HETATM   27  C   UNL     1     -11.413  13.962  67.023  1.00  0.00    -0.346 C  
HETATM   28  C   UNL     1      -9.460  14.135  68.543  1.00  0.00    -0.202 C  
ENDBRANCH  25  26
ENDBRANCH  10  20
ENDBRANCH   7  10
ENDBRANCH   2   4
TORSDOF 6
ENDMDL
MODEL       76
REMARK 921   NORMALIZED FREE ENERGY PREDICTED BY IDOCK:   -4.10 KCAL/MOL
REMARK 922        TOTAL FREE ENERGY PREDICTED BY IDOCK:   -6.97 KCAL/MOL
REMARK 923 INTER-LIGAND FREE ENERGY PREDICTED BY IDOCK:   -5.51 KCAL/MOL
REMARK 924 INTRA-LIGAND FREE ENERGY PREDICTED BY IDOCK:   -1.46 KCAL/MOL
REMARK 927      BINDING AFFINITY PREDICTED BY RF-SCORE:    0.00 PKD
ROOT
HETATM    1  C   UNL     1     -12.003  13.214  65.058  1.00  0.00    -0.383 C  
HETATM    2  N   UNL     1     -10.927  12.856  65.980  1.00  0.00    -0.273 NA 
HETATM    3  C   UNL     1     -10.446  13.927  66.852  1.00  0.00    -0.276 C  
ENDROOT
BRANCH   2   4
HETATM    4  C   UNL     1     -10.686  11.523  66.312  1.00  0.00    -0.272 A  
HETATM    5  C   UNL     1     -11.151  10.938  67.507  1.00  0.00    -0.375 A  
HETATM    6  C   UNL     1     -10.863   9.604  67.862  1.00  0.00    -0.272 A  
HETATM    7  C   UNL     1     -10.112   8.789  67.018  1.00  0.00    -0.335 A  
HETATM    8  C   UNL     1      -9.684   9.329  65.802  1.00  0.00    -0.339 A  
HETATM    9  C   UNL     1      -9.969  10.663  65.462  1.00  0.00    -0.333 A  
BRANCH   7  10
HETATM   10  C   UNL     1      -9.689   7.405  67.396  1.00  0.00    -0.196 C  
BRANCH  10  11
HETATM   11  C   UNL     1      -9.212   7.154  68.790  1.00  0.00    -0.136 A  
HETATM   12  C   UNL     1      -7.426   7.146  70.445  1.00  0.00    -0.084 A  
HETATM   13  C   UNL     1      -7.861   7.267  69.110  1.00  0.00    -0.117 A  
HETATM   14  C   UNL     1     -10.109   6.863  69.819  1.00  0.00    -0.196 A  
HETATM   15  C   UNL     1      -9.658   6.732  71.146  1.00  0.00    -0.177 A  
HETATM   16  C   UNL     1      -8.310   6.896  71.508  1.00  0.00    -0.114 A  
BRANCH  16  17
HETATM   17  N   UNL     1      -7.885   6.856  72.827  1.00  0.00    -0.097 NA 
HETATM   18  C   UNL     1      -6.504   7.141  73.218  1.00  0.00    -0.065 C  
HETATM   19  C   UNL     1      -8.712   6.332  73.913  1.00  0.00    -0.124 C  
ENDBRANCH  16  17
ENDBRANCH  10  11
BRANCH  10  20
HETATM   20  C   UNL     1      -9.634   6.390  66.479  1.00  0.00    -0.185 A  
HETATM   21  C   UNL     1      -8.301   4.998  64.961  1.00  0.00    -0.140 A  
HETATM   22  C   UNL     1     -10.659   4.345  65.560  1.00  0.00    -0.193 A  
HETATM   23  C   UNL     1      -8.453   6.144  65.648  1.00  0.00    -0.151 A  
HETATM   24  C   UNL     1     -10.783   5.512  66.209  1.00  0.00    -0.191 A  
HETATM   25  C   UNL     1      -9.323   3.896  65.044  1.00  0.00    -0.158 A  
BRANCH  25  26
HETATM   26  N   UNL     1      -9.067   2.665  64.686  1.00  0.00    -0.125 NA 
HETATM   27  C   UNL     1      -8.050   1.791  65.372  1.00  0.00    -0.076 C  
HETATM   28  C   UNL     1      -9.764   1.925  63.584  1.00  0.00    -0.126 C  
ENDBRANCH  25  26
ENDBRANCH  10  20
ENDBRANCH   7  10
ENDBRANCH   2   4
TORSDOF 6
ENDMDL
MODEL       77
REMARK 921   NORMALIZED FREE ENERGY PREDICTED BY IDOCK:   -4.05 KCAL/MOL
REMARK 922        TOTAL FREE ENERGY PREDICTED BY IDOCK:   -6.90 KCAL/MOL
REMARK 923 INTER-LIGAND FREE ENERGY PREDICTED BY IDOCK:   -5.37 KCAL/MOL
REMARK 924 INTRA-LIGAND FREE ENERGY PREDICTED BY IDOCK:   -1.53 KCAL/MOL
REMARK 927      BINDING AFFINITY PREDICTED BY RF-SCORE:    0.00 PKD
ROOT
HETATM    1  C   UNL     1     -13.118  13.973  65.183  1.00  0.00    -0.066 C  
HETATM    2  N   UNL     1     -12.565  12.656  64.874  1.00  0.00    -0.656 NA 
HETATM    3  C   UNL     1     -12.613  12.253  63.468  1.00  0.00    -0.476 C  
ENDROOT
BRANCH   2   4
HETATM    4  C   UNL     1     -11.676  12.032  65.749  1.00  0.00    -0.245 A  
HETATM    5  C   UNL     1     -11.743  12.193  67.148  1.00  0.00    -0.372 A  
HETATM    6  C   UNL     1     -10.813  11.601  68.026  1.00  0.00    -0.259 A  
HETATM    7  C   UNL     1      -9.782  10.800  67.538  1.00  0.00    -0.188 A  
HETATM    8  C   UNL     1      -9.725  10.582  66.159  1.00  0.00    -0.259 A  
HETATM    9  C   UNL     1     -10.653  11.183  65.292  1.00  0.00    -0.303 A  
BRANCH   7  10
HETATM   10  C   UNL     1      -8.709  10.239  68.416  1.00  0.00    -0.129 C  
BRANCH  10  11
HETATM   11  C   UNL     1      -8.798   8.807  68.835  1.00  0.00    -0.137 A  
HETATM   12  C   UNL     1      -9.730   7.080  70.276  1.00  0.00    -0.177 A  
HETATM   13  C   UNL     1      -9.550   8.439  69.949  1.00  0.00    -0.171 A  
HETATM   14  C   UNL     1      -8.187   7.797  68.092  1.00  0.00    -0.124 A  
HETATM   15  C   UNL     1      -8.365   6.445  68.439  1.00  0.00    -0.116 A  
HETATM   16  C   UNL     1      -9.162   6.039  69.523  1.00  0.00    -0.136 A  
BRANCH  16  17
HETATM   17  N   UNL     1      -9.409   4.704  69.805  1.00  0.00    -0.130 NA 
HETATM   18  C   UNL     1      -9.715   4.229  71.155  1.00  0.00    -0.189 C  
HETATM   19  C   UNL     1      -9.184   3.633  68.836  1.00  0.00    -0.160 C  
ENDBRANCH  16  17
ENDBRANCH  10  11
BRANCH  10  20
HETATM   20  C   UNL     1      -7.707  11.022  68.923  1.00  0.00    -0.140 A  
HETATM   21  C   UNL     1      -6.648  13.228  69.100  1.00  0.00    -0.105 A  
HETATM   22  C   UNL     1      -6.008  11.369  70.675  1.00  0.00    -0.040 A  
HETATM   23  C   UNL     1      -7.436  12.373  68.425  1.00  0.00    -0.123 A  
HETATM   24  C   UNL     1      -6.780  10.538  69.959  1.00  0.00    -0.151 A  
HETATM   25  C   UNL     1      -6.035  12.847  70.421  1.00  0.00    -0.105 A  
BRANCH  25  26
HETATM   26  N   UNL     1      -5.561  13.730  71.262  1.00  0.00    -0.209 NA 
HETATM   27  C   UNL     1      -5.132  13.398  72.667  1.00  0.00    -0.073 C  
HETATM   28  C   UNL     1      -5.332  15.180  70.952  1.00  0.00    -0.131 C  
ENDBRANCH  25  26
ENDBRANCH  10  20
ENDBRANCH   7  10
ENDBRANCH   2   4
TORSDOF 6
ENDMDL
MODEL       78
REMARK 921   NORMALIZED FREE ENERGY PREDICTED BY IDOCK:   -4.04 KCAL/MOL
REMARK 922        TOTAL FREE ENERGY PREDICTED BY IDOCK:   -6.89 KCAL/MOL
REMARK 923 INTER-LIGAND FREE ENERGY PREDICTED BY IDOCK:   -5.29 KCAL/MOL
REMARK 924 INTRA-LIGAND FREE ENERGY PREDICTED BY IDOCK:   -1.60 KCAL/MOL
REMARK 927      BINDING AFFINITY PREDICTED BY RF-SCORE:    0.00 PKD
ROOT
HETATM    1  C   UNL     1     -11.387   7.768  72.782  1.00  0.00    -0.389 C  
HETATM    2  N   UNL     1     -12.024   8.698  71.851  1.00  0.00    -0.331 NA 
HETATM    3  C   UNL     1     -13.274   9.307  72.307  1.00  0.00    -0.460 C  
ENDROOT
BRANCH   2   4
HETATM    4  C   UNL     1     -11.293   9.289  70.821  1.00  0.00    -0.287 A  
HETATM    5  C   UNL     1     -10.145   8.694  70.261  1.00  0.00    -0.206 A  
HETATM    6  C   UNL     1      -9.380   9.319  69.255  1.00  0.00    -0.160 A  
HETATM    7  C   UNL     1      -9.749  10.563  68.749  1.00  0.00    -0.187 A  
HETATM    8  C   UNL     1     -10.914  11.151  69.250  1.00  0.00    -0.300 A  
HETATM    9  C   UNL     1     -11.664  10.523  70.259  1.00  0.00    -0.420 A  
BRANCH   7  10
HETATM   10  C   UNL     1      -8.913  11.315  67.761  1.00  0.00    -0.141 C  
BRANCH  10  11
HETATM   11  C   UNL     1      -8.656  12.768  67.995  1.00  0.00    -0.186 A  
HETATM   12  C   UNL     1      -7.347  14.544  69.025  1.00  0.00    -0.132 A  
HETATM   13  C   UNL     1      -7.670  13.179  68.891  1.00  0.00     0.080 A  
HETATM   14  C   UNL     1      -9.346  13.749  67.283  1.00  0.00    -0.239 A  
HETATM   15  C   UNL     1      -9.021  15.109  67.438  1.00  0.00    -0.193 A  
HETATM   16  C   UNL     1      -7.995  15.552  68.291  1.00  0.00    -0.132 A  
BRANCH  16  17
HETATM   17  N   UNL     1      -7.617  16.883  68.371  1.00  0.00    -0.199 NA 
HETATM   18  C   UNL     1      -6.743  17.390  69.429  1.00  0.00    -0.187 C  
HETATM   19  C   UNL     1      -8.214  17.929  67.543  1.00  0.00    -0.227 C  
ENDBRANCH  16  17
ENDBRANCH  10  11
BRANCH  10  20
HETATM   20  C   UNL     1      -8.464  10.735  66.605  1.00  0.00    -0.142 A  
HETATM   21  C   UNL     1      -6.620  10.313  65.044  1.00  0.00    -0.114 A  
HETATM   22  C   UNL     1      -8.753   8.981  64.896  1.00  0.00    -0.200 A  
HETATM   23  C   UNL     1      -7.170  11.072  66.007  1.00  0.00    -0.014 A  
HETATM   24  C   UNL     1      -9.279   9.779  65.838  1.00  0.00    -0.236 A  
HETATM   25  C   UNL     1      -7.293   9.057  64.560  1.00  0.00    -0.099 A  
BRANCH  25  26
HETATM   26  N   UNL     1      -6.659   8.125  63.896  1.00  0.00    -0.067 NA 
HETATM   27  C   UNL     1      -6.709   6.664  64.256  1.00  0.00    -0.041 C  
HETATM   28  C   UNL     1      -5.832   8.354  62.666  1.00  0.00    -0.079 C  
ENDBRANCH  25  26
ENDBRANCH  10  20
ENDBRANCH   7  10
ENDBRANCH   2   4
TORSDOF 6
ENDMDL
MODEL       79
REMARK 921   NORMALIZED FREE ENERGY PREDICTED BY IDOCK:   -4.04 KCAL/MOL
REMARK 922        TOTAL FREE ENERGY PREDICTED BY IDOCK:   -6.89 KCAL/MOL
REMARK 923 INTER-LIGAND FREE ENERGY PREDICTED BY IDOCK:   -6.23 KCAL/MOL
REMARK 924 INTRA-LIGAND FREE ENERGY PREDICTED BY IDOCK:   -0.66 KCAL/MOL
REMARK 927      BINDING AFFINITY PREDICTED BY RF-SCORE:    0.00 PKD
ROOT
HETATM    1  C   UNL     1     -12.124  16.558  73.155  1.00  0.00    -0.388 C  
HETATM    2  N   UNL     1     -13.020  15.594  72.516  1.00  0.00    -0.416 NA 
HETATM    3  C   UNL     1     -14.406  16.026  72.338  1.00  0.00     0.106 C  
ENDROOT
BRANCH   2   4
HETATM    4  C   UNL     1     -12.510  14.547  71.750  1.00  0.00    -0.348 A  
HETATM    5  C   UNL     1     -11.464  14.719  70.821  1.00  0.00    -0.273 A  
HETATM    6  C   UNL     1     -10.985  13.669  70.012  1.00  0.00     0.331 A  
HETATM    7  C   UNL     1     -11.523  12.387  70.117  1.00  0.00    -0.018 A  
HETATM    8  C   UNL     1     -12.525  12.178  71.067  1.00  0.00    -0.369 A  
HETATM    9  C   UNL     1     -13.001  13.234  71.863  1.00  0.00    -0.409 A  
BRANCH   7  10
HETATM   10  C   UNL     1     -11.125  11.267  69.208  1.00  0.00    -0.314 C  
BRANCH  10  11
HETATM   11  C   UNL     1     -11.097   9.875  69.753  1.00  0.00    -0.294 A  
HETATM   12  C   UNL     1     -10.315   7.573  69.632  1.00  0.00    -0.225 A  
HETATM   13  C   UNL     1     -10.443   8.856  69.064  1.00  0.00    -0.231 A  
HETATM   14  C   UNL     1     -11.666   9.572  70.990  1.00  0.00    -0.419 A  
HETATM   15  C   UNL     1     -11.542   8.282  71.539  1.00  0.00    -0.326 A  
HETATM   16  C   UNL     1     -10.841   7.248  70.894  1.00  0.00    -0.243 A  
BRANCH  16  17
HETATM   17  N   UNL     1     -10.643   6.007  71.479  1.00  0.00    -0.234 NA 
HETATM   18  C   UNL     1     -11.504   5.494  72.545  1.00  0.00    -0.244 C  
HETATM   19  C   UNL     1      -9.451   5.196  71.238  1.00  0.00    -0.153 C  
ENDBRANCH  16  17
ENDBRANCH  10  11
BRANCH  10  20
HETATM   20  C   UNL     1     -10.696  11.492  67.928  1.00  0.00    -0.241 A  
HETATM   21  C   UNL     1      -8.840  11.657  66.332  1.00  0.00    -0.182 A  
HETATM   22  C   UNL     1     -11.219  11.508  65.519  1.00  0.00    -0.204 A  
HETATM   23  C   UNL     1      -9.285  11.713  67.600  1.00  0.00    -0.178 A  
HETATM   24  C   UNL     1     -11.627  11.597  66.794  1.00  0.00    -0.220 A  
HETATM   25  C   UNL     1      -9.766  11.326  65.193  1.00  0.00    -0.244 A  
BRANCH  25  26
HETATM   26  N   UNL     1      -9.336  10.928  64.024  1.00  0.00    -0.229 NA 
HETATM   27  C   UNL     1      -9.545  11.704  62.750  1.00  0.00    -0.056 C  
HETATM   28  C   UNL     1      -8.542   9.680  63.776  1.00  0.00    -0.208 C  
ENDBRANCH  25  26
ENDBRANCH  10  20
ENDBRANCH   7  10
ENDBRANCH   2   4
TORSDOF 6
ENDMDL
MODEL       80
REMARK 921   NORMALIZED FREE ENERGY PREDICTED BY IDOCK:   -4.02 KCAL/MOL
REMARK 922        TOTAL FREE ENERGY PREDICTED BY IDOCK:   -6.86 KCAL/MOL
REMARK 923 INTER-LIGAND FREE ENERGY PREDICTED BY IDOCK:   -5.15 KCAL/MOL
REMARK 924 INTRA-LIGAND FREE ENERGY PREDICTED BY IDOCK:   -1.71 KCAL/MOL
REMARK 927      BINDING AFFINITY PREDICTED BY RF-SCORE:    0.00 PKD
ROOT
HETATM    1  C   UNL     1     -11.896  14.649  65.294  1.00  0.00    -0.324 C  
HETATM    2  N   UNL     1     -10.904  14.533  66.362  1.00  0.00    -0.312 NA 
HETATM    3  C   UNL     1     -10.635  15.752  67.125  1.00  0.00    -0.313 C  
ENDROOT
BRANCH   2   4
HETATM    4  C   UNL     1     -10.573  13.287  66.895  1.00  0.00    -0.264 A  
HETATM    5  C   UNL     1      -9.277  12.970  67.348  1.00  0.00    -0.208 A  
HETATM    6  C   UNL     1      -8.935  11.695  67.840  1.00  0.00    -0.170 A  
HETATM    7  C   UNL     1      -9.889  10.682  67.920  1.00  0.00    -0.181 A  
HETATM    8  C   UNL     1     -11.195  10.987  67.526  1.00  0.00    -0.372 A  
HETATM    9  C   UNL     1     -11.523  12.260  67.030  1.00  0.00    -0.419 A  
BRANCH   7  10
HETATM   10  C   UNL     1      -9.553   9.284  68.332  1.00  0.00    -0.158 C  
BRANCH  10  11
HETATM   11  C   UNL     1      -8.752   9.073  69.576  1.00  0.00    -0.144 A  
HETATM   12  C   UNL     1      -8.638   8.655  71.971  1.00  0.00    -0.216 A  
HETATM   13  C   UNL     1      -9.379   8.970  70.815  1.00  0.00    -0.305 A  
HETATM   14  C   UNL     1      -7.367   8.913  69.525  1.00  0.00    -0.071 A  
HETATM   15  C   UNL     1      -6.638   8.612  70.690  1.00  0.00    -0.042 A  
HETATM   16  C   UNL     1      -7.248   8.446  71.946  1.00  0.00    -0.095 A  
BRANCH  16  17
HETATM   17  N   UNL     1      -6.538   8.061  73.072  1.00  0.00    -0.076 NA 
HETATM   18  C   UNL     1      -6.921   8.474  74.423  1.00  0.00    -0.147 C  
HETATM   19  C   UNL     1      -5.242   7.389  73.002  1.00  0.00    -0.037 C  
ENDBRANCH  16  17
ENDBRANCH  10  11
BRANCH  10  20
HETATM   20  C   UNL     1      -9.872   8.204  67.553  1.00  0.00    -0.230 A  
HETATM   21  C   UNL     1      -9.401   6.820  65.583  1.00  0.00     0.255 A  
HETATM   22  C   UNL     1     -10.966   6.001  67.380  1.00  0.00    -0.344 A  
HETATM   23  C   UNL     1      -9.302   8.000  66.219  1.00  0.00    -0.246 A  
HETATM   24  C   UNL     1     -10.866   7.202  67.969  1.00  0.00    -0.193 A  
HETATM   25  C   UNL     1     -10.072   5.638  66.230  1.00  0.00    -0.114 A  
BRANCH  25  26
HETATM   26  N   UNL     1      -9.896   4.410  65.816  1.00  0.00    -0.207 NA 
HETATM   27  C   UNL     1      -9.612   3.252  66.736  1.00  0.00    -0.022 C  
HETATM   28  C   UNL     1      -9.992   3.960  64.389  1.00  0.00    -0.196 C  
ENDBRANCH  25  26
ENDBRANCH  10  20
ENDBRANCH   7  10
ENDBRANCH   2   4
TORSDOF 6
ENDMDL
MODEL       81
REMARK 921   NORMALIZED FREE ENERGY PREDICTED BY IDOCK:   -3.97 KCAL/MOL
REMARK 922        TOTAL FREE ENERGY PREDICTED BY IDOCK:   -6.80 KCAL/MOL
REMARK 923 INTER-LIGAND FREE ENERGY PREDICTED BY IDOCK:   -5.13 KCAL/MOL
REMARK 924 INTRA-LIGAND FREE ENERGY PREDICTED BY IDOCK:   -1.68 KCAL/MOL
REMARK 927      BINDING AFFINITY PREDICTED BY RF-SCORE:    0.00 PKD
ROOT
HETATM    1  C   UNL     1     -11.878  11.877  63.528  1.00  0.00    -0.460 C  
HETATM    2  N   UNL     1     -10.619  11.141  63.635  1.00  0.00    -0.373 NA 
HETATM    3  C   UNL     1      -9.888  10.933  62.385  1.00  0.00     0.080 C  
ENDROOT
BRANCH   2   4
HETATM    4  C   UNL     1      -9.957  11.037  64.858  1.00  0.00    -0.288 A  
HETATM    5  C   UNL     1      -8.652  10.518  64.978  1.00  0.00    -0.184 A  
HETATM    6  C   UNL     1      -8.005  10.369  66.222  1.00  0.00    -0.138 A  
HETATM    7  C   UNL     1      -8.635  10.756  67.403  1.00  0.00    -0.126 A  
HETATM    8  C   UNL     1      -9.908  11.323  67.306  1.00  0.00    -0.203 A  
HETATM    9  C   UNL     1     -10.547  11.461  66.062  1.00  0.00    -0.319 A  
BRANCH   7  10
HETATM   10  C   UNL     1      -8.036  10.519  68.754  1.00  0.00    -0.131 C  
BRANCH  10  11
HETATM   11  C   UNL     1      -8.510   9.350  69.555  1.00  0.00    -0.152 A  
HETATM   12  C   UNL     1     -10.007   8.397  71.222  1.00  0.00    -0.261 A  
HETATM   13  C   UNL     1      -9.475   9.514  70.548  1.00  0.00    -0.306 A  
HETATM   14  C   UNL     1      -8.050   8.060  69.293  1.00  0.00    -0.118 A  
HETATM   15  C   UNL     1      -8.581   6.956  69.984  1.00  0.00    -0.141 A  
HETATM   16  C   UNL     1      -9.594   7.082  70.951  1.00  0.00    -0.167 A  
BRANCH  16  17
HETATM   17  N   UNL     1     -10.178   5.983  71.563  1.00  0.00    -0.199 NA 
HETATM   18  C   UNL     1      -9.711   4.615  71.335  1.00  0.00    -0.179 C  
HETATM   19  C   UNL     1     -11.427   6.065  72.317  1.00  0.00    -0.312 C  
ENDBRANCH  16  17
ENDBRANCH  10  11
BRANCH  10  20
HETATM   20  C   UNL     1      -7.144  11.394  69.313  1.00  0.00    -0.100 A  
HETATM   21  C   UNL     1      -6.395  13.707  69.645  1.00  0.00    -0.110 A  
HETATM   22  C   UNL     1      -5.487  11.846  71.081  1.00  0.00    -0.017 A  
HETATM   23  C   UNL     1      -7.067  12.802  68.913  1.00  0.00    -0.067 A  
HETATM   24  C   UNL     1      -6.147  10.971  70.308  1.00  0.00    -0.144 A  
HETATM   25  C   UNL     1      -5.719  13.321  70.934  1.00  0.00    -0.167 A  
BRANCH  25  26
HETATM   26  N   UNL     1      -5.359  14.199  71.834  1.00  0.00    -0.194 NA 
HETATM   27  C   UNL     1      -5.151  15.661  71.538  1.00  0.00    -0.093 C  
HETATM   28  C   UNL     1      -5.143  13.903  73.289  1.00  0.00    -0.258 C  
ENDBRANCH  25  26
ENDBRANCH  10  20
ENDBRANCH   7  10
ENDBRANCH   2   4
TORSDOF 6
ENDMDL
MODEL       82
REMARK 921   NORMALIZED FREE ENERGY PREDICTED BY IDOCK:   -3.97 KCAL/MOL
REMARK 922        TOTAL FREE ENERGY PREDICTED BY IDOCK:   -6.79 KCAL/MOL
REMARK 923 INTER-LIGAND FREE ENERGY PREDICTED BY IDOCK:   -5.96 KCAL/MOL
REMARK 924 INTRA-LIGAND FREE ENERGY PREDICTED BY IDOCK:   -0.84 KCAL/MOL
REMARK 927      BINDING AFFINITY PREDICTED BY RF-SCORE:    0.00 PKD
ROOT
HETATM    1  C   UNL     1      -9.627   6.335  72.622  1.00  0.00    -0.151 C  
HETATM    2  N   UNL     1      -8.794   6.954  71.592  1.00  0.00    -0.129 NA 
HETATM    3  C   UNL     1      -7.738   6.112  71.028  1.00  0.00    -0.102 C  
ENDROOT
BRANCH   2   4
HETATM    4  C   UNL     1      -9.238   8.078  70.897  1.00  0.00    -0.149 A  
HETATM    5  C   UNL     1      -8.360   9.041  70.361  1.00  0.00    -0.180 A  
HETATM    6  C   UNL     1      -8.814  10.201  69.702  1.00  0.00    -0.184 A  
HETATM    7  C   UNL     1     -10.177  10.436  69.532  1.00  0.00    -0.258 A  
HETATM    8  C   UNL     1     -11.068   9.470  70.008  1.00  0.00    -0.268 A  
HETATM    9  C   UNL     1     -10.604   8.320  70.670  1.00  0.00    -0.235 A  
BRANCH   7  10
HETATM   10  C   UNL     1     -10.713  11.700  68.937  1.00  0.00    -0.244 C  
BRANCH  10  11
HETATM   11  C   UNL     1     -11.431  12.664  69.825  1.00  0.00    -0.200 A  
HETATM   12  C   UNL     1     -12.941  13.106  71.683  1.00  0.00    -0.429 A  
HETATM   13  C   UNL     1     -12.351  12.211  70.768  1.00  0.00    -0.391 A  
HETATM   14  C   UNL     1     -11.157  14.031  69.779  1.00  0.00    -0.101 A  
HETATM   15  C   UNL     1     -11.763  14.915  70.691  1.00  0.00    -0.357 A  
HETATM   16  C   UNL     1     -12.653  14.481  71.689  1.00  0.00    -0.348 A  
BRANCH  16  17
HETATM   17  N   UNL     1     -13.176  15.341  72.642  1.00  0.00    -0.410 NA 
HETATM   18  C   UNL     1     -14.320  16.213  72.371  1.00  0.00     0.386 C  
HETATM   19  C   UNL     1     -12.517  15.608  73.919  1.00  0.00    -0.630 C  
ENDBRANCH  16  17
ENDBRANCH  10  11
BRANCH  10  20
HETATM   20  C   UNL     1     -10.650  11.950  67.593  1.00  0.00    -0.241 A  
HETATM   21  C   UNL     1      -9.592  11.518  65.422  1.00  0.00    -0.249 A  
HETATM   22  C   UNL     1     -11.798  12.728  65.555  1.00  0.00    -0.466 A  
HETATM   23  C   UNL     1      -9.522  11.516  66.765  1.00  0.00    -0.202 A  
HETATM   24  C   UNL     1     -11.678  12.734  66.891  1.00  0.00    -0.447 A  
HETATM   25  C   UNL     1     -10.850  11.932  64.706  1.00  0.00    -0.307 A  
BRANCH  25  26
HETATM   26  N   UNL     1     -11.084  11.631  63.455  1.00  0.00    -0.414 NA 
HETATM   27  C   UNL     1     -10.002  11.311  62.458  1.00  0.00     0.164 C  
HETATM   28  C   UNL     1     -12.445  11.518  62.836  1.00  0.00     0.585 C  
ENDBRANCH  25  26
ENDBRANCH  10  20
ENDBRANCH   7  10
ENDBRANCH   2   4
TORSDOF 6
ENDMDL
MODEL       83
REMARK 921   NORMALIZED FREE ENERGY PREDICTED BY IDOCK:   -3.96 KCAL/MOL
REMARK 922        TOTAL FREE ENERGY PREDICTED BY IDOCK:   -6.78 KCAL/MOL
REMARK 923 INTER-LIGAND FREE ENERGY PREDICTED BY IDOCK:   -5.04 KCAL/MOL
REMARK 924 INTRA-LIGAND FREE ENERGY PREDICTED BY IDOCK:   -1.74 KCAL/MOL
REMARK 927      BINDING AFFINITY PREDICTED BY RF-SCORE:    0.00 PKD
ROOT
HETATM    1  C   UNL     1     -12.493  14.618  65.459  1.00  0.00    -0.136 C  
HETATM    2  N   UNL     1     -11.207  14.534  66.151  1.00  0.00    -0.334 NA 
HETATM    3  C   UNL     1     -10.745  15.761  66.799  1.00  0.00    -0.293 C  
ENDROOT
BRANCH   2   4
HETATM    4  C   UNL     1     -10.686  13.300  66.538  1.00  0.00    -0.285 A  
HETATM    5  C   UNL     1      -9.322  13.106  66.836  1.00  0.00    -0.246 A  
HETATM    6  C   UNL     1      -8.790  11.847  67.178  1.00  0.00    -0.180 A  
HETATM    7  C   UNL     1      -9.612  10.724  67.259  1.00  0.00    -0.182 A  
HETATM    8  C   UNL     1     -10.978  10.900  67.020  1.00  0.00    -0.310 A  
HETATM    9  C   UNL     1     -11.496  12.159  66.671  1.00  0.00    -0.426 A  
BRANCH   7  10
HETATM   10  C   UNL     1      -9.081   9.349  67.512  1.00  0.00    -0.136 C  
BRANCH  10  11
HETATM   11  C   UNL     1      -8.624   8.997  68.891  1.00  0.00    -0.131 A  
HETATM   12  C   UNL     1      -6.837   8.727  70.521  1.00  0.00    -0.046 A  
HETATM   13  C   UNL     1      -7.266   8.943  69.196  1.00  0.00    -0.067 A  
HETATM   14  C   UNL     1      -9.539   8.774  69.920  1.00  0.00    -0.182 A  
HETATM   15  C   UNL     1      -9.095   8.547  71.236  1.00  0.00    -0.250 A  
HETATM   16  C   UNL     1      -7.734   8.542  71.587  1.00  0.00    -0.117 A  
BRANCH  16  17
HETATM   17  N   UNL     1      -7.305   8.408  72.898  1.00  0.00    -0.259 NA 
HETATM   18  C   UNL     1      -8.229   8.161  74.006  1.00  0.00    -0.253 C  
HETATM   19  C   UNL     1      -5.938   8.704  73.321  1.00  0.00    -0.098 C  
ENDBRANCH  16  17
ENDBRANCH  10  11
BRANCH  10  20
HETATM   20  C   UNL     1      -8.912   8.442  66.500  1.00  0.00    -0.190 A  
HETATM   21  C   UNL     1      -8.017   7.915  64.278  1.00  0.00    -0.130 A  
HETATM   22  C   UNL     1      -8.818   6.078  65.805  1.00  0.00    -0.143 A  
HETATM   23  C   UNL     1      -8.441   8.829  65.168  1.00  0.00    -0.192 A  
HETATM   24  C   UNL     1      -9.256   7.020  66.655  1.00  0.00    -0.189 A  
HETATM   25  C   UNL     1      -7.972   6.451  64.623  1.00  0.00    -0.118 A  
BRANCH  25  26
HETATM   26  N   UNL     1      -7.265   5.585  63.944  1.00  0.00    -0.049 NA 
HETATM   27  C   UNL     1      -7.802   4.262  63.466  1.00  0.00    -0.079 C  
HETATM   28  C   UNL     1      -5.846   5.787  63.501  1.00  0.00    -0.021 C  
ENDBRANCH  25  26
ENDBRANCH  10  20
ENDBRANCH   7  10
ENDBRANCH   2   4
TORSDOF 6
ENDMDL
MODEL       84
REMARK 921   NORMALIZED FREE ENERGY PREDICTED BY IDOCK:   -3.95 KCAL/MOL
REMARK 922        TOTAL FREE ENERGY PREDICTED BY IDOCK:   -6.77 KCAL/MOL
REMARK 923 INTER-LIGAND FREE ENERGY PREDICTED BY IDOCK:   -5.58 KCAL/MOL
REMARK 924 INTRA-LIGAND FREE ENERGY PREDICTED BY IDOCK:   -1.19 KCAL/MOL
REMARK 927      BINDING AFFINITY PREDICTED BY RF-SCORE:    0.00 PKD
ROOT
HETATM    1  C   UNL     1     -10.847   5.439  73.814  1.00  0.00    -0.233 C  
HETATM    2  N   UNL     1     -10.157   6.619  73.294  1.00  0.00    -0.193 NA 
HETATM    3  C   UNL     1      -9.236   7.283  74.217  1.00  0.00    -0.190 C  
ENDROOT
BRANCH   2   4
HETATM    4  C   UNL     1     -10.044   6.831  71.921  1.00  0.00    -0.180 A  
HETATM    5  C   UNL     1      -8.802   6.891  71.257  1.00  0.00    -0.135 A  
HETATM    6  C   UNL     1      -8.690   7.155  69.877  1.00  0.00    -0.142 A  
HETATM    7  C   UNL     1      -9.827   7.349  69.094  1.00  0.00    -0.168 A  
HETATM    8  C   UNL     1     -11.072   7.241  69.718  1.00  0.00    -0.203 A  
HETATM    9  C   UNL     1     -11.172   6.986  71.097  1.00  0.00    -0.304 A  
BRANCH   7  10
HETATM   10  C   UNL     1      -9.759   7.738  67.651  1.00  0.00    -0.193 C  
BRANCH  10  11
HETATM   11  C   UNL     1      -9.862   9.185  67.290  1.00  0.00    -0.244 A  
HETATM   12  C   UNL     1      -9.618  11.533  67.882  1.00  0.00    -0.178 A  
HETATM   13  C   UNL     1      -9.636  10.172  68.246  1.00  0.00    -0.150 A  
HETATM   14  C   UNL     1     -10.124   9.586  65.980  1.00  0.00    -0.319 A  
HETATM   15  C   UNL     1     -10.116  10.949  65.634  1.00  0.00    -0.318 A  
HETATM   16  C   UNL     1      -9.836  11.967  66.563  1.00  0.00    -0.206 A  
BRANCH  16  17
HETATM   17  N   UNL     1      -9.739  13.300  66.198  1.00  0.00    -0.275 NA 
HETATM   18  C   UNL     1      -9.307  14.342  67.131  1.00  0.00    -0.228 C  
HETATM   19  C   UNL     1     -10.250  13.816  64.929  1.00  0.00    -0.348 C  
ENDBRANCH  16  17
ENDBRANCH  10  11
BRANCH  10  20
HETATM   20  C   UNL     1      -9.704   6.803  66.653  1.00  0.00    -0.213 A  
HETATM   21  C   UNL     1      -8.494   5.819  64.758  1.00  0.00    -0.079 A  
HETATM   22  C   UNL     1     -10.456   4.620  65.789  1.00  0.00    -0.290 A  
HETATM   23  C   UNL     1      -8.723   6.869  65.567  1.00  0.00    -0.041 A  
HETATM   24  C   UNL     1     -10.671   5.698  66.557  1.00  0.00    -0.296 A  
HETATM   25  C   UNL     1      -9.212   4.511  64.956  1.00  0.00    -0.157 A  
BRANCH  25  26
HETATM   26  N   UNL     1      -8.791   3.387  64.438  1.00  0.00    -0.103 NA 
HETATM   27  C   UNL     1      -7.348   3.110  64.106  1.00  0.00    -0.066 C  
HETATM   28  C   UNL     1      -9.655   2.199  64.136  1.00  0.00    -0.133 C  
ENDBRANCH  25  26
ENDBRANCH  10  20
ENDBRANCH   7  10
ENDBRANCH   2   4
TORSDOF 6
ENDMDL
MODEL       85
REMARK 921   NORMALIZED FREE ENERGY PREDICTED BY IDOCK:   -3.95 KCAL/MOL
REMARK 922        TOTAL FREE ENERGY PREDICTED BY IDOCK:   -6.77 KCAL/MOL
REMARK 923 INTER-LIGAND FREE ENERGY PREDICTED BY IDOCK:   -5.21 KCAL/MOL
REMARK 924 INTRA-LIGAND FREE ENERGY PREDICTED BY IDOCK:   -1.56 KCAL/MOL
REMARK 927      BINDING AFFINITY PREDICTED BY RF-SCORE:    0.00 PKD
ROOT
HETATM    1  C   UNL     1     -12.324  13.362  70.119  1.00  0.00    -0.252 C  
HETATM    2  N   UNL     1     -11.712  12.694  68.972  1.00  0.00    -0.305 NA 
HETATM    3  C   UNL     1     -11.231  13.568  67.902  1.00  0.00    -0.274 C  
ENDROOT
BRANCH   2   4
HETATM    4  C   UNL     1     -11.230  11.391  69.080  1.00  0.00    -0.256 A  
HETATM    5  C   UNL     1     -10.304  10.841  68.170  1.00  0.00    -0.197 A  
HETATM    6  C   UNL     1      -9.857   9.507  68.254  1.00  0.00    -0.174 A  
HETATM    7  C   UNL     1     -10.305   8.668  69.273  1.00  0.00    -0.228 A  
HETATM    8  C   UNL     1     -11.183   9.204  70.218  1.00  0.00    -0.249 A  
HETATM    9  C   UNL     1     -11.628  10.534  70.121  1.00  0.00    -0.408 A  
BRANCH   7  10
HETATM   10  C   UNL     1      -9.946   7.217  69.343  1.00  0.00    -0.170 C  
BRANCH  10  11
HETATM   11  C   UNL     1      -9.886   6.429  68.075  1.00  0.00    -0.126 A  
HETATM   12  C   UNL     1      -8.722   4.879  66.602  1.00  0.00    -0.108 A  
HETATM   13  C   UNL     1      -8.738   5.715  67.736  1.00  0.00    -0.107 A  
HETATM   14  C   UNL     1     -10.991   6.335  67.229  1.00  0.00    -0.455 A  
HETATM   15  C   UNL     1     -10.956   5.506  66.093  1.00  0.00     0.056 A  
HETATM   16  C   UNL     1      -9.833   4.730  65.755  1.00  0.00    -0.199 A  
BRANCH  16  17
HETATM   17  N   UNL     1      -9.835   3.847  64.687  1.00  0.00    -0.183 NA 
HETATM   18  C   UNL     1      -8.846   2.777  64.549  1.00  0.00    -0.111 C  
HETATM   19  C   UNL     1     -10.683   4.026  63.510  1.00  0.00    -0.066 C  
ENDBRANCH  16  17
ENDBRANCH  10  11
BRANCH  10  20
HETATM   20  C   UNL     1      -9.768   6.574  70.538  1.00  0.00    -0.186 A  
HETATM   21  C   UNL     1     -10.651   5.084  72.275  1.00  0.00    -0.269 A  
HETATM   22  C   UNL     1      -8.201   5.666  72.211  1.00  0.00    -0.108 A  
HETATM   23  C   UNL     1     -10.872   5.939  71.261  1.00  0.00    -0.333 A  
HETATM   24  C   UNL     1      -8.465   6.532  71.222  1.00  0.00    -0.126 A  
HETATM   25  C   UNL     1      -9.253   4.711  72.691  1.00  0.00    -0.126 A  
BRANCH  25  26
HETATM   26  N   UNL     1      -8.989   3.654  73.415  1.00  0.00    -0.094 NA 
HETATM   27  C   UNL     1      -7.742   3.503  74.246  1.00  0.00    -0.062 C  
HETATM   28  C   UNL     1      -9.889   2.464  73.566  1.00  0.00    -0.096 C  
ENDBRANCH  25  26
ENDBRANCH  10  20
ENDBRANCH   7  10
ENDBRANCH   2   4
TORSDOF 6
ENDMDL
MODEL       86
REMARK 921   NORMALIZED FREE ENERGY PREDICTED BY IDOCK:   -3.91 KCAL/MOL
REMARK 922        TOTAL FREE ENERGY PREDICTED BY IDOCK:   -6.72 KCAL/MOL
REMARK 923 INTER-LIGAND FREE ENERGY PREDICTED BY IDOCK:   -5.22 KCAL/MOL
REMARK 924 INTRA-LIGAND FREE ENERGY PREDICTED BY IDOCK:   -1.50 KCAL/MOL
REMARK 927      BINDING AFFINITY PREDICTED BY RF-SCORE:    0.00 PKD
ROOT
HETATM    1  C   UNL     1     -10.852   5.153  73.732  1.00  0.00    -0.287 C  
HETATM    2  N   UNL     1      -9.563   5.374  73.078  1.00  0.00    -0.146 NA 
HETATM    3  C   UNL     1      -8.426   4.641  73.635  1.00  0.00    -0.105 C  
ENDROOT
BRANCH   2   4
HETATM    4  C   UNL     1      -9.500   5.880  71.780  1.00  0.00    -0.151 A  
HETATM    5  C   UNL     1     -10.389   5.483  70.762  1.00  0.00    -0.321 A  
HETATM    6  C   UNL     1     -10.291   5.960  69.439  1.00  0.00    -0.313 A  
HETATM    7  C   UNL     1      -9.304   6.878  69.084  1.00  0.00    -0.140 A  
HETATM    8  C   UNL     1      -8.442   7.327  70.087  1.00  0.00    -0.138 A  
HETATM    9  C   UNL     1      -8.544   6.839  71.401  1.00  0.00    -0.124 A  
BRANCH   7  10
HETATM   10  C   UNL     1      -9.090   7.331  67.674  1.00  0.00    -0.124 C  
BRANCH  10  11
HETATM   11  C   UNL     1      -9.647   8.652  67.251  1.00  0.00    -0.216 A  
HETATM   12  C   UNL     1      -9.971  10.362  65.549  1.00  0.00    -0.348 A  
HETATM   13  C   UNL     1      -9.354   9.176  65.993  1.00  0.00    -0.300 A  
HETATM   14  C   UNL     1     -10.519   9.365  68.073  1.00  0.00    -0.278 A  
HETATM   15  C   UNL     1     -11.117  10.556  67.621  1.00  0.00    -0.375 A  
HETATM   16  C   UNL     1     -10.886  11.081  66.337  1.00  0.00    -0.191 A  
BRANCH  16  17
HETATM   17  N   UNL     1     -11.547  12.203  65.863  1.00  0.00    -0.399 NA 
HETATM   18  C   UNL     1     -12.076  13.238  66.753  1.00  0.00    -0.345 C  
HETATM   19  C   UNL     1     -11.956  12.354  64.468  1.00  0.00    -0.402 C  
ENDBRANCH  16  17
ENDBRANCH  10  11
BRANCH  10  20
HETATM   20  C   UNL     1      -8.488   6.530  66.741  1.00  0.00    -0.113 A  
HETATM   21  C   UNL     1      -8.632   5.288  64.630  1.00  0.00    -0.125 A  
HETATM   22  C   UNL     1      -6.397   5.735  65.705  1.00  0.00    -0.042 A  
HETATM   23  C   UNL     1      -9.243   5.838  65.693  1.00  0.00    -0.038 A  
HETATM   24  C   UNL     1      -7.044   6.249  66.762  1.00  0.00    -0.073 A  
HETATM   25  C   UNL     1      -7.141   5.389  64.448  1.00  0.00    -0.050 A  
BRANCH  25  26
HETATM   26  N   UNL     1      -6.553   5.183  63.299  1.00  0.00    -0.026 NA 
HETATM   27  C   UNL     1      -5.863   6.264  62.508  1.00  0.00    -0.026 C  
HETATM   28  C   UNL     1      -6.435   3.852  62.617  1.00  0.00    -0.022 C  
ENDBRANCH  25  26
ENDBRANCH  10  20
ENDBRANCH   7  10
ENDBRANCH   2   4
TORSDOF 6
ENDMDL
MODEL       87
REMARK 921   NORMALIZED FREE ENERGY PREDICTED BY IDOCK:   -3.74 KCAL/MOL
REMARK 922        TOTAL FREE ENERGY PREDICTED BY IDOCK:   -6.49 KCAL/MOL
REMARK 923 INTER-LIGAND FREE ENERGY PREDICTED BY IDOCK:   -5.09 KCAL/MOL
REMARK 924 INTRA-LIGAND FREE ENERGY PREDICTED BY IDOCK:   -1.40 KCAL/MOL
REMARK 927      BINDING AFFINITY PREDICTED BY RF-SCORE:    0.00 PKD
ROOT
HETATM    1  C   UNL     1     -12.653  14.382  65.709  1.00  0.00    -0.296 C  
HETATM    2  N   UNL     1     -11.735  14.330  66.846  1.00  0.00    -0.391 NA 
HETATM    3  C   UNL     1     -11.832  15.435  67.800  1.00  0.00    -0.030 C  
ENDROOT
BRANCH   2   4
HETATM    4  C   UNL     1     -11.139  13.129  67.226  1.00  0.00    -0.279 A  
HETATM    5  C   UNL     1      -9.774  13.027  67.563  1.00  0.00    -0.206 A  
HETATM    6  C   UNL     1      -9.164  11.801  67.899  1.00  0.00    -0.181 A  
HETATM    7  C   UNL     1      -9.906  10.621  67.932  1.00  0.00    -0.181 A  
HETATM    8  C   UNL     1     -11.273  10.704  67.653  1.00  0.00    -0.361 A  
HETATM    9  C   UNL     1     -11.869  11.930  67.312  1.00  0.00    -0.222 A  
BRANCH   7  10
HETATM   10  C   UNL     1      -9.285   9.282  68.176  1.00  0.00    -0.136 C  
BRANCH  10  11
HETATM   11  C   UNL     1      -9.303   8.722  69.561  1.00  0.00    -0.157 A  
HETATM   12  C   UNL     1      -8.355   7.265  71.265  1.00  0.00    -0.111 A  
HETATM   13  C   UNL     1      -8.419   7.711  69.930  1.00  0.00    -0.137 A  
HETATM   14  C   UNL     1     -10.158   9.236  70.537  1.00  0.00    -0.313 A  
HETATM   15  C   UNL     1     -10.091   8.771  71.863  1.00  0.00    -0.409 A  
HETATM   16  C   UNL     1      -9.172   7.792  72.279  1.00  0.00    -0.154 A  
BRANCH  16  17
HETATM   17  N   UNL     1      -9.049   7.404  73.604  1.00  0.00    -0.204 NA 
HETATM   18  C   UNL     1      -9.936   6.416  74.220  1.00  0.00    -0.328 C  
HETATM   19  C   UNL     1      -8.171   8.085  74.553  1.00  0.00    -0.188 C  
ENDBRANCH  16  17
ENDBRANCH  10  11
BRANCH  10  20
HETATM   20  C   UNL     1      -8.619   8.604  67.190  1.00  0.00    -0.123 A  
HETATM   21  C   UNL     1      -8.630   6.868  65.457  1.00  0.00    -0.087 A  
HETATM   22  C   UNL     1      -6.777   8.574  65.551  1.00  0.00    -0.059 A  
HETATM   23  C   UNL     1      -9.138   7.370  66.596  1.00  0.00    -0.184 A  
HETATM   24  C   UNL     1      -7.297   9.027  66.702  1.00  0.00    -0.086 A  
HETATM   25  C   UNL     1      -7.525   7.574  64.718  1.00  0.00    -0.091 A  
BRANCH  25  26
HETATM   26  N   UNL     1      -7.239   7.326  63.466  1.00  0.00    -0.069 NA 
HETATM   27  C   UNL     1      -5.834   7.198  62.940  1.00  0.00    -0.041 C  
HETATM   28  C   UNL     1      -8.248   7.089  62.382  1.00  0.00    -0.066 C  
ENDBRANCH  25  26
ENDBRANCH  10  20
ENDBRANCH   7  10
ENDBRANCH   2   4
TORSDOF 6
ENDMDL
MODEL       88
REMARK 921   NORMALIZED FREE ENERGY PREDICTED BY IDOCK:   -3.74 KCAL/MOL
REMARK 922        TOTAL FREE ENERGY PREDICTED BY IDOCK:   -6.48 KCAL/MOL
REMARK 923 INTER-LIGAND FREE ENERGY PREDICTED BY IDOCK:   -5.29 KCAL/MOL
REMARK 924 INTRA-LIGAND FREE ENERGY PREDICTED BY IDOCK:   -1.19 KCAL/MOL
REMARK 927      BINDING AFFINITY PREDICTED BY RF-SCORE:    0.00 PKD
ROOT
HETATM    1  C   UNL     1      -9.876  13.101  66.928  1.00  0.00    -0.249 C  
HETATM    2  N   UNL     1      -8.799  12.113  66.982  1.00  0.00    -0.197 NA 
HETATM    3  C   UNL     1      -7.455  12.641  67.217  1.00  0.00    -0.109 C  
ENDROOT
BRANCH   2   4
HETATM    4  C   UNL     1      -9.076  10.770  67.233  1.00  0.00    -0.144 A  
HETATM    5  C   UNL     1      -9.230  10.252  68.535  1.00  0.00    -0.144 A  
HETATM    6  C   UNL     1      -9.461   8.885  68.786  1.00  0.00    -0.144 A  
HETATM    7  C   UNL     1      -9.569   7.976  67.735  1.00  0.00    -0.179 A  
HETATM    8  C   UNL     1      -9.473   8.472  66.433  1.00  0.00    -0.297 A  
HETATM    9  C   UNL     1      -9.235   9.837  66.194  1.00  0.00    -0.221 A  
BRANCH   7  10
HETATM   10  C   UNL     1      -9.706   6.501  67.952  1.00  0.00    -0.126 C  
BRANCH  10  11
HETATM   11  C   UNL     1      -9.498   5.582  66.792  1.00  0.00    -0.147 A  
HETATM   12  C   UNL     1      -8.025   4.232  65.401  1.00  0.00    -0.097 A  
HETATM   13  C   UNL     1      -8.215   5.189  66.418  1.00  0.00    -0.108 A  
HETATM   14  C   UNL     1     -10.580   5.045  66.093  1.00  0.00    -0.321 A  
HETATM   15  C   UNL     1     -10.374   4.100  65.070  1.00  0.00    -0.209 A  
HETATM   16  C   UNL     1      -9.095   3.642  64.708  1.00  0.00    -0.134 A  
BRANCH  16  17
HETATM   17  N   UNL     1      -8.904   2.645  63.764  1.00  0.00    -0.086 NA 
HETATM   18  C   UNL     1      -7.574   2.156  63.396  1.00  0.00    -0.055 C  
HETATM   19  C   UNL     1      -9.978   2.143  62.910  1.00  0.00    -0.100 C  
ENDBRANCH  16  17
ENDBRANCH  10  11
BRANCH  10  20
HETATM   20  C   UNL     1     -10.109   5.981  69.152  1.00  0.00    -0.229 A  
HETATM   21  C   UNL     1      -9.754   4.377  70.974  1.00  0.00    -0.260 A  
HETATM   22  C   UNL     1     -11.363   6.296  71.251  1.00  0.00    -0.356 A  
HETATM   23  C   UNL     1      -9.564   4.733  69.691  1.00  0.00    -0.253 A  
HETATM   24  C   UNL     1     -11.172   6.601  69.959  1.00  0.00    -0.425 A  
HETATM   25  C   UNL     1     -10.506   5.266  71.927  1.00  0.00    -0.219 A  
BRANCH  25  26
HETATM   26  N   UNL     1     -10.424   5.140  73.227  1.00  0.00    -0.198 NA 
HETATM   27  C   UNL     1     -10.552   6.293  74.187  1.00  0.00    -0.116 C  
HETATM   28  C   UNL     1     -10.238   3.843  73.957  1.00  0.00    -0.165 C  
ENDBRANCH  25  26
ENDBRANCH  10  20
ENDBRANCH   7  10
ENDBRANCH   2   4
TORSDOF 6
ENDMDL
MODEL       89
REMARK 921   NORMALIZED FREE ENERGY PREDICTED BY IDOCK:   -3.70 KCAL/MOL
REMARK 922        TOTAL FREE ENERGY PREDICTED BY IDOCK:   -6.42 KCAL/MOL
REMARK 923 INTER-LIGAND FREE ENERGY PREDICTED BY IDOCK:   -5.60 KCAL/MOL
REMARK 924 INTRA-LIGAND FREE ENERGY PREDICTED BY IDOCK:   -0.83 KCAL/MOL
REMARK 927      BINDING AFFINITY PREDICTED BY RF-SCORE:    0.00 PKD
ROOT
HETATM    1  C   UNL     1     -12.090  16.543  74.075  1.00  0.00    -0.301 C  
HETATM    2  N   UNL     1     -13.026  15.723  73.307  1.00  0.00    -0.516 NA 
HETATM    3  C   UNL     1     -14.393  16.234  73.204  1.00  0.00     0.906 C  
ENDROOT
BRANCH   2   4
HETATM    4  C   UNL     1     -12.561  14.780  72.391  1.00  0.00    -0.339 A  
HETATM    5  C   UNL     1     -11.533  15.055  71.467  1.00  0.00    -0.377 A  
HETATM    6  C   UNL     1     -11.100  14.116  70.509  1.00  0.00     0.288 A  
HETATM    7  C   UNL     1     -11.669  12.845  70.451  1.00  0.00    -0.109 A  
HETATM    8  C   UNL     1     -12.653  12.529  71.390  1.00  0.00    -0.297 A  
HETATM    9  C   UNL     1     -13.083  13.476  72.336  1.00  0.00    -0.494 A  
BRANCH   7  10
HETATM   10  C   UNL     1     -11.322  11.852  69.387  1.00  0.00    -0.327 C  
BRANCH  10  11
HETATM   11  C   UNL     1     -11.061  10.434  69.784  1.00  0.00    -0.352 A  
HETATM   12  C   UNL     1      -9.519   8.579  70.107  1.00  0.00    -0.169 A  
HETATM   13  C   UNL     1      -9.796   9.874  69.626  1.00  0.00    -0.255 A  
HETATM   14  C   UNL     1     -12.055   9.656  70.378  1.00  0.00    -0.115 A  
HETATM   15  C   UNL     1     -11.768   8.359  70.841  1.00  0.00    -0.269 A  
HETATM   16  C   UNL     1     -10.487   7.786  70.747  1.00  0.00    -0.210 A  
BRANCH  16  17
HETATM   17  N   UNL     1     -10.187   6.545  71.287  1.00  0.00    -0.197 NA 
HETATM   18  C   UNL     1     -11.090   5.846  72.202  1.00  0.00    -0.281 C  
HETATM   19  C   UNL     1      -8.871   5.922  71.161  1.00  0.00    -0.136 C  
ENDBRANCH  16  17
ENDBRANCH  10  11
BRANCH  10  20
HETATM   20  C   UNL     1     -11.141  12.224  68.082  1.00  0.00    -0.285 A  
HETATM   21  C   UNL     1     -11.810  12.032  65.730  1.00  0.00    -0.236 A  
HETATM   22  C   UNL     1     -10.297  13.900  66.484  1.00  0.00    -0.286 A  
HETATM   23  C   UNL     1     -11.764  11.507  66.967  1.00  0.00    -0.092 A  
HETATM   24  C   UNL     1     -10.250  13.330  67.697  1.00  0.00    -0.228 A  
HETATM   25  C   UNL     1     -11.254  13.401  65.441  1.00  0.00    -0.288 A  
BRANCH  25  26
HETATM   26  N   UNL     1     -11.572  14.083  64.372  1.00  0.00    -0.384 NA 
HETATM   27  C   UNL     1     -12.134  13.460  63.121  1.00  0.00    -0.070 C  
HETATM   28  C   UNL     1     -11.470  15.573  64.238  1.00  0.00    -0.180 C  
ENDBRANCH  25  26
ENDBRANCH  10  20
ENDBRANCH   7  10
ENDBRANCH   2   4
TORSDOF 6
ENDMDL
MODEL       90
REMARK 921   NORMALIZED FREE ENERGY PREDICTED BY IDOCK:   -3.63 KCAL/MOL
REMARK 922        TOTAL FREE ENERGY PREDICTED BY IDOCK:   -6.34 KCAL/MOL
REMARK 923 INTER-LIGAND FREE ENERGY PREDICTED BY IDOCK:   -4.75 KCAL/MOL
REMARK 924 INTRA-LIGAND FREE ENERGY PREDICTED BY IDOCK:   -1.59 KCAL/MOL
REMARK 927      BINDING AFFINITY PREDICTED BY RF-SCORE:    0.00 PKD
ROOT
HETATM    1  C   UNL     1     -12.535  12.102  63.681  1.00  0.00    -0.549 C  
HETATM    2  N   UNL     1     -11.805  13.213  64.290  1.00  0.00    -0.383 NA 
HETATM    3  C   UNL     1     -12.395  14.540  64.118  1.00  0.00    -0.286 C  
ENDROOT
BRANCH   2   4
HETATM    4  C   UNL     1     -10.882  12.985  65.310  1.00  0.00    -0.291 A  
HETATM    5  C   UNL     1     -10.873  13.723  66.510  1.00  0.00    -0.287 A  
HETATM    6  C   UNL     1      -9.908  13.523  67.518  1.00  0.00    -0.227 A  
HETATM    7  C   UNL     1      -8.918  12.553  67.374  1.00  0.00    -0.188 A  
HETATM    8  C   UNL     1      -8.937  11.771  66.216  1.00  0.00    -0.176 A  
HETATM    9  C   UNL     1      -9.899  11.984  65.214  1.00  0.00    -0.236 A  
BRANCH   7  10
HETATM   10  C   UNL     1      -7.809  12.375  68.362  1.00  0.00    -0.142 C  
BRANCH  10  11
HETATM   11  C   UNL     1      -7.690  11.072  69.083  1.00  0.00    -0.102 A  
HETATM   12  C   UNL     1      -6.338   9.414  70.245  1.00  0.00    -0.060 A  
HETATM   13  C   UNL     1      -6.443  10.582  69.465  1.00  0.00    -0.072 A  
HETATM   14  C   UNL     1      -8.822  10.342  69.448  1.00  0.00    -0.177 A  
HETATM   15  C   UNL     1      -8.701   9.170  70.217  1.00  0.00    -0.223 A  
HETATM   16  C   UNL     1      -7.461   8.681  70.664  1.00  0.00    -0.074 A  
BRANCH  16  17
HETATM   17  N   UNL     1      -7.354   7.578  71.497  1.00  0.00    -0.073 NA 
HETATM   18  C   UNL     1      -8.057   6.321  71.232  1.00  0.00    -0.118 C  
HETATM   19  C   UNL     1      -6.708   7.631  72.806  1.00  0.00    -0.068 C  
ENDBRANCH  16  17
ENDBRANCH  10  11
BRANCH  10  20
HETATM   20  C   UNL     1      -6.965  13.401  68.694  1.00  0.00    -0.101 A  
HETATM   21  C   UNL     1      -5.465  15.205  67.978  1.00  0.00    -0.142 A  
HETATM   22  C   UNL     1      -6.266  15.076  70.363  1.00  0.00    -0.097 A  
HETATM   23  C   UNL     1      -6.077  14.037  67.718  1.00  0.00    -0.134 A  
HETATM   24  C   UNL     1      -6.837  13.897  70.074  1.00  0.00     0.175 A  
HETATM   25  C   UNL     1      -5.695  15.936  69.273  1.00  0.00    -0.117 A  
BRANCH  25  26
HETATM   26  N   UNL     1      -5.411  17.202  69.432  1.00  0.00    -0.158 NA 
HETATM   27  C   UNL     1      -5.310  18.184  68.294  1.00  0.00    -0.165 C  
HETATM   28  C   UNL     1      -5.185  17.877  70.753  1.00  0.00    -0.279 C  
ENDBRANCH  25  26
ENDBRANCH  10  20
ENDBRANCH   7  10
ENDBRANCH   2   4
TORSDOF 6
ENDMDL
MODEL       91
REMARK 921   NORMALIZED FREE ENERGY PREDICTED BY IDOCK:   -3.62 KCAL/MOL
REMARK 922        TOTAL FREE ENERGY PREDICTED BY IDOCK:   -6.33 KCAL/MOL
REMARK 923 INTER-LIGAND FREE ENERGY PREDICTED BY IDOCK:   -5.37 KCAL/MOL
REMARK 924 INTRA-LIGAND FREE ENERGY PREDICTED BY IDOCK:   -0.96 KCAL/MOL
REMARK 927      BINDING AFFINITY PREDICTED BY RF-SCORE:    0.00 PKD
ROOT
HETATM    1  C   UNL     1      -6.797   7.870  73.438  1.00  0.00    -0.095 C  
HETATM    2  N   UNL     1      -7.753   7.655  72.352  1.00  0.00    -0.093 NA 
HETATM    3  C   UNL     1      -8.824   6.695  72.621  1.00  0.00    -0.123 C  
ENDROOT
BRANCH   2   4
HETATM    4  C   UNL     1      -7.895   8.593  71.331  1.00  0.00    -0.129 A  
HETATM    5  C   UNL     1      -6.796   9.161  70.656  1.00  0.00    -0.084 A  
HETATM    6  C   UNL     1      -6.943  10.146  69.659  1.00  0.00    -0.103 A  
HETATM    7  C   UNL     1      -8.207  10.592  69.278  1.00  0.00    -0.151 A  
HETATM    8  C   UNL     1      -9.316  10.007  69.895  1.00  0.00    -0.207 A  
HETATM    9  C   UNL     1      -9.158   9.031  70.894  1.00  0.00    -0.309 A  
BRANCH   7  10
HETATM   10  C   UNL     1      -8.412  11.710  68.305  1.00  0.00    -0.160 C  
BRANCH  10  11
HETATM   11  C   UNL     1      -7.586  12.948  68.448  1.00  0.00    -0.133 A  
HETATM   12  C   UNL     1      -7.028  15.209  67.741  1.00  0.00    -0.190 A  
HETATM   13  C   UNL     1      -7.718  13.997  67.541  1.00  0.00    -0.197 A  
HETATM   14  C   UNL     1      -6.712  13.113  69.523  1.00  0.00     0.023 A  
HETATM   15  C   UNL     1      -6.020  14.325  69.702  1.00  0.00    -0.112 A  
HETATM   16  C   UNL     1      -6.173  15.422  68.836  1.00  0.00    -0.098 A  
BRANCH  16  17
HETATM   17  N   UNL     1      -5.560  16.643  69.068  1.00  0.00    -0.132 NA 
HETATM   18  C   UNL     1      -5.388  17.194  70.413  1.00  0.00    -0.246 C  
HETATM   19  C   UNL     1      -5.219  17.577  67.997  1.00  0.00    -0.131 C  
ENDBRANCH  16  17
ENDBRANCH  10  11
BRANCH  10  20
HETATM   20  C   UNL     1      -9.396  11.669  67.355  1.00  0.00    -0.168 A  
HETATM   21  C   UNL     1     -11.672  12.262  66.659  1.00  0.00    -0.417 A  
HETATM   22  C   UNL     1      -9.996  11.421  64.976  1.00  0.00    -0.312 A  
HETATM   23  C   UNL     1     -10.783  12.040  67.643  1.00  0.00    -0.252 A  
HETATM   24  C   UNL     1      -9.148  11.184  65.988  1.00  0.00    -0.217 A  
HETATM   25  C   UNL     1     -11.271  12.177  65.211  1.00  0.00    -0.332 A  
BRANCH  25  26
HETATM   26  N   UNL     1     -11.981  12.706  64.248  1.00  0.00    -0.379 NA 
HETATM   27  C   UNL     1     -12.770  11.898  63.252  1.00  0.00    -0.271 C  
HETATM   28  C   UNL     1     -12.153  14.177  64.012  1.00  0.00    -0.348 C  
ENDBRANCH  25  26
ENDBRANCH  10  20
ENDBRANCH   7  10
ENDBRANCH   2   4
TORSDOF 6
ENDMDL
MODEL       92
REMARK 921   NORMALIZED FREE ENERGY PREDICTED BY IDOCK:   -3.61 KCAL/MOL
REMARK 922        TOTAL FREE ENERGY PREDICTED BY IDOCK:   -6.31 KCAL/MOL
REMARK 923 INTER-LIGAND FREE ENERGY PREDICTED BY IDOCK:   -4.66 KCAL/MOL
REMARK 924 INTRA-LIGAND FREE ENERGY PREDICTED BY IDOCK:   -1.65 KCAL/MOL
REMARK 927      BINDING AFFINITY PREDICTED BY RF-SCORE:    0.00 PKD
ROOT
HETATM    1  C   UNL     1     -10.233  13.935  67.582  1.00  0.00    -0.242 C  
HETATM    2  N   UNL     1      -9.021  13.163  67.855  1.00  0.00    -0.190 NA 
HETATM    3  C   UNL     1      -7.912  13.902  68.457  1.00  0.00    -0.137 C  
ENDROOT
BRANCH   2   4
HETATM    4  C   UNL     1      -9.067  11.773  67.947  1.00  0.00    -0.181 A  
HETATM    5  C   UNL     1     -10.213  11.023  67.616  1.00  0.00    -0.211 A  
HETATM    6  C   UNL     1     -10.272   9.622  67.758  1.00  0.00    -0.253 A  
HETATM    7  C   UNL     1      -9.170   8.906  68.222  1.00  0.00    -0.143 A  
HETATM    8  C   UNL     1      -8.004   9.620  68.507  1.00  0.00    -0.089 A  
HETATM    9  C   UNL     1      -7.958  11.018  68.369  1.00  0.00    -0.131 A  
BRANCH   7  10
HETATM   10  C   UNL     1      -9.216   7.435  68.493  1.00  0.00    -0.142 C  
BRANCH  10  11
HETATM   11  C   UNL     1      -9.206   6.490  67.335  1.00  0.00    -0.122 A  
HETATM   12  C   UNL     1     -10.240   4.685  66.071  1.00  0.00    -0.306 A  
HETATM   13  C   UNL     1     -10.179   5.500  67.219  1.00  0.00    -0.255 A  
HETATM   14  C   UNL     1      -8.265   6.610  66.312  1.00  0.00    -0.120 A  
HETATM   15  C   UNL     1      -8.331   5.781  65.178  1.00  0.00    -0.146 A  
HETATM   16  C   UNL     1      -9.333   4.810  65.004  1.00  0.00    -0.107 A  
BRANCH  16  17
HETATM   17  N   UNL     1      -9.447   4.059  63.845  1.00  0.00    -0.153 NA 
HETATM   18  C   UNL     1     -10.676   4.020  63.051  1.00  0.00    -0.056 C  
HETATM   19  C   UNL     1      -8.440   3.086  63.427  1.00  0.00    -0.086 C  
ENDBRANCH  16  17
ENDBRANCH  10  11
BRANCH  10  20
HETATM   20  C   UNL     1      -9.366   6.938  69.759  1.00  0.00    -0.146 A  
HETATM   21  C   UNL     1     -10.847   6.114  71.533  1.00  0.00    -0.313 A  
HETATM   22  C   UNL     1      -8.357   5.761  71.676  1.00  0.00    -0.124 A  
HETATM   23  C   UNL     1     -10.671   6.846  70.419  1.00  0.00    -0.278 A  
HETATM   24  C   UNL     1      -8.218   6.523  70.581  1.00  0.00    -0.125 A  
HETATM   25  C   UNL     1      -9.717   5.322  72.134  1.00  0.00    -0.164 A  
BRANCH  25  26
HETATM   26  N   UNL     1      -9.909   4.349  72.986  1.00  0.00    -0.137 NA 
HETATM   27  C   UNL     1      -8.793   3.550  73.605  1.00  0.00    -0.088 C  
HETATM   28  C   UNL     1     -11.245   3.911  73.508  1.00  0.00    -0.218 C  
ENDBRANCH  25  26
ENDBRANCH  10  20
ENDBRANCH   7  10
ENDBRANCH   2   4
TORSDOF 6
ENDMDL
MODEL       93
REMARK 921   NORMALIZED FREE ENERGY PREDICTED BY IDOCK:   -3.57 KCAL/MOL
REMARK 922        TOTAL FREE ENERGY PREDICTED BY IDOCK:   -6.25 KCAL/MOL
REMARK 923 INTER-LIGAND FREE ENERGY PREDICTED BY IDOCK:   -4.72 KCAL/MOL
REMARK 924 INTRA-LIGAND FREE ENERGY PREDICTED BY IDOCK:   -1.54 KCAL/MOL
REMARK 927      BINDING AFFINITY PREDICTED BY RF-SCORE:    0.00 PKD
ROOT
HETATM    1  C   UNL     1     -10.750   3.510  63.730  1.00  0.00    -0.256 C  
HETATM    2  N   UNL     1     -10.002   3.594  64.984  1.00  0.00    -0.146 NA 
HETATM    3  C   UNL     1      -9.213   2.415  65.341  1.00  0.00    -0.081 C  
ENDROOT
BRANCH   2   4
HETATM    4  C   UNL     1      -9.711   4.830  65.559  1.00  0.00    -0.152 A  
HETATM    5  C   UNL     1     -10.576   5.473  66.467  1.00  0.00    -0.343 A  
HETATM    6  C   UNL     1     -10.301   6.746  67.007  1.00  0.00    -0.338 A  
HETATM    7  C   UNL     1      -9.129   7.423  66.675  1.00  0.00    -0.184 A  
HETATM    8  C   UNL     1      -8.230   6.784  65.817  1.00  0.00    -0.135 A  
HETATM    9  C   UNL     1      -8.517   5.518  65.278  1.00  0.00    -0.147 A  
BRANCH   7  10
HETATM   10  C   UNL     1      -8.842   8.817  67.134  1.00  0.00    -0.137 C  
BRANCH  10  11
HETATM   11  C   UNL     1      -9.632   9.944  66.551  1.00  0.00    -0.243 A  
HETATM   12  C   UNL     1     -10.019  11.552  64.765  1.00  0.00    -0.304 A  
HETATM   13  C   UNL     1      -9.216  10.571  65.378  1.00  0.00    -0.229 A  
HETATM   14  C   UNL     1     -10.835  10.356  67.125  1.00  0.00    -0.301 A  
HETATM   15  C   UNL     1     -11.621  11.347  66.507  1.00  0.00     0.040 A  
HETATM   16  C   UNL     1     -11.256  11.958  65.295  1.00  0.00    -0.295 A  
BRANCH  16  17
HETATM   17  N   UNL     1     -12.076  12.867  64.645  1.00  0.00    -0.393 NA 
HETATM   18  C   UNL     1     -12.229  14.251  65.095  1.00  0.00    -0.421 C  
HETATM   19  C   UNL     1     -13.011  12.479  63.591  1.00  0.00    -0.004 C  
ENDBRANCH  16  17
ENDBRANCH  10  11
BRANCH  10  20
HETATM   20  C   UNL     1      -7.816   9.098  67.996  1.00  0.00    -0.100 A  
HETATM   21  C   UNL     1      -6.064  10.642  68.747  1.00  0.00    -0.040 A  
HETATM   22  C   UNL     1      -6.746   8.684  70.178  1.00  0.00    -0.039 A  
HETATM   23  C   UNL     1      -6.884  10.206  67.775  1.00  0.00    -0.075 A  
HETATM   24  C   UNL     1      -7.529   8.263  69.174  1.00  0.00    -0.086 A  
HETATM   25  C   UNL     1      -6.094  10.034  70.124  1.00  0.00    -0.070 A  
BRANCH  25  26
HETATM   26  N   UNL     1      -5.584  10.628  71.171  1.00  0.00    -0.261 NA 
HETATM   27  C   UNL     1      -5.181  12.080  71.194  1.00  0.00    -0.115 C  
HETATM   28  C   UNL     1      -5.363   9.983  72.507  1.00  0.00     0.138 C  
ENDBRANCH  25  26
ENDBRANCH  10  20
ENDBRANCH   7  10
ENDBRANCH   2   4
TORSDOF 6
ENDMDL
MODEL       94
REMARK 921   NORMALIZED FREE ENERGY PREDICTED BY IDOCK:   -3.54 KCAL/MOL
REMARK 922        TOTAL FREE ENERGY PREDICTED BY IDOCK:   -6.22 KCAL/MOL
REMARK 923 INTER-LIGAND FREE ENERGY PREDICTED BY IDOCK:   -4.94 KCAL/MOL
REMARK 924 INTRA-LIGAND FREE ENERGY PREDICTED BY IDOCK:   -1.28 KCAL/MOL
REMARK 927      BINDING AFFINITY PREDICTED BY RF-SCORE:    0.00 PKD
ROOT
HETATM    1  C   UNL     1      -9.409   7.785  73.509  1.00  0.00    -0.290 C  
HETATM    2  N   UNL     1      -9.972   7.179  72.303  1.00  0.00    -0.171 NA 
HETATM    3  C   UNL     1     -11.157   6.343  72.498  1.00  0.00    -0.263 C  
ENDROOT
BRANCH   2   4
HETATM    4  C   UNL     1      -9.684   7.700  71.043  1.00  0.00    -0.163 A  
HETATM    5  C   UNL     1     -10.668   7.892  70.052  1.00  0.00    -0.244 A  
HETATM    6  C   UNL     1     -10.364   8.372  68.762  1.00  0.00    -0.225 A  
HETATM    7  C   UNL     1      -9.056   8.703  68.415  1.00  0.00    -0.138 A  
HETATM    8  C   UNL     1      -8.069   8.571  69.396  1.00  0.00    -0.112 A  
HETATM    9  C   UNL     1      -8.382   8.084  70.676  1.00  0.00    -0.123 A  
BRANCH   7  10
HETATM   10  C   UNL     1      -8.665   9.113  67.030  1.00  0.00    -0.131 C  
BRANCH  10  11
HETATM   11  C   UNL     1      -9.169  10.415  66.497  1.00  0.00    -0.184 A  
HETATM   12  C   UNL     1     -10.779  11.679  65.180  1.00  0.00    -0.351 A  
HETATM   13  C   UNL     1     -10.228  10.450  65.593  1.00  0.00    -0.308 A  
HETATM   14  C   UNL     1      -8.637  11.629  66.933  1.00  0.00    -0.174 A  
HETATM   15  C   UNL     1      -9.190  12.849  66.502  1.00  0.00    -0.186 A  
HETATM   16  C   UNL     1     -10.294  12.917  65.635  1.00  0.00    -0.282 A  
BRANCH  16  17
HETATM   17  N   UNL     1     -10.891  14.118  65.286  1.00  0.00    -0.329 NA 
HETATM   18  C   UNL     1     -10.223  15.409  65.459  1.00  0.00    -0.382 C  
HETATM   19  C   UNL     1     -12.300  14.226  64.912  1.00  0.00    -0.425 C  
ENDBRANCH  16  17
ENDBRANCH  10  11
BRANCH  10  20
HETATM   20  C   UNL     1      -7.946   8.288  66.208  1.00  0.00    -0.100 A  
HETATM   21  C   UNL     1      -5.931   6.942  65.821  1.00  0.00    -0.035 A  
HETATM   22  C   UNL     1      -7.943   6.697  64.325  1.00  0.00    -0.092 A  
HETATM   23  C   UNL     1      -6.542   7.954  66.463  1.00  0.00    -0.054 A  
HETATM   24  C   UNL     1      -8.508   7.730  64.968  1.00  0.00    -0.052 A  
HETATM   25  C   UNL     1      -6.674   6.080  64.837  1.00  0.00    -0.043 A  
BRANCH  25  26
HETATM   26  N   UNL     1      -6.242   4.906  64.457  1.00  0.00    -0.029 NA 
HETATM   27  C   UNL     1      -5.139   4.708  63.450  1.00  0.00    -0.009 C  
HETATM   28  C   UNL     1      -6.737   3.592  64.985  1.00  0.00    -0.048 C  
ENDBRANCH  25  26
ENDBRANCH  10  20
ENDBRANCH   7  10
ENDBRANCH   2   4
TORSDOF 6
ENDMDL
MODEL       95
REMARK 921   NORMALIZED FREE ENERGY PREDICTED BY IDOCK:   -3.54 KCAL/MOL
REMARK 922        TOTAL FREE ENERGY PREDICTED BY IDOCK:   -6.21 KCAL/MOL
REMARK 923 INTER-LIGAND FREE ENERGY PREDICTED BY IDOCK:   -4.55 KCAL/MOL
REMARK 924 INTRA-LIGAND FREE ENERGY PREDICTED BY IDOCK:   -1.67 KCAL/MOL
REMARK 927      BINDING AFFINITY PREDICTED BY RF-SCORE:    0.00 PKD
ROOT
HETATM    1  C   UNL     1      -9.767   3.607  66.220  1.00  0.00    -0.074 C  
HETATM    2  N   UNL     1      -9.146   4.182  67.413  1.00  0.00    -0.133 NA 
HETATM    3  C   UNL     1      -8.321   3.273  68.208  1.00  0.00    -0.078 C  
ENDROOT
BRANCH   2   4
HETATM    4  C   UNL     1      -8.989   5.561  67.541  1.00  0.00    -0.107 A  
HETATM    5  C   UNL     1      -9.735   6.333  68.454  1.00  0.00    -0.130 A  
HETATM    6  C   UNL     1      -9.608   7.734  68.545  1.00  0.00    -0.151 A  
HETATM    7  C   UNL     1      -8.708   8.423  67.734  1.00  0.00    -0.137 A  
HETATM    8  C   UNL     1      -7.919   7.674  66.857  1.00  0.00    -0.115 A  
HETATM    9  C   UNL     1      -8.059   6.279  66.768  1.00  0.00    -0.109 A  
BRANCH   7  10
HETATM   10  C   UNL     1      -8.614   9.916  67.716  1.00  0.00    -0.121 C  
BRANCH  10  11
HETATM   11  C   UNL     1      -9.598  10.688  66.898  1.00  0.00    -0.200 A  
HETATM   12  C   UNL     1     -11.448  12.264  66.748  1.00  0.00    -0.421 A  
HETATM   13  C   UNL     1     -10.595  11.444  67.513  1.00  0.00    -0.252 A  
HETATM   14  C   UNL     1      -9.510  10.725  65.506  1.00  0.00    -0.253 A  
HETATM   15  C   UNL     1     -10.378  11.539  64.755  1.00  0.00    -0.341 A  
HETATM   16  C   UNL     1     -11.357  12.355  65.349  1.00  0.00    -0.337 A  
BRANCH  16  17
HETATM   17  N   UNL     1     -12.147  13.223  64.612  1.00  0.00    -0.388 NA 
HETATM   18  C   UNL     1     -12.709  14.450  65.180  1.00  0.00    -0.251 C  
HETATM   19  C   UNL     1     -12.660  12.897  63.283  1.00  0.00    -0.080 C  
ENDBRANCH  16  17
ENDBRANCH  10  11
BRANCH  10  20
HETATM   20  C   UNL     1      -7.598  10.584  68.344  1.00  0.00    -0.097 A  
HETATM   21  C   UNL     1      -6.162  12.567  68.493  1.00  0.00    -0.063 A  
HETATM   22  C   UNL     1      -6.267  10.915  70.393  1.00  0.00    -0.118 A  
HETATM   23  C   UNL     1      -6.953  11.763  67.762  1.00  0.00    -0.094 A  
HETATM   24  C   UNL     1      -7.029  10.126  69.622  1.00  0.00    -0.103 A  
HETATM   25  C   UNL     1      -5.931  12.312  69.958  1.00  0.00    -0.153 A  
BRANCH  25  26
HETATM   26  N   UNL     1      -5.467  13.226  70.771  1.00  0.00    -0.159 NA 
HETATM   27  C   UNL     1      -5.137  12.966  72.218  1.00  0.00     0.025 C  
HETATM   28  C   UNL     1      -5.155  14.642  70.389  1.00  0.00    -0.106 C  
ENDBRANCH  25  26
ENDBRANCH  10  20
ENDBRANCH   7  10
ENDBRANCH   2   4
TORSDOF 6
ENDMDL
MODEL       96
REMARK 921   NORMALIZED FREE ENERGY PREDICTED BY IDOCK:   -3.23 KCAL/MOL
REMARK 922        TOTAL FREE ENERGY PREDICTED BY IDOCK:   -5.80 KCAL/MOL
REMARK 923 INTER-LIGAND FREE ENERGY PREDICTED BY IDOCK:   -4.10 KCAL/MOL
REMARK 924 INTRA-LIGAND FREE ENERGY PREDICTED BY IDOCK:   -1.70 KCAL/MOL
REMARK 927      BINDING AFFINITY PREDICTED BY RF-SCORE:    0.00 PKD
ROOT
HETATM    1  C   UNL     1      -8.855  10.012  62.350  1.00  0.00    -0.246 C  
HETATM    2  N   UNL     1      -8.744   8.886  63.276  1.00  0.00    -0.108 NA 
HETATM    3  C   UNL     1      -8.368   7.602  62.683  1.00  0.00     0.008 C  
ENDROOT
BRANCH   2   4
HETATM    4  C   UNL     1      -8.573   9.101  64.643  1.00  0.00    -0.182 A  
HETATM    5  C   UNL     1      -9.653   9.314  65.523  1.00  0.00    -0.291 A  
HETATM    6  C   UNL     1      -9.473   9.581  66.895  1.00  0.00    -0.204 A  
HETATM    7  C   UNL     1      -8.196   9.623  67.452  1.00  0.00    -0.114 A  
HETATM    8  C   UNL     1      -7.111   9.363  66.611  1.00  0.00    -0.085 A  
HETATM    9  C   UNL     1      -7.301   9.106  65.242  1.00  0.00    -0.092 A  
BRANCH   7  10
HETATM   10  C   UNL     1      -7.947  10.008  68.876  1.00  0.00    -0.101 C  
BRANCH  10  11
HETATM   11  C   UNL     1      -7.290  11.319  69.162  1.00  0.00    -0.104 A  
HETATM   12  C   UNL     1      -7.191  13.737  68.894  1.00  0.00    -0.095 A  
HETATM   13  C   UNL     1      -7.730  12.485  68.538  1.00  0.00    -0.113 A  
HETATM   14  C   UNL     1      -6.265  11.424  70.103  1.00  0.00    -0.138 A  
HETATM   15  C   UNL     1      -5.727  12.680  70.439  1.00  0.00    -0.172 A  
HETATM   16  C   UNL     1      -6.188  13.880  69.868  1.00  0.00    -0.136 A  
BRANCH  16  17
HETATM   17  N   UNL     1      -5.719  15.121  70.268  1.00  0.00    -0.139 NA 
HETATM   18  C   UNL     1      -5.584  16.247  69.343  1.00  0.00    -0.132 C  
HETATM   19  C   UNL     1      -5.126  15.360  71.583  1.00  0.00    -0.100 C  
ENDBRANCH  16  17
ENDBRANCH  10  11
BRANCH  10  20
HETATM   20  C   UNL     1      -8.212   9.154  69.912  1.00  0.00    -0.137 A  
HETATM   21  C   UNL     1      -9.743   8.397  71.674  1.00  0.00    -0.287 A  
HETATM   22  C   UNL     1      -7.763   6.990  71.006  1.00  0.00    -0.091 A  
HETATM   23  C   UNL     1      -9.323   9.367  70.843  1.00  0.00    -0.263 A  
HETATM   24  C   UNL     1      -7.359   7.992  70.211  1.00  0.00    -0.060 A  
HETATM   25  C   UNL     1      -9.113   7.031  71.660  1.00  0.00    -0.138 A  
BRANCH  25  26
HETATM   26  N   UNL     1      -9.690   5.980  72.182  1.00  0.00    -0.155 NA 
HETATM   27  C   UNL     1     -10.171   5.914  73.608  1.00  0.00    -0.226 C  
HETATM   28  C   UNL     1      -9.999   4.710  71.446  1.00  0.00    -0.197 C  
ENDBRANCH  25  26
ENDBRANCH  10  20
ENDBRANCH   7  10
ENDBRANCH   2   4
TORSDOF 6
ENDMDL
MODEL       97
REMARK 921   NORMALIZED FREE ENERGY PREDICTED BY IDOCK:   -3.17 KCAL/MOL
REMARK 922        TOTAL FREE ENERGY PREDICTED BY IDOCK:   -5.71 KCAL/MOL
REMARK 923 INTER-LIGAND FREE ENERGY PREDICTED BY IDOCK:   -4.75 KCAL/MOL
REMARK 924 INTRA-LIGAND FREE ENERGY PREDICTED BY IDOCK:   -0.96 KCAL/MOL
REMARK 927      BINDING AFFINITY PREDICTED BY RF-SCORE:    0.00 PKD
ROOT
HETATM    1  C   UNL     1     -10.028   5.892  72.470  1.00  0.00    -0.177 C  
HETATM    2  N   UNL     1     -11.018   6.670  71.727  1.00  0.00    -0.233 NA 
HETATM    3  C   UNL     1     -12.367   6.699  72.292  1.00  0.00    -0.107 C  
ENDROOT
BRANCH   2   4
HETATM    4  C   UNL     1     -10.619   7.650  70.818  1.00  0.00    -0.221 A  
HETATM    5  C   UNL     1     -11.356   8.830  70.596  1.00  0.00    -0.289 A  
HETATM    6  C   UNL     1     -10.976   9.794  69.640  1.00  0.00    -0.269 A  
HETATM    7  C   UNL     1      -9.821   9.626  68.879  1.00  0.00    -0.179 A  
HETATM    8  C   UNL     1      -9.044   8.489  69.118  1.00  0.00    -0.146 A  
HETATM    9  C   UNL     1      -9.437   7.530  70.067  1.00  0.00    -0.161 A  
BRANCH   7  10
HETATM   10  C   UNL     1      -9.433  10.564  67.780  1.00  0.00    -0.162 C  
BRANCH  10  11
HETATM   11  C   UNL     1      -8.527  10.069  66.698  1.00  0.00    -0.126 A  
HETATM   12  C   UNL     1      -8.205   9.138  64.472  1.00  0.00    -0.152 A  
HETATM   13  C   UNL     1      -9.050   9.497  65.540  1.00  0.00    -0.262 A  
HETATM   14  C   UNL     1      -7.143  10.221  66.789  1.00  0.00    -0.094 A  
HETATM   15  C   UNL     1      -6.310   9.846  65.719  1.00  0.00    -0.084 A  
HETATM   16  C   UNL     1      -6.812   9.318  64.516  1.00  0.00    -0.089 A  
BRANCH  16  17
HETATM   17  N   UNL     1      -5.996   9.035  63.432  1.00  0.00    -0.087 NA 
HETATM   18  C   UNL     1      -5.148   7.843  63.375  1.00  0.00    -0.042 C  
HETATM   19  C   UNL     1      -5.750   9.990  62.353  1.00  0.00    -0.099 C  
ENDBRANCH  16  17
ENDBRANCH  10  11
BRANCH  10  20
HETATM   20  C   UNL     1      -9.802  11.882  67.790  1.00  0.00    -0.187 A  
HETATM   21  C   UNL     1      -9.208  14.235  67.431  1.00  0.00    -0.200 A  
HETATM   22  C   UNL     1     -11.619  13.545  67.674  1.00  0.00    -0.374 A  
HETATM   23  C   UNL     1      -8.829  12.972  67.696  1.00  0.00    -0.191 A  
HETATM   24  C   UNL     1     -11.201  12.304  67.966  1.00  0.00    -0.321 A  
HETATM   25  C   UNL     1     -10.651  14.580  67.180  1.00  0.00    -0.274 A  
BRANCH  25  26
HETATM   26  N   UNL     1     -11.022  15.688  66.593  1.00  0.00    -0.264 NA 
HETATM   27  C   UNL     1     -11.213  16.993  67.320  1.00  0.00     0.260 C  
HETATM   28  C   UNL     1     -11.269  15.845  65.122  1.00  0.00    -0.224 C  
ENDBRANCH  25  26
ENDBRANCH  10  20
ENDBRANCH   7  10
ENDBRANCH   2   4
TORSDOF 6
ENDMDL
MODEL       98
REMARK 921   NORMALIZED FREE ENERGY PREDICTED BY IDOCK:   -3.15 KCAL/MOL
REMARK 922        TOTAL FREE ENERGY PREDICTED BY IDOCK:   -5.69 KCAL/MOL
REMARK 923 INTER-LIGAND FREE ENERGY PREDICTED BY IDOCK:   -4.11 KCAL/MOL
REMARK 924 INTRA-LIGAND FREE ENERGY PREDICTED BY IDOCK:   -1.58 KCAL/MOL
REMARK 927      BINDING AFFINITY PREDICTED BY RF-SCORE:    0.00 PKD
ROOT
HETATM    1  C   UNL     1      -9.522  15.506  69.152  1.00  0.00    -0.246 C  
HETATM    2  N   UNL     1      -9.347  14.614  68.008  1.00  0.00    -0.194 NA 
HETATM    3  C   UNL     1      -9.015  15.257  66.736  1.00  0.00    -0.262 C  
ENDROOT
BRANCH   2   4
HETATM    4  C   UNL     1      -9.081  13.258  68.195  1.00  0.00    -0.207 A  
HETATM    5  C   UNL     1      -7.773  12.742  68.287  1.00  0.00    -0.136 A  
HETATM    6  C   UNL     1      -7.508  11.364  68.427  1.00  0.00    -0.111 A  
HETATM    7  C   UNL     1      -8.550  10.442  68.503  1.00  0.00    -0.134 A  
HETATM    8  C   UNL     1      -9.857  10.934  68.468  1.00  0.00    -0.188 A  
HETATM    9  C   UNL     1     -10.111  12.308  68.320  1.00  0.00    -0.218 A  
BRANCH   7  10
HETATM   10  C   UNL     1      -8.321   8.964  68.543  1.00  0.00    -0.125 C  
BRANCH  10  11
HETATM   11  C   UNL     1      -8.345   8.268  69.865  1.00  0.00    -0.125 A  
HETATM   12  C   UNL     1      -8.556   8.342  72.289  1.00  0.00    -0.257 A  
HETATM   13  C   UNL     1      -8.415   8.998  71.050  1.00  0.00    -0.254 A  
HETATM   14  C   UNL     1      -8.360   6.876  69.949  1.00  0.00    -0.139 A  
HETATM   15  C   UNL     1      -8.487   6.235  71.195  1.00  0.00    -0.124 A  
HETATM   16  C   UNL     1      -8.617   6.942  72.402  1.00  0.00    -0.122 A  
BRANCH  16  17
HETATM   17  N   UNL     1      -8.833   6.308  73.616  1.00  0.00    -0.124 NA 
HETATM   18  C   UNL     1      -7.938   5.272  74.133  1.00  0.00    -0.103 C  
HETATM   19  C   UNL     1     -10.068   6.461  74.383  1.00  0.00    -0.348 C  
ENDBRANCH  16  17
ENDBRANCH  10  11
BRANCH  10  20
HETATM   20  C   UNL     1      -7.995   8.253  67.420  1.00  0.00    -0.106 A  
HETATM   21  C   UNL     1      -6.301   7.069  66.099  1.00  0.00    -0.050 A  
HETATM   22  C   UNL     1      -8.749   6.818  65.561  1.00  0.00    -0.046 A  
HETATM   23  C   UNL     1      -6.608   7.987  67.032  1.00  0.00    -0.057 A  
HETATM   24  C   UNL     1      -9.014   7.761  66.479  1.00  0.00    -0.191 A  
HETATM   25  C   UNL     1      -7.369   6.243  65.435  1.00  0.00    -0.076 A  
BRANCH  25  26
HETATM   26  N   UNL     1      -7.110   5.131  64.797  1.00  0.00    -0.057 NA 
HETATM   27  C   UNL     1      -7.875   3.851  65.006  1.00  0.00    -0.086 C  
HETATM   28  C   UNL     1      -6.057   4.968  63.741  1.00  0.00    -0.022 C  
ENDBRANCH  25  26
ENDBRANCH  10  20
ENDBRANCH   7  10
ENDBRANCH   2   4
TORSDOF 6
ENDMDL
MODEL       99
REMARK 921   NORMALIZED FREE ENERGY PREDICTED BY IDOCK:   -3.11 KCAL/MOL
REMARK 922        TOTAL FREE ENERGY PREDICTED BY IDOCK:   -5.64 KCAL/MOL
REMARK 923 INTER-LIGAND FREE ENERGY PREDICTED BY IDOCK:   -4.20 KCAL/MOL
REMARK 924 INTRA-LIGAND FREE ENERGY PREDICTED BY IDOCK:   -1.44 KCAL/MOL
REMARK 927      BINDING AFFINITY PREDICTED BY RF-SCORE:    0.00 PKD
ROOT
HETATM    1  C   UNL     1     -11.805   9.527  71.662  1.00  0.00    -0.397 C  
HETATM    2  N   UNL     1     -11.440   9.299  70.265  1.00  0.00    -0.211 NA 
HETATM    3  C   UNL     1     -11.184  10.497  69.464  1.00  0.00    -0.271 C  
ENDROOT
BRANCH   2   4
HETATM    4  C   UNL     1     -10.948   8.062  69.849  1.00  0.00    -0.172 A  
HETATM    5  C   UNL     1     -11.630   6.852  70.083  1.00  0.00    -0.340 A  
HETATM    6  C   UNL     1     -11.106   5.599  69.706  1.00  0.00    -0.170 A  
HETATM    7  C   UNL     1      -9.877   5.508  69.055  1.00  0.00    -0.220 A  
HETATM    8  C   UNL     1      -9.205   6.698  68.764  1.00  0.00    -0.129 A  
HETATM    9  C   UNL     1      -9.733   7.941  69.152  1.00  0.00    -0.162 A  
BRANCH   7  10
HETATM   10  C   UNL     1      -9.228   4.199  68.731  1.00  0.00    -0.206 C  
BRANCH  10  11
HETATM   11  C   UNL     1      -9.262   3.709  67.320  1.00  0.00    -0.215 A  
HETATM   12  C   UNL     1      -9.814   4.056  64.974  1.00  0.00    -0.204 A  
HETATM   13  C   UNL     1      -9.883   4.459  66.323  1.00  0.00    -0.244 A  
HETATM   14  C   UNL     1      -8.622   2.526  66.950  1.00  0.00    -0.119 A  
HETATM   15  C   UNL     1      -8.572   2.130  65.600  1.00  0.00    -0.113 A  
HETATM   16  C   UNL     1      -9.141   2.892  64.565  1.00  0.00    -0.127 A  
BRANCH  16  17
HETATM   17  N   UNL     1      -9.011   2.545  63.230  1.00  0.00    -0.088 NA 
HETATM   18  C   UNL     1      -9.809   1.487  62.610  1.00  0.00    -0.088 C  
HETATM   19  C   UNL     1      -7.935   3.051  62.379  1.00  0.00    -0.070 C  
ENDBRANCH  16  17
ENDBRANCH  10  11
BRANCH  10  20
HETATM   20  C   UNL     1      -8.694   3.397  69.704  1.00  0.00    -0.129 A  
HETATM   21  C   UNL     1      -6.816   2.858  71.187  1.00  0.00    -0.032 A  
HETATM   22  C   UNL     1      -9.081   1.819  71.558  1.00  0.00    -0.141 A  
HETATM   23  C   UNL     1      -7.274   3.435  70.063  1.00  0.00    -0.041 A  
HETATM   24  C   UNL     1      -9.493   2.386  70.414  1.00  0.00    -0.169 A  
HETATM   25  C   UNL     1      -7.750   2.176  72.151  1.00  0.00    -0.045 A  
BRANCH  25  26
HETATM   26  N   UNL     1      -7.420   1.911  73.389  1.00  0.00    -0.032 NA 
HETATM   27  C   UNL     1      -8.408   1.864  74.524  1.00  0.00    -0.057 C  
HETATM   28  C   UNL     1      -6.036   1.574  73.859  1.00  0.00     0.000 C  
ENDBRANCH  25  26
ENDBRANCH  10  20
ENDBRANCH   7  10
ENDBRANCH   2   4
TORSDOF 6
ENDMDL
MODEL      100
REMARK 921   NORMALIZED FREE ENERGY PREDICTED BY IDOCK:   -3.11 KCAL/MOL
REMARK 922        TOTAL FREE ENERGY PREDICTED BY IDOCK:   -5.63 KCAL/MOL
REMARK 923 INTER-LIGAND FREE ENERGY PREDICTED BY IDOCK:   -4.24 KCAL/MOL
REMARK 924 INTRA-LIGAND FREE ENERGY PREDICTED BY IDOCK:   -1.39 KCAL/MOL
REMARK 927      BINDING AFFINITY PREDICTED BY RF-SCORE:    0.00 PKD
ROOT
HETATM    1  C   UNL     1     -10.551  12.400  64.246  1.00  0.00    -0.363 C  
HETATM    2  N   UNL     1      -9.822  11.193  63.857  1.00  0.00    -0.278 NA 
HETATM    3  C   UNL     1      -9.079  11.269  62.599  1.00  0.00    -0.283 C  
ENDROOT
BRANCH   2   4
HETATM    4  C   UNL     1      -9.501  10.219  64.801  1.00  0.00    -0.283 A  
HETATM    5  C   UNL     1      -8.594   9.172  64.540  1.00  0.00    -0.198 A  
HETATM    6  C   UNL     1      -8.309   8.161  65.480  1.00  0.00    -0.160 A  
HETATM    7  C   UNL     1      -8.909   8.169  66.738  1.00  0.00    -0.156 A  
HETATM    8  C   UNL     1      -9.772   9.226  67.041  1.00  0.00    -0.241 A  
HETATM    9  C   UNL     1     -10.054  10.224  66.094  1.00  0.00    -0.307 A  
BRANCH   7  10
HETATM   10  C   UNL     1      -8.724   7.064  67.730  1.00  0.00    -0.121 C  
BRANCH  10  11
HETATM   11  C   UNL     1      -7.939   5.858  67.324  1.00  0.00    -0.102 A  
HETATM   12  C   UNL     1      -7.823   3.669  66.266  1.00  0.00    -0.089 A  
HETATM   13  C   UNL     1      -8.574   4.756  66.755  1.00  0.00    -0.108 A  
HETATM   14  C   UNL     1      -6.550   5.826  67.446  1.00  0.00    -0.056 A  
HETATM   15  C   UNL     1      -5.814   4.727  66.965  1.00  0.00    -0.022 A  
HETATM   16  C   UNL     1      -6.420   3.626  66.336  1.00  0.00    -0.037 A  
BRANCH  16  17
HETATM   17  N   UNL     1      -5.685   2.589  65.782  1.00  0.00    -0.017 NA 
HETATM   18  C   UNL     1      -5.142   1.493  66.586  1.00  0.00    -0.005 C  
HETATM   19  C   UNL     1      -5.211   2.601  64.399  1.00  0.00    -0.008 C  
ENDBRANCH  16  17
ENDBRANCH  10  11
BRANCH  10  20
HETATM   20  C   UNL     1      -9.333   7.083  68.955  1.00  0.00    -0.136 A  
HETATM   21  C   UNL     1     -11.340   6.696  70.312  1.00  0.00    -0.431 A  
HETATM   22  C   UNL     1      -9.096   7.027  71.409  1.00  0.00    -0.147 A  
HETATM   23  C   UNL     1     -10.783   6.952  69.116  1.00  0.00    -0.262 A  
HETATM   24  C   UNL     1      -8.583   7.308  70.202  1.00  0.00    -0.140 A  
HETATM   25  C   UNL     1     -10.493   6.495  71.540  1.00  0.00    -0.215 A  
BRANCH  25  26
HETATM   26  N   UNL     1     -10.943   5.919  72.624  1.00  0.00    -0.248 NA 
HETATM   27  C   UNL     1     -10.076   5.568  73.805  1.00  0.00    -0.207 C  
HETATM   28  C   UNL     1     -12.377   5.561  72.879  1.00  0.00     0.378 C  
ENDBRANCH  25  26
ENDBRANCH  10  20
ENDBRANCH   7  10
ENDBRANCH   2   4
TORSDOF 6
ENDMDL
MODEL      101
REMARK 921   NORMALIZED FREE ENERGY PREDICTED BY IDOCK:   -3.07 KCAL/MOL
REMARK 922        TOTAL FREE ENERGY PREDICTED BY IDOCK:   -5.58 KCAL/MOL
REMARK 923 INTER-LIGAND FREE ENERGY PREDICTED BY IDOCK:   -4.01 KCAL/MOL
REMARK 924 INTRA-LIGAND FREE ENERGY PREDICTED BY IDOCK:   -1.57 KCAL/MOL
REMARK 927      BINDING AFFINITY PREDICTED BY RF-SCORE:    0.00 PKD
ROOT
HETATM    1  C   UNL     1      -6.174   8.117  74.282  1.00  0.00    -0.113 C  
HETATM    2  N   UNL     1      -6.241   7.212  73.136  1.00  0.00    -0.057 NA 
HETATM    3  C   UNL     1      -5.975   5.800  73.417  1.00  0.00    -0.051 C  
ENDROOT
BRANCH   2   4
HETATM    4  C   UNL     1      -6.925   7.577  71.977  1.00  0.00    -0.063 A  
HETATM    5  C   UNL     1      -8.331   7.569  71.886  1.00  0.00    -0.118 A  
HETATM    6  C   UNL     1      -9.017   7.892  70.698  1.00  0.00    -0.148 A  
HETATM    7  C   UNL     1      -8.319   8.259  69.549  1.00  0.00    -0.121 A  
HETATM    8  C   UNL     1      -6.925   8.326  69.628  1.00  0.00    -0.045 A  
HETATM    9  C   UNL     1      -6.251   7.995  70.816  1.00  0.00    -0.033 A  
BRANCH   7  10
HETATM   10  C   UNL     1      -8.993   8.505  68.236  1.00  0.00    -0.139 C  
BRANCH  10  11
HETATM   11  C   UNL     1      -8.976   7.423  67.205  1.00  0.00    -0.128 A  
HETATM   12  C   UNL     1      -9.663   5.214  66.448  1.00  0.00    -0.186 A  
HETATM   13  C   UNL     1      -9.576   6.192  67.459  1.00  0.00    -0.117 A  
HETATM   14  C   UNL     1      -8.419   7.635  65.944  1.00  0.00    -0.150 A  
HETATM   15  C   UNL     1      -8.502   6.645  64.949  1.00  0.00     0.033 A  
HETATM   16  C   UNL     1      -9.149   5.414  65.156  1.00  0.00    -0.011 A  
BRANCH  16  17
HETATM   17  N   UNL     1      -9.308   4.479  64.145  1.00  0.00    -0.121 NA 
HETATM   18  C   UNL     1     -10.560   3.749  63.938  1.00  0.00    -0.261 C  
HETATM   19  C   UNL     1      -8.195   3.988  63.334  1.00  0.00    -0.091 C  
ENDBRANCH  16  17
ENDBRANCH  10  11
BRANCH  10  20
HETATM   20  C   UNL     1      -9.536   9.721  67.919  1.00  0.00    -0.146 A  
HETATM   21  C   UNL     1     -11.420  11.286  68.067  1.00  0.00    -0.369 A  
HETATM   22  C   UNL     1      -9.166  12.067  67.257  1.00  0.00    -0.182 A  
HETATM   23  C   UNL     1     -10.955  10.025  68.117  1.00  0.00    -0.289 A  
HETATM   24  C   UNL     1      -8.747  10.793  67.290  1.00  0.00    -0.130 A  
HETATM   25  C   UNL     1     -10.494  12.451  67.841  1.00  0.00    -0.215 A  
BRANCH  25  26
HETATM   26  N   UNL     1     -10.827  13.684  68.121  1.00  0.00    -0.240 NA 
HETATM   27  C   UNL     1     -12.145  14.073  68.735  1.00  0.00    -0.303 C  
HETATM   28  C   UNL     1      -9.947  14.882  67.918  1.00  0.00    -0.219 C  
ENDBRANCH  25  26
ENDBRANCH  10  20
ENDBRANCH   7  10
ENDBRANCH   2   4
TORSDOF 6
ENDMDL
MODEL      102
REMARK 921   NORMALIZED FREE ENERGY PREDICTED BY IDOCK:   -3.01 KCAL/MOL
REMARK 922        TOTAL FREE ENERGY PREDICTED BY IDOCK:   -5.50 KCAL/MOL
REMARK 923 INTER-LIGAND FREE ENERGY PREDICTED BY IDOCK:   -3.84 KCAL/MOL
REMARK 924 INTRA-LIGAND FREE ENERGY PREDICTED BY IDOCK:   -1.65 KCAL/MOL
REMARK 927      BINDING AFFINITY PREDICTED BY RF-SCORE:    0.00 PKD
ROOT
HETATM    1  C   UNL     1      -7.278  17.475  68.552  1.00  0.00    -0.240 C  
HETATM    2  N   UNL     1      -6.485  16.484  69.276  1.00  0.00    -0.190 NA 
HETATM    3  C   UNL     1      -5.670  16.995  70.379  1.00  0.00    -0.113 C  
ENDROOT
BRANCH   2   4
HETATM    4  C   UNL     1      -6.809  15.129  69.216  1.00  0.00    -0.153 A  
HETATM    5  C   UNL     1      -6.092  14.140  69.918  1.00  0.00    -0.140 A  
HETATM    6  C   UNL     1      -6.392  12.766  69.815  1.00  0.00    -0.065 A  
HETATM    7  C   UNL     1      -7.446  12.325  69.017  1.00  0.00     0.058 A  
HETATM    8  C   UNL     1      -8.207  13.291  68.352  1.00  0.00    -0.134 A  
HETATM    9  C   UNL     1      -7.893  14.657  68.455  1.00  0.00    -0.133 A  
BRANCH   7  10
HETATM   10  C   UNL     1      -7.737  10.875  68.789  1.00  0.00    -0.129 C  
BRANCH  10  11
HETATM   11  C   UNL     1      -7.878  10.382  67.386  1.00  0.00    -0.103 A  
HETATM   12  C   UNL     1      -6.877   9.617  65.303  1.00  0.00    -0.096 A  
HETATM   13  C   UNL     1      -6.755  10.192  66.583  1.00  0.00    -0.079 A  
HETATM   14  C   UNL     1      -9.125  10.040  66.862  1.00  0.00    -0.157 A  
HETATM   15  C   UNL     1      -9.233   9.478  65.577  1.00  0.00    -0.292 A  
HETATM   16  C   UNL     1      -8.114   9.223  64.764  1.00  0.00    -0.133 A  
BRANCH  16  17
HETATM   17  N   UNL     1      -8.217   8.587  63.537  1.00  0.00    -0.160 NA 
HETATM   18  C   UNL     1      -8.893   9.194  62.390  1.00  0.00    -0.204 C  
HETATM   19  C   UNL     1      -7.849   7.187  63.335  1.00  0.00    -0.104 C  
ENDBRANCH  16  17
ENDBRANCH  10  11
BRANCH  10  20
HETATM   20  C   UNL     1      -7.973  10.014  69.827  1.00  0.00    -0.190 A  
HETATM   21  C   UNL     1      -9.581   8.825  71.248  1.00  0.00    -0.323 A  
HETATM   22  C   UNL     1      -7.146   8.179  71.250  1.00  0.00    -0.061 A  
HETATM   23  C   UNL     1      -9.298   9.855  70.431  1.00  0.00    -0.064 A  
HETATM   24  C   UNL     1      -6.898   9.234  70.460  1.00  0.00    -0.087 A  
HETATM   25  C   UNL     1      -8.556   7.765  71.550  1.00  0.00    -0.117 A  
BRANCH  25  26
HETATM   26  N   UNL     1      -8.873   6.595  72.042  1.00  0.00    -0.135 NA 
HETATM   27  C   UNL     1     -10.288   6.092  72.153  1.00  0.00    -0.197 C  
HETATM   28  C   UNL     1      -7.892   5.568  72.524  1.00  0.00    -0.103 C  
ENDBRANCH  25  26
ENDBRANCH  10  20
ENDBRANCH   7  10
ENDBRANCH   2   4
TORSDOF 6
ENDMDL
MODEL      103
REMARK 921   NORMALIZED FREE ENERGY PREDICTED BY IDOCK:   -3.01 KCAL/MOL
REMARK 922        TOTAL FREE ENERGY PREDICTED BY IDOCK:   -5.49 KCAL/MOL
REMARK 923 INTER-LIGAND FREE ENERGY PREDICTED BY IDOCK:   -4.33 KCAL/MOL
REMARK 924 INTRA-LIGAND FREE ENERGY PREDICTED BY IDOCK:   -1.16 KCAL/MOL
REMARK 927      BINDING AFFINITY PREDICTED BY RF-SCORE:    0.00 PKD
ROOT
HETATM    1  C   UNL     1      -9.606  10.268  62.339  1.00  0.00    -0.132 C  
HETATM    2  N   UNL     1      -8.714   9.463  63.174  1.00  0.00    -0.223 NA 
HETATM    3  C   UNL     1      -7.943   8.431  62.480  1.00  0.00    -0.153 C  
ENDROOT
BRANCH   2   4
HETATM    4  C   UNL     1      -8.303   9.921  64.425  1.00  0.00    -0.168 A  
HETATM    5  C   UNL     1      -7.044   9.609  64.975  1.00  0.00    -0.116 A  
HETATM    6  C   UNL     1      -6.651  10.033  66.261  1.00  0.00    -0.085 A  
HETATM    7  C   UNL     1      -7.501  10.810  67.046  1.00  0.00    -0.114 A  
HETATM    8  C   UNL     1      -8.735  11.177  66.502  1.00  0.00    -0.174 A  
HETATM    9  C   UNL     1      -9.119  10.743  65.221  1.00  0.00    -0.217 A  
BRANCH   7  10
HETATM   10  C   UNL     1      -7.176  11.193  68.455  1.00  0.00    -0.088 C  
BRANCH  10  11
HETATM   11  C   UNL     1      -7.656  10.317  69.567  1.00  0.00    -0.150 A  
HETATM   12  C   UNL     1      -9.448   9.100  70.677  1.00  0.00    -0.316 A  
HETATM   13  C   UNL     1      -9.010  10.018  69.702  1.00  0.00    -0.221 A  
HETATM   14  C   UNL     1      -6.760   9.727  70.459  1.00  0.00    -0.125 A  
HETATM   15  C   UNL     1      -7.214   8.822  71.436  1.00  0.00    -0.104 A  
HETATM   16  C   UNL     1      -8.566   8.457  71.562  1.00  0.00    -0.167 A  
BRANCH  16  17
HETATM   17  N   UNL     1      -8.995   7.497  72.465  1.00  0.00    -0.128 NA 
HETATM   18  C   UNL     1     -10.190   7.673  73.292  1.00  0.00    -0.339 C  
HETATM   19  C   UNL     1      -8.193   6.329  72.824  1.00  0.00    -0.112 C  
ENDBRANCH  16  17
ENDBRANCH  10  11
BRANCH  10  20
HETATM   20  C   UNL     1      -6.542  12.368  68.757  1.00  0.00    -0.088 A  
HETATM   21  C   UNL     1      -5.666  14.536  68.013  1.00  0.00    -0.140 A  
HETATM   22  C   UNL     1      -5.930  14.035  70.468  1.00  0.00    -0.177 A  
HETATM   23  C   UNL     1      -6.033  13.275  67.725  1.00  0.00    -0.145 A  
HETATM   24  C   UNL     1      -6.261  12.776  70.143  1.00  0.00    -0.026 A  
HETATM   25  C   UNL     1      -5.797  15.088  69.407  1.00  0.00    -0.103 A  
BRANCH  25  26
HETATM   26  N   UNL     1      -5.785  16.370  69.665  1.00  0.00    -0.160 NA 
HETATM   27  C   UNL     1      -5.240  16.959  70.939  1.00  0.00    -0.178 C  
HETATM   28  C   UNL     1      -6.262  17.442  68.731  1.00  0.00    -0.182 C  
ENDBRANCH  25  26
ENDBRANCH  10  20
ENDBRANCH   7  10
ENDBRANCH   2   4
TORSDOF 6
ENDMDL
MODEL      104
REMARK 921   NORMALIZED FREE ENERGY PREDICTED BY IDOCK:   -2.96 KCAL/MOL
REMARK 922        TOTAL FREE ENERGY PREDICTED BY IDOCK:   -5.43 KCAL/MOL
REMARK 923 INTER-LIGAND FREE ENERGY PREDICTED BY IDOCK:   -4.47 KCAL/MOL
REMARK 924 INTRA-LIGAND FREE ENERGY PREDICTED BY IDOCK:   -0.95 KCAL/MOL
REMARK 927      BINDING AFFINITY PREDICTED BY RF-SCORE:    0.00 PKD
ROOT
HETATM    1  C   UNL     1      -6.489  18.418  69.410  1.00  0.00    -0.239 C  
HETATM    2  N   UNL     1      -5.840  17.234  69.971  1.00  0.00    -0.246 NA 
HETATM    3  C   UNL     1      -5.140  17.426  71.241  1.00  0.00    -0.071 C  
ENDROOT
BRANCH   2   4
HETATM    4  C   UNL     1      -6.222  15.954  69.570  1.00  0.00    -0.163 A  
HETATM    5  C   UNL     1      -7.546  15.629  69.214  1.00  0.00    -0.222 A  
HETATM    6  C   UNL     1      -7.938  14.323  68.857  1.00  0.00    -0.080 A  
HETATM    7  C   UNL     1      -7.009  13.285  68.820  1.00  0.00    -0.103 A  
HETATM    8  C   UNL     1      -5.678  13.592  69.118  1.00  0.00    -0.080 A  
HETATM    9  C   UNL     1      -5.300  14.897  69.480  1.00  0.00    -0.088 A  
BRANCH   7  10
HETATM   10  C   UNL     1      -7.393  11.864  68.554  1.00  0.00    -0.111 C  
BRANCH  10  11
HETATM   11  C   UNL     1      -8.161  11.547  67.312  1.00  0.00    -0.155 A  
HETATM   12  C   UNL     1     -10.092  11.902  65.873  1.00  0.00    -0.265 A  
HETATM   13  C   UNL     1      -9.419  12.106  67.093  1.00  0.00    -0.190 A  
HETATM   14  C   UNL     1      -7.619  10.739  66.313  1.00  0.00    -0.142 A  
HETATM   15  C   UNL     1      -8.309  10.534  65.104  1.00  0.00    -0.150 A  
HETATM   16  C   UNL     1      -9.554  11.128  64.831  1.00  0.00    -0.239 A  
BRANCH  16  17
HETATM   17  N   UNL     1     -10.186  10.997  63.605  1.00  0.00    -0.358 NA 
HETATM   18  C   UNL     1      -9.583  10.278  62.481  1.00  0.00    -0.178 C  
HETATM   19  C   UNL     1     -11.403  11.729  63.256  1.00  0.00    -0.253 C  
ENDBRANCH  16  17
ENDBRANCH  10  11
BRANCH  10  20
HETATM   20  C   UNL     1      -7.147  10.867  69.459  1.00  0.00    -0.123 A  
HETATM   21  C   UNL     1      -5.677   9.890  71.164  1.00  0.00    -0.071 A  
HETATM   22  C   UNL     1      -8.051   9.086  70.905  1.00  0.00    -0.203 A  
HETATM   23  C   UNL     1      -5.837  10.680  70.087  1.00  0.00    -0.087 A  
HETATM   24  C   UNL     1      -8.162   9.864  69.818  1.00  0.00    -0.191 A  
HETATM   25  C   UNL     1      -6.848   9.188  71.797  1.00  0.00     0.103 A  
BRANCH  25  26
HETATM   26  N   UNL     1      -6.810   8.703  73.011  1.00  0.00    -0.296 NA 
HETATM   27  C   UNL     1      -7.873   7.802  73.583  1.00  0.00    -0.154 C  
HETATM   28  C   UNL     1      -5.701   8.927  73.995  1.00  0.00    -0.116 C  
ENDBRANCH  25  26
ENDBRANCH  10  20
ENDBRANCH   7  10
ENDBRANCH   2   4
TORSDOF 6
ENDMDL
MODEL      105
REMARK 921   NORMALIZED FREE ENERGY PREDICTED BY IDOCK:   -2.94 KCAL/MOL
REMARK 922        TOTAL FREE ENERGY PREDICTED BY IDOCK:   -5.41 KCAL/MOL
REMARK 923 INTER-LIGAND FREE ENERGY PREDICTED BY IDOCK:   -4.01 KCAL/MOL
REMARK 924 INTRA-LIGAND FREE ENERGY PREDICTED BY IDOCK:   -1.40 KCAL/MOL
REMARK 927      BINDING AFFINITY PREDICTED BY RF-SCORE:    0.00 PKD
ROOT
HETATM    1  C   UNL     1     -13.209  11.603  63.635  1.00  0.00     0.383 C  
HETATM    2  N   UNL     1     -12.214  12.644  63.887  1.00  0.00    -0.498 NA 
HETATM    3  C   UNL     1     -12.467  13.940  63.258  1.00  0.00     0.420 C  
ENDROOT
BRANCH   2   4
HETATM    4  C   UNL     1     -11.347  12.553  64.975  1.00  0.00    -0.313 A  
HETATM    5  C   UNL     1     -11.580  13.218  66.195  1.00  0.00    -0.385 A  
HETATM    6  C   UNL     1     -10.676  13.163  67.276  1.00  0.00    -0.262 A  
HETATM    7  C   UNL     1      -9.503  12.416  67.186  1.00  0.00    -0.198 A  
HETATM    8  C   UNL     1      -9.274  11.703  66.006  1.00  0.00    -0.218 A  
HETATM    9  C   UNL     1     -10.178  11.772  64.932  1.00  0.00    -0.315 A  
BRANCH   7  10
HETATM   10  C   UNL     1      -8.462  12.412  68.261  1.00  0.00    -0.170 C  
BRANCH  10  11
HETATM   11  C   UNL     1      -7.650  13.648  68.480  1.00  0.00    -0.130 A  
HETATM   12  C   UNL     1      -6.769  15.769  67.674  1.00  0.00    -0.198 A  
HETATM   13  C   UNL     1      -7.433  14.548  67.440  1.00  0.00    -0.194 A  
HETATM   14  C   UNL     1      -7.142  13.964  69.740  1.00  0.00     0.223 A  
HETATM   15  C   UNL     1      -6.469  15.181  69.956  1.00  0.00    -0.156 A  
HETATM   16  C   UNL     1      -6.283  16.135  68.940  1.00  0.00    -0.132 A  
BRANCH  16  17
HETATM   17  N   UNL     1      -5.700  17.370  69.179  1.00  0.00    -0.180 NA 
HETATM   18  C   UNL     1      -5.324  17.816  70.522  1.00  0.00    -0.270 C  
HETATM   19  C   UNL     1      -5.600  18.412  68.159  1.00  0.00    -0.169 C  
ENDBRANCH  16  17
ENDBRANCH  10  11
BRANCH  10  20
HETATM   20  C   UNL     1      -8.168  11.284  68.978  1.00  0.00    -0.026 A  
HETATM   21  C   UNL     1      -6.505   9.909  70.145  1.00  0.00    -0.093 A  
HETATM   22  C   UNL     1      -8.967   9.470  70.444  1.00  0.00    -0.291 A  
HETATM   23  C   UNL     1      -6.792  10.844  69.223  1.00  0.00    -0.105 A  
HETATM   24  C   UNL     1      -9.213  10.388  69.497  1.00  0.00    -0.143 A  
HETATM   25  C   UNL     1      -7.583   9.295  70.996  1.00  0.00    -0.059 A  
BRANCH  25  26
HETATM   26  N   UNL     1      -7.329   8.657  72.110  1.00  0.00    -0.272 NA 
HETATM   27  C   UNL     1      -5.954   8.545  72.712  1.00  0.00    -0.075 C  
HETATM   28  C   UNL     1      -8.356   7.985  72.972  1.00  0.00    -0.185 C  
ENDBRANCH  25  26
ENDBRANCH  10  20
ENDBRANCH   7  10
ENDBRANCH   2   4
TORSDOF 6
ENDMDL
MODEL      106
REMARK 921   NORMALIZED FREE ENERGY PREDICTED BY IDOCK:   -2.90 KCAL/MOL
REMARK 922        TOTAL FREE ENERGY PREDICTED BY IDOCK:   -5.35 KCAL/MOL
REMARK 923 INTER-LIGAND FREE ENERGY PREDICTED BY IDOCK:   -3.99 KCAL/MOL
REMARK 924 INTRA-LIGAND FREE ENERGY PREDICTED BY IDOCK:   -1.36 KCAL/MOL
REMARK 927      BINDING AFFINITY PREDICTED BY RF-SCORE:    0.00 PKD
ROOT
HETATM    1  C   UNL     1      -5.501  16.232  71.310  1.00  0.00     0.182 C  
HETATM    2  N   UNL     1      -5.921  16.169  69.911  1.00  0.00    -0.181 NA 
HETATM    3  C   UNL     1      -5.215  17.057  68.987  1.00  0.00    -0.135 C  
ENDROOT
BRANCH   2   4
HETATM    4  C   UNL     1      -6.610  15.059  69.423  1.00  0.00    -0.143 A  
HETATM    5  C   UNL     1      -7.906  15.145  68.875  1.00  0.00    -0.164 A  
HETATM    6  C   UNL     1      -8.619  14.014  68.429  1.00  0.00    -0.174 A  
HETATM    7  C   UNL     1      -8.052  12.743  68.495  1.00  0.00    -0.080 A  
HETATM    8  C   UNL     1      -6.748  12.636  68.986  1.00  0.00    -0.097 A  
HETATM    9  C   UNL     1      -6.048  13.770  69.435  1.00  0.00    -0.103 A  
BRANCH   7  10
HETATM   10  C   UNL     1      -8.805  11.501  68.137  1.00  0.00    -0.165 C  
BRANCH  10  11
HETATM   11  C   UNL     1      -8.399  10.206  68.764  1.00  0.00    -0.122 A  
HETATM   12  C   UNL     1      -8.762   8.447  70.407  1.00  0.00    -0.142 A  
HETATM   13  C   UNL     1      -9.067   9.720  69.886  1.00  0.00    -0.257 A  
HETATM   14  C   UNL     1      -7.386   9.422  68.211  1.00  0.00    -0.078 A  
HETATM   15  C   UNL     1      -7.084   8.158  68.751  1.00  0.00    -0.071 A  
HETATM   16  C   UNL     1      -7.777   7.616  69.847  1.00  0.00    -0.097 A  
BRANCH  16  17
HETATM   17  N   UNL     1      -7.538   6.334  70.317  1.00  0.00    -0.094 NA 
HETATM   18  C   UNL     1      -7.577   5.998  71.741  1.00  0.00    -0.096 C  
HETATM   19  C   UNL     1      -7.027   5.259  69.468  1.00  0.00    -0.055 C  
ENDBRANCH  16  17
ENDBRANCH  10  11
BRANCH  10  20
HETATM   20  C   UNL     1      -9.786  11.501  67.182  1.00  0.00    -0.210 A  
HETATM   21  C   UNL     1     -12.023  12.211  66.466  1.00  0.00    -0.198 A  
HETATM   22  C   UNL     1     -10.391  11.249  64.805  1.00  0.00    -0.366 A  
HETATM   23  C   UNL     1     -11.152  11.954  67.458  1.00  0.00    -0.332 A  
HETATM   24  C   UNL     1      -9.561  10.980  65.825  1.00  0.00    -0.260 A  
HETATM   25  C   UNL     1     -11.622  12.080  65.022  1.00  0.00    -0.263 A  
BRANCH  25  26
HETATM   26  N   UNL     1     -12.296  12.632  64.047  1.00  0.00    -0.559 NA 
HETATM   27  C   UNL     1     -13.007  11.849  62.975  1.00  0.00     0.337 C  
HETATM   28  C   UNL     1     -12.502  14.107  63.869  1.00  0.00    -0.069 C  
ENDBRANCH  25  26
ENDBRANCH  10  20
ENDBRANCH   7  10
ENDBRANCH   2   4
TORSDOF 6
ENDMDL
MODEL      107
REMARK 921   NORMALIZED FREE ENERGY PREDICTED BY IDOCK:   -2.89 KCAL/MOL
REMARK 922        TOTAL FREE ENERGY PREDICTED BY IDOCK:   -5.34 KCAL/MOL
REMARK 923 INTER-LIGAND FREE ENERGY PREDICTED BY IDOCK:   -4.34 KCAL/MOL
REMARK 924 INTRA-LIGAND FREE ENERGY PREDICTED BY IDOCK:   -0.99 KCAL/MOL
REMARK 927      BINDING AFFINITY PREDICTED BY RF-SCORE:    0.00 PKD
ROOT
HETATM    1  C   UNL     1      -9.430   7.460  73.777  1.00  0.00    -0.279 C  
HETATM    2  N   UNL     1     -10.343   7.624  72.647  1.00  0.00    -0.249 NA 
HETATM    3  C   UNL     1     -11.767   7.477  72.945  1.00  0.00    -0.109 C  
ENDROOT
BRANCH   2   4
HETATM    4  C   UNL     1      -9.936   8.293  71.493  1.00  0.00    -0.199 A  
HETATM    5  C   UNL     1     -10.733   9.261  70.850  1.00  0.00    -0.371 A  
HETATM    6  C   UNL     1     -10.339   9.899  69.657  1.00  0.00    -0.265 A  
HETATM    7  C   UNL     1      -9.111   9.608  69.065  1.00  0.00    -0.148 A  
HETATM    8  C   UNL     1      -8.279   8.691  69.712  1.00  0.00    -0.121 A  
HETATM    9  C   UNL     1      -8.685   8.055  70.897  1.00  0.00    -0.143 A  
BRANCH   7  10
HETATM   10  C   UNL     1      -8.695  10.176  67.745  1.00  0.00    -0.121 C  
BRANCH  10  11
HETATM   11  C   UNL     1      -8.322   9.237  66.644  1.00  0.00    -0.122 A  
HETATM   12  C   UNL     1      -7.306   7.156  65.894  1.00  0.00    -0.075 A  
HETATM   13  C   UNL     1      -7.559   8.101  66.907  1.00  0.00    -0.095 A  
HETATM   14  C   UNL     1      -8.776   9.436  65.340  1.00  0.00    -0.194 A  
HETATM   15  C   UNL     1      -8.504   8.489  64.335  1.00  0.00    -0.089 A  
HETATM   16  C   UNL     1      -7.786   7.306  64.581  1.00  0.00    -0.116 A  
BRANCH  16  17
HETATM   17  N   UNL     1      -7.599   6.334  63.611  1.00  0.00    -0.084 NA 
HETATM   18  C   UNL     1      -8.679   5.456  63.160  1.00  0.00     0.050 C  
HETATM   19  C   UNL     1      -6.280   5.960  63.104  1.00  0.00    -0.021 C  
ENDBRANCH  16  17
ENDBRANCH  10  11
BRANCH  10  20
HETATM   20  C   UNL     1      -8.552  11.524  67.551  1.00  0.00    -0.143 A  
HETATM   21  C   UNL     1      -9.569  13.754  67.462  1.00  0.00    -0.219 A  
HETATM   22  C   UNL     1      -7.065  13.491  67.552  1.00  0.00    -0.159 A  
HETATM   23  C   UNL     1      -9.698  12.419  67.376  1.00  0.00    -0.193 A  
HETATM   24  C   UNL     1      -7.233  12.165  67.433  1.00  0.00    -0.147 A  
HETATM   25  C   UNL     1      -8.243  14.391  67.781  1.00  0.00    -0.168 A  
BRANCH  25  26
HETATM   26  N   UNL     1      -8.134  15.623  68.208  1.00  0.00    -0.132 NA 
HETATM   27  C   UNL     1      -9.100  16.720  67.845  1.00  0.00    -0.224 C  
HETATM   28  C   UNL     1      -7.074  16.120  69.144  1.00  0.00    -0.209 C  
ENDBRANCH  25  26
ENDBRANCH  10  20
ENDBRANCH   7  10
ENDBRANCH   2   4
TORSDOF 6
ENDMDL
MODEL      108
REMARK 921   NORMALIZED FREE ENERGY PREDICTED BY IDOCK:   -2.84 KCAL/MOL
REMARK 922        TOTAL FREE ENERGY PREDICTED BY IDOCK:   -5.27 KCAL/MOL
REMARK 923 INTER-LIGAND FREE ENERGY PREDICTED BY IDOCK:   -3.60 KCAL/MOL
REMARK 924 INTRA-LIGAND FREE ENERGY PREDICTED BY IDOCK:   -1.66 KCAL/MOL
REMARK 927      BINDING AFFINITY PREDICTED BY RF-SCORE:    0.00 PKD
ROOT
HETATM    1  C   UNL     1     -12.584  14.263  74.172  1.00  0.00     1.467 C  
HETATM    2  N   UNL     1     -13.065  14.369  72.796  1.00  0.00    -0.487 NA 
HETATM    3  C   UNL     1     -14.409  14.923  72.627  1.00  0.00     0.060 C  
ENDROOT
BRANCH   2   4
HETATM    4  C   UNL     1     -12.172  14.364  71.726  1.00  0.00    -0.278 A  
HETATM    5  C   UNL     1     -11.377  15.478  71.388  1.00  0.00    -0.458 A  
HETATM    6  C   UNL     1     -10.512  15.485  70.276  1.00  0.00    -0.282 A  
HETATM    7  C   UNL     1     -10.389  14.361  69.462  1.00  0.00     0.027 A  
HETATM    8  C   UNL     1     -11.126  13.225  69.805  1.00  0.00     0.083 A  
HETATM    9  C   UNL     1     -11.992  13.231  70.912  1.00  0.00    -0.090 A  
BRANCH   7  10
HETATM   10  C   UNL     1      -9.568  14.354  68.210  1.00  0.00    -0.211 C  
BRANCH  10  11
HETATM   11  C   UNL     1      -8.942  13.071  67.768  1.00  0.00    -0.191 A  
HETATM   12  C   UNL     1      -7.360  11.256  68.129  1.00  0.00    -0.088 A  
HETATM   13  C   UNL     1      -7.874  12.522  68.474  1.00  0.00    -0.108 A  
HETATM   14  C   UNL     1      -9.446  12.359  66.679  1.00  0.00    -0.232 A  
HETATM   15  C   UNL     1      -8.913  11.102  66.338  1.00  0.00    -0.190 A  
HETATM   16  C   UNL     1      -7.873  10.496  67.064  1.00  0.00    -0.114 A  
BRANCH  16  17
HETATM   17  N   UNL     1      -7.415   9.219  66.780  1.00  0.00    -0.086 NA 
HETATM   18  C   UNL     1      -8.304   8.058  66.725  1.00  0.00    -0.116 C  
HETATM   19  C   UNL     1      -5.994   8.882  66.715  1.00  0.00    -0.053 C  
ENDBRANCH  16  17
ENDBRANCH  10  11
BRANCH  10  20
HETATM   20  C   UNL     1      -9.296  15.503  67.518  1.00  0.00    -0.207 A  
HETATM   21  C   UNL     1     -10.104  17.385  66.167  1.00  0.00    -0.309 A  
HETATM   22  C   UNL     1      -7.789  17.422  67.160  1.00  0.00    -0.226 A  
HETATM   23  C   UNL     1     -10.270  16.130  66.621  1.00  0.00    -0.291 A  
HETATM   24  C   UNL     1      -7.980  16.159  67.570  1.00  0.00    -0.171 A  
HETATM   25  C   UNL     1      -8.926  18.219  66.592  1.00  0.00    -0.288 A  
BRANCH  25  26
HETATM   26  N   UNL     1      -8.898  19.521  66.463  1.00  0.00    -0.341 NA 
HETATM   27  C   UNL     1      -7.649  20.347  66.621  1.00  0.00    -0.242 C  
HETATM   28  C   UNL     1     -10.074  20.378  66.102  1.00  0.00    -0.181 C  
ENDBRANCH  25  26
ENDBRANCH  10  20
ENDBRANCH   7  10
ENDBRANCH   2   4
TORSDOF 6
ENDMDL
MODEL      109
REMARK 921   NORMALIZED FREE ENERGY PREDICTED BY IDOCK:   -2.82 KCAL/MOL
REMARK 922        TOTAL FREE ENERGY PREDICTED BY IDOCK:   -5.24 KCAL/MOL
REMARK 923 INTER-LIGAND FREE ENERGY PREDICTED BY IDOCK:   -3.55 KCAL/MOL
REMARK 924 INTRA-LIGAND FREE ENERGY PREDICTED BY IDOCK:   -1.69 KCAL/MOL
REMARK 927      BINDING AFFINITY PREDICTED BY RF-SCORE:    0.00 PKD
ROOT
HETATM    1  C   UNL     1     -10.999   3.579  62.374  1.00  0.00    -0.074 C  
HETATM    2  N   UNL     1     -10.315   2.910  63.479  1.00  0.00    -0.181 NA 
HETATM    3  C   UNL     1      -9.694   1.623  63.165  1.00  0.00    -0.100 C  
ENDROOT
BRANCH   2   4
HETATM    4  C   UNL     1      -9.909   3.626  64.604  1.00  0.00    -0.181 A  
HETATM    5  C   UNL     1      -8.634   3.477  65.185  1.00  0.00    -0.111 A  
HETATM    6  C   UNL     1      -8.244   4.166  66.352  1.00  0.00    -0.101 A  
HETATM    7  C   UNL     1      -9.115   5.057  66.976  1.00  0.00    -0.117 A  
HETATM    8  C   UNL     1     -10.366   5.264  66.390  1.00  0.00    -0.315 A  
HETATM    9  C   UNL     1     -10.747   4.565  65.231  1.00  0.00    -0.145 A  
BRANCH   7  10
HETATM   10  C   UNL     1      -8.791   5.731  68.273  1.00  0.00    -0.109 C  
BRANCH  10  11
HETATM   11  C   UNL     1      -8.466   7.189  68.264  1.00  0.00    -0.124 A  
HETATM   12  C   UNL     1      -6.996   9.024  67.634  1.00  0.00    -0.075 A  
HETATM   13  C   UNL     1      -7.254   7.644  67.750  1.00  0.00    -0.087 A  
HETATM   14  C   UNL     1      -9.388   8.137  68.710  1.00  0.00    -0.143 A  
HETATM   15  C   UNL     1      -9.110   9.512  68.599  1.00  0.00    -0.132 A  
HETATM   16  C   UNL     1      -7.920  10.004  68.035  1.00  0.00    -0.101 A  
BRANCH  16  17
HETATM   17  N   UNL     1      -7.692  11.357  67.845  1.00  0.00    -0.109 NA 
HETATM   18  C   UNL     1      -8.527  12.181  66.971  1.00  0.00    -0.183 C  
HETATM   19  C   UNL     1      -6.490  12.035  68.327  1.00  0.00    -0.053 C  
ENDBRANCH  16  17
ENDBRANCH  10  11
BRANCH  10  20
HETATM   20  C   UNL     1      -8.688   5.030  69.444  1.00  0.00    -0.108 A  
HETATM   21  C   UNL     1      -7.381   4.447  71.437  1.00  0.00    -0.055 A  
HETATM   22  C   UNL     1      -9.833   3.885  71.303  1.00  0.00    -0.227 A  
HETATM   23  C   UNL     1      -7.422   4.890  70.168  1.00  0.00    -0.059 A  
HETATM   24  C   UNL     1      -9.828   4.307  70.030  1.00  0.00    -0.275 A  
HETATM   25  C   UNL     1      -8.641   4.109  72.187  1.00  0.00    -0.106 A  
BRANCH  25  26
HETATM   26  N   UNL     1      -8.684   4.011  73.490  1.00  0.00    -0.091 NA 
HETATM   27  C   UNL     1      -8.885   5.186  74.410  1.00  0.00    -0.111 C  
HETATM   28  C   UNL     1      -8.586   2.728  74.262  1.00  0.00    -0.075 C  
ENDBRANCH  25  26
ENDBRANCH  10  20
ENDBRANCH   7  10
ENDBRANCH   2   4
TORSDOF 6
ENDMDL
MODEL      110
REMARK 921   NORMALIZED FREE ENERGY PREDICTED BY IDOCK:   -2.78 KCAL/MOL
REMARK 922        TOTAL FREE ENERGY PREDICTED BY IDOCK:   -5.19 KCAL/MOL
REMARK 923 INTER-LIGAND FREE ENERGY PREDICTED BY IDOCK:   -3.79 KCAL/MOL
REMARK 924 INTRA-LIGAND FREE ENERGY PREDICTED BY IDOCK:   -1.40 KCAL/MOL
REMARK 927      BINDING AFFINITY PREDICTED BY RF-SCORE:    0.00 PKD
ROOT
HETATM    1  C   UNL     1     -11.008   3.685  62.340  1.00  0.00    -0.074 C  
HETATM    2  N   UNL     1     -10.400   2.972  63.463  1.00  0.00    -0.184 NA 
HETATM    3  C   UNL     1      -9.856   1.647  63.163  1.00  0.00    -0.106 C  
ENDROOT
BRANCH   2   4
HETATM    4  C   UNL     1      -9.978   3.661  64.599  1.00  0.00    -0.180 A  
HETATM    5  C   UNL     1     -10.825   4.514  65.334  1.00  0.00    -0.096 A  
HETATM    6  C   UNL     1     -10.381   5.247  66.453  1.00  0.00    -0.315 A  
HETATM    7  C   UNL     1      -9.065   5.138  66.900  1.00  0.00    -0.116 A  
HETATM    8  C   UNL     1      -8.218   4.258  66.220  1.00  0.00    -0.102 A  
HETATM    9  C   UNL     1      -8.670   3.538  65.101  1.00  0.00    -0.118 A  
BRANCH   7  10
HETATM   10  C   UNL     1      -8.517   5.974  68.013  1.00  0.00    -0.115 C  
BRANCH  10  11
HETATM   11  C   UNL     1      -8.903   5.643  69.418  1.00  0.00    -0.114 A  
HETATM   12  C   UNL     1      -8.407   5.636  71.801  1.00  0.00    -0.120 A  
HETATM   13  C   UNL     1      -8.005   5.836  70.466  1.00  0.00    -0.105 A  
HETATM   14  C   UNL     1     -10.187   5.194  69.728  1.00  0.00    -0.357 A  
HETATM   15  C   UNL     1     -10.570   4.986  71.066  1.00  0.00    -0.146 A  
HETATM   16  C   UNL     1      -9.705   5.224  72.148  1.00  0.00    -0.164 A  
BRANCH  16  17
HETATM   17  N   UNL     1     -10.115   5.106  73.467  1.00  0.00    -0.169 NA 
HETATM   18  C   UNL     1     -10.285   6.264  74.345  1.00  0.00    -0.321 C  
HETATM   19  C   UNL     1     -10.213   3.820  74.155  1.00  0.00    -0.174 C  
ENDBRANCH  16  17
ENDBRANCH  10  11
BRANCH  10  20
HETATM   20  C   UNL     1      -7.755   7.085  67.774  1.00  0.00    -0.112 A  
HETATM   21  C   UNL     1      -5.637   8.057  67.006  1.00  0.00    -0.037 A  
HETATM   22  C   UNL     1      -7.675   9.507  67.314  1.00  0.00    -0.091 A  
HETATM   23  C   UNL     1      -6.317   7.010  67.506  1.00  0.00    -0.046 A  
HETATM   24  C   UNL     1      -8.310   8.447  67.837  1.00  0.00    -0.131 A  
HETATM   25  C   UNL     1      -6.333   9.347  66.662  1.00  0.00    -0.066 A  
BRANCH  25  26
HETATM   26  N   UNL     1      -5.805  10.248  65.874  1.00  0.00    -0.077 NA 
HETATM   27  C   UNL     1      -5.758  10.121  64.375  1.00  0.00    -0.122 C  
HETATM   28  C   UNL     1      -5.212  11.549  66.328  1.00  0.00    -0.034 C  
ENDBRANCH  25  26
ENDBRANCH  10  20
ENDBRANCH   7  10
ENDBRANCH   2   4
TORSDOF 6
ENDMDL
MODEL      111
REMARK 921   NORMALIZED FREE ENERGY PREDICTED BY IDOCK:   -2.78 KCAL/MOL
REMARK 922        TOTAL FREE ENERGY PREDICTED BY IDOCK:   -5.19 KCAL/MOL
REMARK 923 INTER-LIGAND FREE ENERGY PREDICTED BY IDOCK:   -4.31 KCAL/MOL
REMARK 924 INTRA-LIGAND FREE ENERGY PREDICTED BY IDOCK:   -0.88 KCAL/MOL
REMARK 927      BINDING AFFINITY PREDICTED BY RF-SCORE:    0.00 PKD
ROOT
HETATM    1  C   UNL     1      -9.853  13.103  66.932  1.00  0.00    -0.249 C  
HETATM    2  N   UNL     1      -8.697  12.218  67.066  1.00  0.00    -0.194 NA 
HETATM    3  C   UNL     1      -7.427  12.865  67.398  1.00  0.00    -0.132 C  
ENDROOT
BRANCH   2   4
HETATM    4  C   UNL     1      -8.867  10.853  67.296  1.00  0.00    -0.134 A  
HETATM    5  C   UNL     1      -9.173  10.326  68.567  1.00  0.00    -0.144 A  
HETATM    6  C   UNL     1      -9.296   8.942  68.806  1.00  0.00    -0.137 A  
HETATM    7  C   UNL     1      -9.137   8.023  67.770  1.00  0.00    -0.136 A  
HETATM    8  C   UNL     1      -8.885   8.523  66.489  1.00  0.00    -0.165 A  
HETATM    9  C   UNL     1      -8.757   9.905  66.264  1.00  0.00    -0.152 A  
BRANCH   7  10
HETATM   10  C   UNL     1      -9.149   6.544  67.991  1.00  0.00    -0.114 C  
BRANCH  10  11
HETATM   11  C   UNL     1      -9.295   6.026  69.386  1.00  0.00    -0.146 A  
HETATM   12  C   UNL     1     -10.701   5.271  71.224  1.00  0.00    -0.198 A  
HETATM   13  C   UNL     1     -10.557   5.868  69.956  1.00  0.00    -0.364 A  
HETATM   14  C   UNL     1      -8.184   5.631  70.130  1.00  0.00    -0.114 A  
HETATM   15  C   UNL     1      -8.343   5.049  71.401  1.00  0.00    -0.118 A  
HETATM   16  C   UNL     1      -9.604   4.825  71.980  1.00  0.00    -0.149 A  
BRANCH  16  17
HETATM   17  N   UNL     1      -9.760   4.169  73.191  1.00  0.00    -0.123 NA 
HETATM   18  C   UNL     1      -8.676   4.053  74.168  1.00  0.00    -0.096 C  
HETATM   19  C   UNL     1     -10.936   3.363  73.513  1.00  0.00    -0.233 C  
ENDBRANCH  16  17
ENDBRANCH  10  11
BRANCH  10  20
HETATM   20  C   UNL     1      -8.934   5.658  66.970  1.00  0.00    -0.114 A  
HETATM   21  C   UNL     1      -9.619   3.637  65.759  1.00  0.00    -0.143 A  
HETATM   22  C   UNL     1      -7.930   5.218  64.761  1.00  0.00    -0.107 A  
HETATM   23  C   UNL     1      -9.625   4.369  66.887  1.00  0.00    -0.219 A  
HETATM   24  C   UNL     1      -7.939   5.905  65.913  1.00  0.00    -0.109 A  
HETATM   25  C   UNL     1      -8.932   4.129  64.513  1.00  0.00    -0.142 A  
BRANCH  25  26
HETATM   26  N   UNL     1      -9.182   3.638  63.327  1.00  0.00    -0.099 NA 
HETATM   27  C   UNL     1      -8.121   3.088  62.411  1.00  0.00    -0.072 C  
HETATM   28  C   UNL     1     -10.547   3.508  62.718  1.00  0.00    -0.203 C  
ENDBRANCH  25  26
ENDBRANCH  10  20
ENDBRANCH   7  10
ENDBRANCH   2   4
TORSDOF 6
ENDMDL
MODEL      112
REMARK 921   NORMALIZED FREE ENERGY PREDICTED BY IDOCK:   -2.62 KCAL/MOL
REMARK 922        TOTAL FREE ENERGY PREDICTED BY IDOCK:   -4.97 KCAL/MOL
REMARK 923 INTER-LIGAND FREE ENERGY PREDICTED BY IDOCK:   -3.44 KCAL/MOL
REMARK 924 INTRA-LIGAND FREE ENERGY PREDICTED BY IDOCK:   -1.53 KCAL/MOL
REMARK 927      BINDING AFFINITY PREDICTED BY RF-SCORE:    0.00 PKD
ROOT
HETATM    1  C   UNL     1     -13.094  12.138  64.456  1.00  0.00     0.327 C  
HETATM    2  N   UNL     1     -12.225  13.282  64.726  1.00  0.00    -0.399 NA 
HETATM    3  C   UNL     1     -12.779  14.598  64.408  1.00  0.00     0.085 C  
ENDROOT
BRANCH   2   4
HETATM    4  C   UNL     1     -11.154  13.170  65.612  1.00  0.00    -0.275 A  
HETATM    5  C   UNL     1     -11.097  13.871  66.833  1.00  0.00    -0.309 A  
HETATM    6  C   UNL     1      -9.990  13.794  67.703  1.00  0.00    -0.238 A  
HETATM    7  C   UNL     1      -8.896  12.988  67.393  1.00  0.00    -0.203 A  
HETATM    8  C   UNL     1      -8.951  12.242  66.213  1.00  0.00    -0.068 A  
HETATM    9  C   UNL     1     -10.056  12.332  65.349  1.00  0.00    -0.292 A  
BRANCH   7  10
HETATM   10  C   UNL     1      -7.653  12.955  68.226  1.00  0.00    -0.134 C  
BRANCH  10  11
HETATM   11  C   UNL     1      -6.983  14.246  68.569  1.00  0.00    -0.102 A  
HETATM   12  C   UNL     1      -6.526  16.586  68.080  1.00  0.00    -0.144 A  
HETATM   13  C   UNL     1      -7.057  15.336  67.705  1.00  0.00    -0.180 A  
HETATM   14  C   UNL     1      -6.320  14.415  69.785  1.00  0.00    -0.146 A  
HETATM   15  C   UNL     1      -5.784  15.666  70.140  1.00  0.00    -0.151 A  
HETATM   16  C   UNL     1      -5.891  16.799  69.315  1.00  0.00    -0.168 A  
BRANCH  16  17
HETATM   17  N   UNL     1      -5.441  18.050  69.709  1.00  0.00    -0.206 NA 
HETATM   18  C   UNL     1      -5.139  18.374  71.103  1.00  0.00    -0.255 C  
HETATM   19  C   UNL     1      -5.427  19.206  68.815  1.00  0.00    -0.196 C  
ENDBRANCH  16  17
ENDBRANCH  10  11
BRANCH  10  20
HETATM   20  C   UNL     1      -7.064  11.776  68.598  1.00  0.00    -0.101 A  
HETATM   21  C   UNL     1      -7.207   9.640  69.794  1.00  0.00    -0.094 A  
HETATM   22  C   UNL     1      -5.348  10.064  68.147  1.00  0.00    -0.035 A  
HETATM   23  C   UNL     1      -7.628  10.906  69.632  1.00  0.00     0.012 A  
HETATM   24  C   UNL     1      -5.780  11.329  68.034  1.00  0.00    -0.042 A  
HETATM   25  C   UNL     1      -6.157   9.045  68.894  1.00  0.00    -0.044 A  
BRANCH  25  26
HETATM   26  N   UNL     1      -5.966   7.755  68.787  1.00  0.00    -0.034 NA 
HETATM   27  C   UNL     1      -6.055   6.799  69.946  1.00  0.00    -0.027 C  
HETATM   28  C   UNL     1      -5.674   7.031  67.506  1.00  0.00    -0.024 C  
ENDBRANCH  25  26
ENDBRANCH  10  20
ENDBRANCH   7  10
ENDBRANCH   2   4
TORSDOF 6
ENDMDL
MODEL      113
REMARK 921   NORMALIZED FREE ENERGY PREDICTED BY IDOCK:   -2.59 KCAL/MOL
REMARK 922        TOTAL FREE ENERGY PREDICTED BY IDOCK:   -4.93 KCAL/MOL
REMARK 923 INTER-LIGAND FREE ENERGY PREDICTED BY IDOCK:   -4.07 KCAL/MOL
REMARK 924 INTRA-LIGAND FREE ENERGY PREDICTED BY IDOCK:   -0.86 KCAL/MOL
REMARK 927      BINDING AFFINITY PREDICTED BY RF-SCORE:    0.00 PKD
ROOT
HETATM    1  C   UNL     1     -14.411  16.231  73.441  1.00  0.00     1.361 C  
HETATM    2  N   UNL     1     -12.974  16.083  73.210  1.00  0.00    -0.534 NA 
HETATM    3  C   UNL     1     -12.098  16.665  74.226  1.00  0.00    -0.213 C  
ENDROOT
BRANCH   2   4
HETATM    4  C   UNL     1     -12.488  15.103  72.345  1.00  0.00    -0.352 A  
HETATM    5  C   UNL     1     -11.396  15.320  71.482  1.00  0.00    -0.432 A  
HETATM    6  C   UNL     1     -10.939  14.343  70.574  1.00  0.00     0.210 A  
HETATM    7  C   UNL     1     -11.549  13.092  70.508  1.00  0.00     0.150 A  
HETATM    8  C   UNL     1     -12.601  12.833  71.390  1.00  0.00    -0.308 A  
HETATM    9  C   UNL     1     -13.053  13.817  72.286  1.00  0.00    -0.500 A  
BRANCH   7  10
HETATM   10  C   UNL     1     -11.173  12.062  69.489  1.00  0.00    -0.220 C  
BRANCH  10  11
HETATM   11  C   UNL     1     -11.326  12.394  68.040  1.00  0.00    -0.340 A  
HETATM   12  C   UNL     1     -11.886  11.728  65.767  1.00  0.00     0.036 A  
HETATM   13  C   UNL     1     -11.626  11.399  67.112  1.00  0.00    -0.182 A  
HETATM   14  C   UNL     1     -11.236  13.710  67.587  1.00  0.00    -0.303 A  
HETATM   15  C   UNL     1     -11.485  14.022  66.238  1.00  0.00    -0.358 A  
HETATM   16  C   UNL     1     -11.844  13.049  65.288  1.00  0.00    -0.376 A  
BRANCH  16  17
HETATM   17  N   UNL     1     -12.177  13.372  63.983  1.00  0.00    -0.597 NA 
HETATM   18  C   UNL     1     -12.228  12.374  62.913  1.00  0.00     0.290 C  
HETATM   19  C   UNL     1     -12.304  14.751  63.513  1.00  0.00     0.730 C  
ENDBRANCH  16  17
ENDBRANCH  10  11
BRANCH  10  20
HETATM   20  C   UNL     1     -10.789  10.798  69.848  1.00  0.00    -0.264 A  
HETATM   21  C   UNL     1      -9.000   9.141  70.116  1.00  0.00    -0.219 A  
HETATM   22  C   UNL     1     -11.267   8.756  71.144  1.00  0.00    -0.339 A  
HETATM   23  C   UNL     1      -9.465  10.259  69.530  1.00  0.00    -0.207 A  
HETATM   24  C   UNL     1     -11.703   9.860  70.519  1.00  0.00    -0.373 A  
HETATM   25  C   UNL     1      -9.807   8.411  71.155  1.00  0.00    -0.192 A  
BRANCH  25  26
HETATM   26  N   UNL     1      -9.279   7.546  71.983  1.00  0.00    -0.131 NA 
HETATM   27  C   UNL     1      -8.766   6.195  71.562  1.00  0.00    -0.135 C  
HETATM   28  C   UNL     1      -9.064   7.777  73.449  1.00  0.00    -0.276 C  
ENDBRANCH  25  26
ENDBRANCH  10  20
ENDBRANCH   7  10
ENDBRANCH   2   4
TORSDOF 6
ENDMDL
MODEL      114
REMARK 921   NORMALIZED FREE ENERGY PREDICTED BY IDOCK:   -2.51 KCAL/MOL
REMARK 922        TOTAL FREE ENERGY PREDICTED BY IDOCK:   -4.83 KCAL/MOL
REMARK 923 INTER-LIGAND FREE ENERGY PREDICTED BY IDOCK:   -3.46 KCAL/MOL
REMARK 924 INTRA-LIGAND FREE ENERGY PREDICTED BY IDOCK:   -1.36 KCAL/MOL
REMARK 927      BINDING AFFINITY PREDICTED BY RF-SCORE:    0.00 PKD
ROOT
HETATM    1  C   UNL     1      -9.686   7.978  74.151  1.00  0.00     1.014 C  
HETATM    2  N   UNL     1     -10.386   7.745  72.888  1.00  0.00    -0.306 NA 
HETATM    3  C   UNL     1     -11.698   7.107  72.989  1.00  0.00     0.150 C  
ENDROOT
BRANCH   2   4
HETATM    4  C   UNL     1     -10.042   8.461  71.742  1.00  0.00    -0.247 A  
HETATM    5  C   UNL     1      -8.752   8.424  71.176  1.00  0.00    -0.194 A  
HETATM    6  C   UNL     1      -8.396   9.187  70.046  1.00  0.00    -0.156 A  
HETATM    7  C   UNL     1      -9.330  10.009  69.418  1.00  0.00    -0.237 A  
HETATM    8  C   UNL     1     -10.631  10.024  69.928  1.00  0.00    -0.324 A  
HETATM    9  C   UNL     1     -10.973   9.264  71.060  1.00  0.00    -0.390 A  
BRANCH   7  10
HETATM   10  C   UNL     1      -8.974  10.919  68.285  1.00  0.00    -0.150 C  
BRANCH  10  11
HETATM   11  C   UNL     1      -8.521  10.318  66.994  1.00  0.00    -0.129 A  
HETATM   12  C   UNL     1      -7.093  10.371  65.023  1.00  0.00    -0.062 A  
HETATM   13  C   UNL     1      -7.610  10.987  66.180  1.00  0.00    -0.084 A  
HETATM   14  C   UNL     1      -8.945   9.048  66.600  1.00  0.00    -0.163 A  
HETATM   15  C   UNL     1      -8.430   8.451  65.435  1.00  0.00    -0.193 A  
HETATM   16  C   UNL     1      -7.469   9.077  64.623  1.00  0.00    -0.103 A  
BRANCH  16  17
HETATM   17  N   UNL     1      -6.897   8.448  63.528  1.00  0.00    -0.084 NA 
HETATM   18  C   UNL     1      -7.681   7.656  62.578  1.00  0.00    -0.117 C  
HETATM   19  C   UNL     1      -5.452   8.343  63.337  1.00  0.00    -0.063 C  
ENDBRANCH  16  17
ENDBRANCH  10  11
BRANCH  10  20
HETATM   20  C   UNL     1      -8.959  12.281  68.429  1.00  0.00    -0.141 A  
HETATM   21  C   UNL     1      -7.672  14.357  68.653  1.00  0.00    -0.138 A  
HETATM   22  C   UNL     1     -10.136  14.427  68.137  1.00  0.00    -0.226 A  
HETATM   23  C   UNL     1      -7.746  13.021  68.784  1.00  0.00     0.004 A  
HETATM   24  C   UNL     1     -10.177  13.097  68.305  1.00  0.00    -0.250 A  
HETATM   25  C   UNL     1      -8.823  15.152  68.099  1.00  0.00    -0.169 A  
BRANCH  25  26
HETATM   26  N   UNL     1      -8.686  16.369  67.639  1.00  0.00    -0.182 NA 
HETATM   27  C   UNL     1      -7.790  17.403  68.268  1.00  0.00    -0.247 C  
HETATM   28  C   UNL     1      -9.355  16.906  66.409  1.00  0.00    -0.276 C  
ENDBRANCH  25  26
ENDBRANCH  10  20
ENDBRANCH   7  10
ENDBRANCH   2   4
TORSDOF 6
ENDMDL
MODEL      115
REMARK 921   NORMALIZED FREE ENERGY PREDICTED BY IDOCK:   -2.48 KCAL/MOL
REMARK 922        TOTAL FREE ENERGY PREDICTED BY IDOCK:   -4.79 KCAL/MOL
REMARK 923 INTER-LIGAND FREE ENERGY PREDICTED BY IDOCK:   -3.47 KCAL/MOL
REMARK 924 INTRA-LIGAND FREE ENERGY PREDICTED BY IDOCK:   -1.31 KCAL/MOL
REMARK 927      BINDING AFFINITY PREDICTED BY RF-SCORE:    0.00 PKD
ROOT
HETATM    1  C   UNL     1      -6.573  19.704  69.535  1.00  0.00    -0.348 C  
HETATM    2  N   UNL     1      -5.941  18.429  69.867  1.00  0.00    -0.233 NA 
HETATM    3  C   UNL     1      -5.202  18.387  71.130  1.00  0.00    -0.267 C  
ENDROOT
BRANCH   2   4
HETATM    4  C   UNL     1      -6.368  17.244  69.268  1.00  0.00    -0.239 A  
HETATM    5  C   UNL     1      -7.713  16.826  69.276  1.00  0.00    -0.076 A  
HETATM    6  C   UNL     1      -8.133  15.604  68.713  1.00  0.00    -0.169 A  
HETATM    7  C   UNL     1      -7.219  14.754  68.094  1.00  0.00    -0.125 A  
HETATM    8  C   UNL     1      -5.887  15.169  68.026  1.00  0.00    -0.154 A  
HETATM    9  C   UNL     1      -5.478  16.386  68.598  1.00  0.00    -0.105 A  
BRANCH   7  10
HETATM   10  C   UNL     1      -7.594  13.400  67.578  1.00  0.00    -0.176 C  
BRANCH  10  11
HETATM   11  C   UNL     1      -8.686  13.295  66.563  1.00  0.00     0.082 A  
HETATM   12  C   UNL     1     -10.297  11.956  65.323  1.00  0.00    -0.316 A  
HETATM   13  C   UNL     1      -9.190  12.051  66.190  1.00  0.00    -0.181 A  
HETATM   14  C   UNL     1      -9.271  14.434  66.010  1.00  0.00    -0.070 A  
HETATM   15  C   UNL     1     -10.368  14.323  65.135  1.00  0.00    -0.440 A  
HETATM   16  C   UNL     1     -10.935  13.086  64.783  1.00  0.00    -0.327 A  
BRANCH  16  17
HETATM   17  N   UNL     1     -12.070  12.987  63.994  1.00  0.00    -0.445 NA 
HETATM   18  C   UNL     1     -12.775  14.162  63.479  1.00  0.00     0.755 C  
HETATM   19  C   UNL     1     -12.781  11.728  63.779  1.00  0.00    -0.255 C  
ENDBRANCH  16  17
ENDBRANCH  10  11
BRANCH  10  20
HETATM   20  C   UNL     1      -7.035  12.256  68.079  1.00  0.00    -0.093 A  
HETATM   21  C   UNL     1      -7.076  10.447  69.736  1.00  0.00    -0.148 A  
HETATM   22  C   UNL     1      -5.619  10.275  67.688  1.00  0.00    -0.044 A  
HETATM   23  C   UNL     1      -7.417  11.698  69.379  1.00  0.00     0.154 A  
HETATM   24  C   UNL     1      -5.958  11.536  67.381  1.00  0.00    -0.082 A  
HETATM   25  C   UNL     1      -6.317   9.547  68.800  1.00  0.00    -0.047 A  
BRANCH  25  26
HETATM   26  N   UNL     1      -6.264   8.249  68.953  1.00  0.00    -0.043 NA 
HETATM   27  C   UNL     1      -6.696   7.266  67.897  1.00  0.00    -0.061 C  
HETATM   28  C   UNL     1      -5.732   7.545  70.166  1.00  0.00    -0.024 C  
ENDBRANCH  25  26
ENDBRANCH  10  20
ENDBRANCH   7  10
ENDBRANCH   2   4
TORSDOF 6
ENDMDL
MODEL      116
REMARK 921   NORMALIZED FREE ENERGY PREDICTED BY IDOCK:   -2.41 KCAL/MOL
REMARK 922        TOTAL FREE ENERGY PREDICTED BY IDOCK:   -4.69 KCAL/MOL
REMARK 923 INTER-LIGAND FREE ENERGY PREDICTED BY IDOCK:   -3.43 KCAL/MOL
REMARK 924 INTRA-LIGAND FREE ENERGY PREDICTED BY IDOCK:   -1.26 KCAL/MOL
REMARK 927      BINDING AFFINITY PREDICTED BY RF-SCORE:    0.00 PKD
ROOT
HETATM    1  C   UNL     1     -12.651  10.084  72.044  1.00  0.00    -0.290 C  
HETATM    2  N   UNL     1     -12.223   9.983  70.649  1.00  0.00    -0.281 NA 
HETATM    3  C   UNL     1     -12.196  11.235  69.893  1.00  0.00    -0.288 C  
ENDROOT
BRANCH   2   4
HETATM    4  C   UNL     1     -11.488   8.883  70.207  1.00  0.00    -0.105 A  
HETATM    5  C   UNL     1     -12.016   7.578  70.167  1.00  0.00     0.205 A  
HETATM    6  C   UNL     1     -11.254   6.461  69.766  1.00  0.00    -0.484 A  
HETATM    7  C   UNL     1      -9.928   6.611  69.366  1.00  0.00    -0.169 A  
HETATM    8  C   UNL     1      -9.396   7.903  69.347  1.00  0.00    -0.152 A  
HETATM    9  C   UNL     1     -10.162   9.008  69.755  1.00  0.00    -0.214 A  
BRANCH   7  10
HETATM   10  C   UNL     1      -9.046   5.448  69.037  1.00  0.00    -0.136 C  
BRANCH  10  11
HETATM   11  C   UNL     1      -8.577   5.278  67.628  1.00  0.00    -0.104 A  
HETATM   12  C   UNL     1      -8.784   5.781  65.255  1.00  0.00    -0.100 A  
HETATM   13  C   UNL     1      -9.287   5.841  66.570  1.00  0.00    -0.162 A  
HETATM   14  C   UNL     1      -7.387   4.609  67.338  1.00  0.00    -0.074 A  
HETATM   15  C   UNL     1      -6.904   4.546  66.018  1.00  0.00    -0.058 A  
HETATM   16  C   UNL     1      -7.569   5.151  64.938  1.00  0.00    -0.078 A  
BRANCH  16  17
HETATM   17  N   UNL     1      -7.042   5.165  63.656  1.00  0.00    -0.047 NA 
HETATM   18  C   UNL     1      -5.884   5.981  63.290  1.00  0.00    -0.022 C  
HETATM   19  C   UNL     1      -7.710   4.539  62.516  1.00  0.00    -0.060 C  
ENDBRANCH  16  17
ENDBRANCH  10  11
BRANCH  10  20
HETATM   20  C   UNL     1      -8.740   4.487  69.963  1.00  0.00    -0.115 A  
HETATM   21  C   UNL     1      -7.207   3.631  71.676  1.00  0.00    -0.039 A  
HETATM   22  C   UNL     1      -9.537   2.697  71.459  1.00  0.00    -0.221 A  
HETATM   23  C   UNL     1      -7.417   4.386  70.583  1.00  0.00    -0.052 A  
HETATM   24  C   UNL     1      -9.698   3.441  70.355  1.00  0.00    -0.150 A  
HETATM   25  C   UNL     1      -8.334   2.884  72.337  1.00  0.00    -0.070 A  
BRANCH  25  26
HETATM   26  N   UNL     1      -8.260   2.430  73.561  1.00  0.00    -0.061 NA 
HETATM   27  C   UNL     1      -7.103   2.706  74.485  1.00  0.00    -0.040 C  
HETATM   28  C   UNL     1      -9.318   1.615  74.244  1.00  0.00    -0.064 C  
ENDBRANCH  25  26
ENDBRANCH  10  20
ENDBRANCH   7  10
ENDBRANCH   2   4
TORSDOF 6
ENDMDL
MODEL      117
REMARK 921   NORMALIZED FREE ENERGY PREDICTED BY IDOCK:   -2.41 KCAL/MOL
REMARK 922        TOTAL FREE ENERGY PREDICTED BY IDOCK:   -4.68 KCAL/MOL
REMARK 923 INTER-LIGAND FREE ENERGY PREDICTED BY IDOCK:   -2.99 KCAL/MOL
REMARK 924 INTRA-LIGAND FREE ENERGY PREDICTED BY IDOCK:   -1.69 KCAL/MOL
REMARK 927      BINDING AFFINITY PREDICTED BY RF-SCORE:    0.00 PKD
ROOT
HETATM    1  C   UNL     1      -5.343  14.871  72.566  1.00  0.00     0.053 C  
HETATM    2  N   UNL     1      -5.643  14.838  71.135  1.00  0.00    -0.125 NA 
HETATM    3  C   UNL     1      -5.162  15.977  70.353  1.00  0.00    -0.169 C  
ENDROOT
BRANCH   2   4
HETATM    4  C   UNL     1      -5.961  13.638  70.501  1.00  0.00    -0.145 A  
HETATM    5  C   UNL     1      -6.906  13.552  69.459  1.00  0.00     0.048 A  
HETATM    6  C   UNL     1      -7.262  12.330  68.854  1.00  0.00    -0.069 A  
HETATM    7  C   UNL     1      -6.664  11.136  69.255  1.00  0.00    -0.103 A  
HETATM    8  C   UNL     1      -5.685  11.201  70.250  1.00  0.00    -0.128 A  
HETATM    9  C   UNL     1      -5.344  12.425  70.852  1.00  0.00    -0.162 A  
BRANCH   7  10
HETATM   10  C   UNL     1      -7.083   9.803  68.722  1.00  0.00    -0.067 C  
BRANCH  10  11
HETATM   11  C   UNL     1      -7.419   9.682  67.271  1.00  0.00    -0.088 A  
HETATM   12  C   UNL     1      -9.036   9.247  65.504  1.00  0.00    -0.275 A  
HETATM   13  C   UNL     1      -8.680   9.249  66.867  1.00  0.00    -0.136 A  
HETATM   14  C   UNL     1      -6.506  10.055  66.284  1.00  0.00    -0.081 A  
HETATM   15  C   UNL     1      -6.871  10.035  64.926  1.00  0.00    -0.133 A  
HETATM   16  C   UNL     1      -8.153   9.657  64.491  1.00  0.00    -0.143 A  
BRANCH  16  17
HETATM   17  N   UNL     1      -8.537   9.726  63.160  1.00  0.00    -0.180 NA 
HETATM   18  C   UNL     1      -8.936  10.981  62.521  1.00  0.00    -0.326 C  
HETATM   19  C   UNL     1      -8.776   8.540  62.340  1.00  0.00    -0.070 C  
ENDBRANCH  16  17
ENDBRANCH  10  11
BRANCH  10  20
HETATM   20  C   UNL     1      -7.261   8.720  69.541  1.00  0.00    -0.059 A  
HETATM   21  C   UNL     1      -6.449   6.562  70.379  1.00  0.00    -0.044 A  
HETATM   22  C   UNL     1      -8.310   7.779  71.564  1.00  0.00    -0.119 A  
HETATM   23  C   UNL     1      -6.463   7.498  69.414  1.00  0.00    -0.036 A  
HETATM   24  C   UNL     1      -8.315   8.676  70.567  1.00  0.00    -0.147 A  
HETATM   25  C   UNL     1      -7.226   6.745  71.655  1.00  0.00    -0.080 A  
BRANCH  25  26
HETATM   26  N   UNL     1      -6.982   6.053  72.737  1.00  0.00    -0.075 NA 
HETATM   27  C   UNL     1      -8.016   5.764  73.794  1.00  0.00    -0.107 C  
HETATM   28  C   UNL     1      -5.669   5.411  73.073  1.00  0.00    -0.023 C  
ENDBRANCH  25  26
ENDBRANCH  10  20
ENDBRANCH   7  10
ENDBRANCH   2   4
TORSDOF 6
ENDMDL
MODEL      118
REMARK 921   NORMALIZED FREE ENERGY PREDICTED BY IDOCK:   -2.37 KCAL/MOL
REMARK 922        TOTAL FREE ENERGY PREDICTED BY IDOCK:   -4.64 KCAL/MOL
REMARK 923 INTER-LIGAND FREE ENERGY PREDICTED BY IDOCK:   -3.05 KCAL/MOL
REMARK 924 INTRA-LIGAND FREE ENERGY PREDICTED BY IDOCK:   -1.59 KCAL/MOL
REMARK 927      BINDING AFFINITY PREDICTED BY RF-SCORE:    0.00 PKD
ROOT
HETATM    1  C   UNL     1      -5.422  14.718  72.592  1.00  0.00     0.094 C  
HETATM    2  N   UNL     1      -5.683  14.739  71.153  1.00  0.00    -0.102 NA 
HETATM    3  C   UNL     1      -5.127  15.874  70.416  1.00  0.00    -0.158 C  
ENDROOT
BRANCH   2   4
HETATM    4  C   UNL     1      -6.041  13.574  70.476  1.00  0.00    -0.077 A  
HETATM    5  C   UNL     1      -6.934  13.567  69.386  1.00  0.00     0.046 A  
HETATM    6  C   UNL     1      -7.331  12.381  68.737  1.00  0.00    -0.076 A  
HETATM    7  C   UNL     1      -6.829  11.145  69.141  1.00  0.00    -0.102 A  
HETATM    8  C   UNL     1      -5.900  11.130  70.185  1.00  0.00    -0.124 A  
HETATM    9  C   UNL     1      -5.518  12.318  70.831  1.00  0.00    -0.139 A  
BRANCH   7  10
HETATM   10  C   UNL     1      -7.299   9.850  68.557  1.00  0.00    -0.078 C  
BRANCH  10  11
HETATM   11  C   UNL     1      -7.026   8.584  69.302  1.00  0.00    -0.054 A  
HETATM   12  C   UNL     1      -7.706   6.891  70.914  1.00  0.00    -0.092 A  
HETATM   13  C   UNL     1      -7.899   8.141  70.293  1.00  0.00    -0.093 A  
HETATM   14  C   UNL     1      -5.929   7.782  68.986  1.00  0.00    -0.034 A  
HETATM   15  C   UNL     1      -5.742   6.541  69.623  1.00  0.00    -0.014 A  
HETATM   16  C   UNL     1      -6.635   6.041  70.587  1.00  0.00    -0.048 A  
BRANCH  16  17
HETATM   17  N   UNL     1      -6.496   4.780  71.145  1.00  0.00    -0.019 NA 
HETATM   18  C   UNL     1      -5.201   4.246  71.570  1.00  0.00     0.000 C  
HETATM   19  C   UNL     1      -7.578   3.798  71.169  1.00  0.00    -0.044 C  
ENDBRANCH  16  17
ENDBRANCH  10  11
BRANCH  10  20
HETATM   20  C   UNL     1      -7.882   9.785  67.320  1.00  0.00    -0.098 A  
HETATM   21  C   UNL     1      -9.920   9.641  65.961  1.00  0.00    -0.344 A  
HETATM   22  C   UNL     1      -7.713  10.236  64.902  1.00  0.00    -0.124 A  
HETATM   23  C   UNL     1      -9.293   9.436  67.133  1.00  0.00    -0.172 A  
HETATM   24  C   UNL     1      -7.118   9.992  66.080  1.00  0.00    -0.111 A  
HETATM   25  C   UNL     1      -9.209  10.275  64.796  1.00  0.00    -0.241 A  
BRANCH  25  26
HETATM   26  N   UNL     1      -9.844  10.800  63.780  1.00  0.00    -0.312 NA 
HETATM   27  C   UNL     1     -10.882  11.883  63.914  1.00  0.00    -0.395 C  
HETATM   28  C   UNL     1      -9.613  10.444  62.342  1.00  0.00    -0.137 C  
ENDBRANCH  25  26
ENDBRANCH  10  20
ENDBRANCH   7  10
ENDBRANCH   2   4
TORSDOF 6
ENDMDL
MODEL      119
REMARK 921   NORMALIZED FREE ENERGY PREDICTED BY IDOCK:   -2.18 KCAL/MOL
REMARK 922        TOTAL FREE ENERGY PREDICTED BY IDOCK:   -4.37 KCAL/MOL
REMARK 923 INTER-LIGAND FREE ENERGY PREDICTED BY IDOCK:   -2.81 KCAL/MOL
REMARK 924 INTRA-LIGAND FREE ENERGY PREDICTED BY IDOCK:   -1.57 KCAL/MOL
REMARK 927      BINDING AFFINITY PREDICTED BY RF-SCORE:    0.00 PKD
ROOT
HETATM    1  C   UNL     1      -5.519  15.536  70.280  1.00  0.00    -0.140 C  
HETATM    2  N   UNL     1      -6.799  15.045  69.771  1.00  0.00    -0.177 NA 
HETATM    3  C   UNL     1      -7.676  16.047  69.166  1.00  0.00    -0.231 C  
ENDROOT
BRANCH   2   4
HETATM    4  C   UNL     1      -6.980  13.693  69.483  1.00  0.00     0.090 A  
HETATM    5  C   UNL     1      -6.070  12.697  69.892  1.00  0.00    -0.125 A  
HETATM    6  C   UNL     1      -6.231  11.337  69.556  1.00  0.00    -0.099 A  
HETATM    7  C   UNL     1      -7.329  10.912  68.811  1.00  0.00    -0.104 A  
HETATM    8  C   UNL     1      -8.274  11.872  68.439  1.00  0.00    -0.160 A  
HETATM    9  C   UNL     1      -8.099  13.227  68.772  1.00  0.00     0.063 A  
BRANCH   7  10
HETATM   10  C   UNL     1      -7.489   9.502  68.338  1.00  0.00    -0.077 C  
BRANCH  10  11
HETATM   11  C   UNL     1      -8.257   8.541  69.187  1.00  0.00    -0.119 A  
HETATM   12  C   UNL     1      -9.965   6.822  69.419  1.00  0.00    -0.167 A  
HETATM   13  C   UNL     1      -9.316   7.811  68.653  1.00  0.00    -0.148 A  
HETATM   14  C   UNL     1      -7.899   8.304  70.515  1.00  0.00    -0.087 A  
HETATM   15  C   UNL     1      -8.564   7.321  71.271  1.00  0.00    -0.119 A  
HETATM   16  C   UNL     1      -9.599   6.529  70.744  1.00  0.00    -0.179 A  
BRANCH  16  17
HETATM   17  N   UNL     1     -10.189   5.502  71.463  1.00  0.00    -0.205 NA 
HETATM   18  C   UNL     1     -10.731   5.695  72.809  1.00  0.00    -0.242 C  
HETATM   19  C   UNL     1     -10.139   4.104  71.039  1.00  0.00    -0.059 C  
ENDBRANCH  16  17
ENDBRANCH  10  11
BRANCH  10  20
HETATM   20  C   UNL     1      -6.872   9.045  67.205  1.00  0.00    -0.074 A  
HETATM   21  C   UNL     1      -5.819   7.196  65.984  1.00  0.00    -0.036 A  
HETATM   22  C   UNL     1      -6.484   9.310  64.784  1.00  0.00    -0.076 A  
HETATM   23  C   UNL     1      -6.177   7.757  67.152  1.00  0.00    -0.054 A  
HETATM   24  C   UNL     1      -6.801   9.846  65.972  1.00  0.00    -0.099 A  
HETATM   25  C   UNL     1      -6.151   7.851  64.670  1.00  0.00    -0.048 A  
BRANCH  25  26
HETATM   26  N   UNL     1      -6.137   7.204  63.533  1.00  0.00    -0.044 NA 
HETATM   27  C   UNL     1      -6.968   7.596  62.340  1.00  0.00    -0.076 C  
HETATM   28  C   UNL     1      -5.275   6.015  63.228  1.00  0.00    -0.017 C  
ENDBRANCH  25  26
ENDBRANCH  10  20
ENDBRANCH   7  10
ENDBRANCH   2   4
TORSDOF 6
ENDMDL
MODEL      120
REMARK 921   NORMALIZED FREE ENERGY PREDICTED BY IDOCK:   -2.16 KCAL/MOL
REMARK 922        TOTAL FREE ENERGY PREDICTED BY IDOCK:   -4.36 KCAL/MOL
REMARK 923 INTER-LIGAND FREE ENERGY PREDICTED BY IDOCK:   -3.03 KCAL/MOL
REMARK 924 INTRA-LIGAND FREE ENERGY PREDICTED BY IDOCK:   -1.33 KCAL/MOL
REMARK 927      BINDING AFFINITY PREDICTED BY RF-SCORE:    0.00 PKD
ROOT
HETATM    1  C   UNL     1     -12.758  12.249  63.917  1.00  0.00    -0.382 C  
HETATM    2  N   UNL     1     -11.377  11.772  63.843  1.00  0.00    -0.401 NA 
HETATM    3  C   UNL     1     -10.856  11.520  62.500  1.00  0.00     1.085 C  
ENDROOT
BRANCH   2   4
HETATM    4  C   UNL     1     -10.499  11.963  64.909  1.00  0.00    -0.287 A  
HETATM    5  C   UNL     1      -9.263  11.295  65.009  1.00  0.00    -0.147 A  
HETATM    6  C   UNL     1      -8.400  11.453  66.113  1.00  0.00    -0.071 A  
HETATM    7  C   UNL     1      -8.734  12.310  67.160  1.00  0.00    -0.193 A  
HETATM    8  C   UNL     1      -9.931  13.025  67.061  1.00  0.00    -0.242 A  
HETATM    9  C   UNL     1     -10.786  12.854  65.959  1.00  0.00    -0.300 A  
BRANCH   7  10
HETATM   10  C   UNL     1      -7.907  12.431  68.402  1.00  0.00    -0.142 C  
BRANCH  10  11
HETATM   11  C   UNL     1      -7.283  13.750  68.725  1.00  0.00    -0.106 A  
HETATM   12  C   UNL     1      -5.419  15.306  68.550  1.00  0.00    -0.097 A  
HETATM   13  C   UNL     1      -5.969  14.024  68.351  1.00  0.00    -0.102 A  
HETATM   14  C   UNL     1      -8.013  14.761  69.349  1.00  0.00    -0.065 A  
HETATM   15  C   UNL     1      -7.446  16.033  69.553  1.00  0.00    -0.125 A  
HETATM   16  C   UNL     1      -6.143  16.358  69.138  1.00  0.00    -0.161 A  
BRANCH  16  17
HETATM   17  N   UNL     1      -5.622  17.636  69.259  1.00  0.00    -0.191 NA 
HETATM   18  C   UNL     1      -5.307  18.470  68.098  1.00  0.00    -0.167 C  
HETATM   19  C   UNL     1      -5.148  18.184  70.528  1.00  0.00    -0.252 C  
ENDBRANCH  16  17
ENDBRANCH  10  11
BRANCH  10  20
HETATM   20  C   UNL     1      -7.628  11.349  69.192  1.00  0.00    -0.038 A  
HETATM   21  C   UNL     1      -8.313   9.174  70.097  1.00  0.00    -0.174 A  
HETATM   22  C   UNL     1      -5.924   9.950  70.296  1.00  0.00    -0.064 A  
HETATM   23  C   UNL     1      -8.645  10.362  69.562  1.00  0.00    -0.109 A  
HETATM   24  C   UNL     1      -6.300  11.133  69.788  1.00  0.00    -0.130 A  
HETATM   25  C   UNL     1      -6.873   8.788  70.306  1.00  0.00    -0.042 A  
BRANCH  25  26
HETATM   26  N   UNL     1      -6.492   7.550  70.492  1.00  0.00    -0.038 NA 
HETATM   27  C   UNL     1      -6.643   6.466  69.458  1.00  0.00    -0.048 C  
HETATM   28  C   UNL     1      -5.816   7.032  71.727  1.00  0.00    -0.037 C  
ENDBRANCH  25  26
ENDBRANCH  10  20
ENDBRANCH   7  10
ENDBRANCH   2   4
TORSDOF 6
ENDMDL
MODEL      121
REMARK 921   NORMALIZED FREE ENERGY PREDICTED BY IDOCK:   -2.07 KCAL/MOL
REMARK 922        TOTAL FREE ENERGY PREDICTED BY IDOCK:   -4.23 KCAL/MOL
REMARK 923 INTER-LIGAND FREE ENERGY PREDICTED BY IDOCK:   -3.06 KCAL/MOL
REMARK 924 INTRA-LIGAND FREE ENERGY PREDICTED BY IDOCK:   -1.16 KCAL/MOL
REMARK 927      BINDING AFFINITY PREDICTED BY RF-SCORE:    0.00 PKD
ROOT
HETATM    1  C   UNL     1     -12.850  12.594  63.283  1.00  0.00     0.136 C  
HETATM    2  N   UNL     1     -11.899  12.837  64.367  1.00  0.00    -0.360 NA 
HETATM    3  C   UNL     1     -12.330  13.779  65.400  1.00  0.00    -0.475 C  
ENDROOT
BRANCH   2   4
HETATM    4  C   UNL     1     -10.874  11.930  64.633  1.00  0.00    -0.311 A  
HETATM    5  C   UNL     1     -10.360  11.052  63.657  1.00  0.00    -0.415 A  
HETATM    6  C   UNL     1      -9.358  10.102  63.942  1.00  0.00    -0.336 A  
HETATM    7  C   UNL     1      -8.809  10.007  65.220  1.00  0.00    -0.205 A  
HETATM    8  C   UNL     1      -9.265  10.901  66.192  1.00  0.00    -0.205 A  
HETATM    9  C   UNL     1     -10.270  11.839  65.899  1.00  0.00    -0.272 A  
BRANCH   7  10
HETATM   10  C   UNL     1      -7.824   8.947  65.600  1.00  0.00    -0.096 C  
BRANCH  10  11
HETATM   11  C   UNL     1      -7.109   9.065  66.907  1.00  0.00    -0.078 A  
HETATM   12  C   UNL     1      -5.739  10.346  68.459  1.00  0.00    -0.037 A  
HETATM   13  C   UNL     1      -6.317  10.177  67.185  1.00  0.00    -0.067 A  
HETATM   14  C   UNL     1      -7.264   8.103  67.905  1.00  0.00    -0.091 A  
HETATM   15  C   UNL     1      -6.669   8.279  69.168  1.00  0.00    -0.047 A  
HETATM   16  C   UNL     1      -5.911   9.415  69.498  1.00  0.00    -0.033 A  
BRANCH  16  17
HETATM   17  N   UNL     1      -5.404   9.627  70.770  1.00  0.00    -0.043 NA 
HETATM   18  C   UNL     1      -5.194   8.537  71.725  1.00  0.00    -0.036 C  
HETATM   19  C   UNL     1      -5.230  10.959  71.345  1.00  0.00    -0.047 C  
ENDBRANCH  16  17
ENDBRANCH  10  11
BRANCH  10  20
HETATM   20  C   UNL     1      -7.489   7.931  64.746  1.00  0.00    -0.095 A  
HETATM   21  C   UNL     1      -5.752   6.549  63.702  1.00  0.00    -0.030 A  
HETATM   22  C   UNL     1      -8.176   5.876  63.570  1.00  0.00    -0.049 A  
HETATM   23  C   UNL     1      -6.112   7.694  64.307  1.00  0.00    -0.048 A  
HETATM   24  C   UNL     1      -8.498   7.043  64.148  1.00  0.00     0.287 A  
HETATM   25  C   UNL     1      -6.743   5.439  63.479  1.00  0.00    -0.033 A  
BRANCH  25  26
HETATM   26  N   UNL     1      -6.382   4.209  63.219  1.00  0.00    -0.022 NA 
HETATM   27  C   UNL     1      -5.197   3.851  62.362  1.00  0.00    -0.005 C  
HETATM   28  C   UNL     1      -7.053   2.981  63.759  1.00  0.00    -0.049 C  
ENDBRANCH  25  26
ENDBRANCH  10  20
ENDBRANCH   7  10
ENDBRANCH   2   4
TORSDOF 6
ENDMDL
MODEL      122
REMARK 921   NORMALIZED FREE ENERGY PREDICTED BY IDOCK:   -1.98 KCAL/MOL
REMARK 922        TOTAL FREE ENERGY PREDICTED BY IDOCK:   -4.10 KCAL/MOL
REMARK 923 INTER-LIGAND FREE ENERGY PREDICTED BY IDOCK:   -2.34 KCAL/MOL
REMARK 924 INTRA-LIGAND FREE ENERGY PREDICTED BY IDOCK:   -1.76 KCAL/MOL
REMARK 927      BINDING AFFINITY PREDICTED BY RF-SCORE:    0.00 PKD
ROOT
HETATM    1  C   UNL     1      -5.478  14.721  72.624  1.00  0.00     0.094 C  
HETATM    2  N   UNL     1      -5.899  14.698  71.223  1.00  0.00    -0.090 NA 
HETATM    3  C   UNL     1      -5.490  15.845  70.412  1.00  0.00    -0.158 C  
ENDROOT
BRANCH   2   4
HETATM    4  C   UNL     1      -6.266  13.502  70.609  1.00  0.00     0.045 A  
HETATM    5  C   UNL     1      -7.336  13.409  69.696  1.00  0.00     0.524 A  
HETATM    6  C   UNL     1      -7.735  12.189  69.115  1.00  0.00     0.230 A  
HETATM    7  C   UNL     1      -7.061  11.005  69.409  1.00  0.00    -0.128 A  
HETATM    8  C   UNL     1      -5.963  11.079  70.270  1.00  0.00    -0.139 A  
HETATM    9  C   UNL     1      -5.578  12.300  70.850  1.00  0.00    -0.099 A  
BRANCH   7  10
HETATM   10  C   UNL     1      -7.511   9.671  68.904  1.00  0.00    -0.075 C  
BRANCH  10  11
HETATM   11  C   UNL     1      -7.521   9.425  67.430  1.00  0.00    -0.091 A  
HETATM   12  C   UNL     1      -8.741   9.136  65.343  1.00  0.00    -0.217 A  
HETATM   13  C   UNL     1      -8.723   9.250  66.748  1.00  0.00    -0.138 A  
HETATM   14  C   UNL     1      -6.339   9.427  66.689  1.00  0.00    -0.066 A  
HETATM   15  C   UNL     1      -6.372   9.299  65.288  1.00  0.00    -0.065 A  
HETATM   16  C   UNL     1      -7.572   9.176  64.565  1.00  0.00    -0.107 A  
BRANCH  16  17
HETATM   17  N   UNL     1      -7.604   9.142  63.180  1.00  0.00    -0.101 NA 
HETATM   18  C   UNL     1      -8.011   7.952  62.432  1.00  0.00    -0.153 C  
HETATM   19  C   UNL     1      -7.045  10.204  62.346  1.00  0.00    -0.130 C  
ENDBRANCH  16  17
ENDBRANCH  10  11
BRANCH  10  20
HETATM   20  C   UNL     1      -8.003   8.709  69.744  1.00  0.00    -0.095 A  
HETATM   21  C   UNL     1      -9.628   8.047  71.459  1.00  0.00    -0.209 A  
HETATM   22  C   UNL     1      -8.252   6.311  70.260  1.00  0.00    -0.125 A  
HETATM   23  C   UNL     1      -8.944   9.015  70.825  1.00  0.00    -0.286 A  
HETATM   24  C   UNL     1      -7.571   7.304  69.670  1.00  0.00    -0.099 A  
HETATM   25  C   UNL     1      -9.486   6.602  71.061  1.00  0.00    -0.164 A  
BRANCH  25  26
HETATM   26  N   UNL     1     -10.358   5.687  71.397  1.00  0.00    -0.220 NA 
HETATM   27  C   UNL     1     -10.243   4.239  70.999  1.00  0.00     0.000 C  
HETATM   28  C   UNL     1     -11.566   5.920  72.255  1.00  0.00    -0.282 C  
ENDBRANCH  25  26
ENDBRANCH  10  20
ENDBRANCH   7  10
ENDBRANCH   2   4
TORSDOF 6
ENDMDL
MODEL      123
REMARK 921   NORMALIZED FREE ENERGY PREDICTED BY IDOCK:   -1.95 KCAL/MOL
REMARK 922        TOTAL FREE ENERGY PREDICTED BY IDOCK:   -4.07 KCAL/MOL
REMARK 923 INTER-LIGAND FREE ENERGY PREDICTED BY IDOCK:   -2.41 KCAL/MOL
REMARK 924 INTRA-LIGAND FREE ENERGY PREDICTED BY IDOCK:   -1.66 KCAL/MOL
REMARK 927      BINDING AFFINITY PREDICTED BY RF-SCORE:    0.00 PKD
ROOT
HETATM    1  C   UNL     1     -12.579  14.257  74.181  1.00  0.00     1.467 C  
HETATM    2  N   UNL     1     -13.013  14.358  72.789  1.00  0.00    -0.461 NA 
HETATM    3  C   UNL     1     -14.352  14.906  72.572  1.00  0.00    -0.148 C  
ENDROOT
BRANCH   2   4
HETATM    4  C   UNL     1     -12.083  14.352  71.750  1.00  0.00    -0.215 A  
HETATM    5  C   UNL     1     -12.054  13.353  70.757  1.00  0.00    -0.333 A  
HETATM    6  C   UNL     1     -11.081  13.324  69.737  1.00  0.00     0.083 A  
HETATM    7  C   UNL     1     -10.103  14.314  69.656  1.00  0.00     0.329 A  
HETATM    8  C   UNL     1     -10.143  15.346  70.598  1.00  0.00     0.365 A  
HETATM    9  C   UNL     1     -11.113  15.361  71.615  1.00  0.00    -0.273 A  
BRANCH   7  10
HETATM   10  C   UNL     1      -8.987  14.270  68.661  1.00  0.00    -0.154 C  
BRANCH  10  11
HETATM   11  C   UNL     1      -8.415  15.558  68.164  1.00  0.00    -0.147 A  
HETATM   12  C   UNL     1      -8.660  17.644  66.933  1.00  0.00    -0.260 A  
HETATM   13  C   UNL     1      -9.149  16.377  67.308  1.00  0.00    -0.211 A  
HETATM   14  C   UNL     1      -7.164  16.006  68.589  1.00  0.00    -0.146 A  
HETATM   15  C   UNL     1      -6.683  17.268  68.195  1.00  0.00    -0.179 A  
HETATM   16  C   UNL     1      -7.423  18.141  67.378  1.00  0.00    -0.212 A  
BRANCH  16  17
HETATM   17  N   UNL     1      -6.985  19.418  67.068  1.00  0.00    -0.198 NA 
HETATM   18  C   UNL     1      -6.616  20.394  68.095  1.00  0.00    -0.303 C  
HETATM   19  C   UNL     1      -7.049  19.974  65.718  1.00  0.00    -0.303 C  
ENDBRANCH  16  17
ENDBRANCH  10  11
BRANCH  10  20
HETATM   20  C   UNL     1      -8.544  13.092  68.124  1.00  0.00    -0.188 A  
HETATM   21  C   UNL     1      -7.442  10.922  68.435  1.00  0.00    -0.098 A  
HETATM   22  C   UNL     1      -8.722  11.418  66.322  1.00  0.00    -0.173 A  
HETATM   23  C   UNL     1      -7.648  12.185  68.846  1.00  0.00     0.003 A  
HETATM   24  C   UNL     1      -8.880  12.679  66.752  1.00  0.00    -0.168 A  
HETATM   25  C   UNL     1      -8.155  10.367  67.231  1.00  0.00    -0.114 A  
BRANCH  25  26
HETATM   26  N   UNL     1      -8.257   9.084  66.997  1.00  0.00    -0.109 NA 
HETATM   27  C   UNL     1      -7.074   8.184  66.752  1.00  0.00    -0.077 C  
HETATM   28  C   UNL     1      -9.541   8.310  66.981  1.00  0.00    -0.191 C  
ENDBRANCH  25  26
ENDBRANCH  10  20
ENDBRANCH   7  10
ENDBRANCH   2   4
TORSDOF 6
ENDMDL
MODEL      124
REMARK 921   NORMALIZED FREE ENERGY PREDICTED BY IDOCK:   -1.78 KCAL/MOL
REMARK 922        TOTAL FREE ENERGY PREDICTED BY IDOCK:   -3.84 KCAL/MOL
REMARK 923 INTER-LIGAND FREE ENERGY PREDICTED BY IDOCK:   -2.98 KCAL/MOL
REMARK 924 INTRA-LIGAND FREE ENERGY PREDICTED BY IDOCK:   -0.86 KCAL/MOL
REMARK 927      BINDING AFFINITY PREDICTED BY RF-SCORE:    0.00 PKD
ROOT
HETATM    1  C   UNL     1     -10.514  11.629  63.828  1.00  0.00    -0.402 C  
HETATM    2  N   UNL     1      -9.688  10.423  63.797  1.00  0.00    -0.307 NA 
HETATM    3  C   UNL     1      -9.065  10.105  62.512  1.00  0.00    -0.287 C  
ENDROOT
BRANCH   2   4
HETATM    4  C   UNL     1      -9.181   9.875  64.975  1.00  0.00    -0.240 A  
HETATM    5  C   UNL     1      -9.218  10.553  66.209  1.00  0.00    -0.192 A  
HETATM    6  C   UNL     1      -8.659  10.017  67.388  1.00  0.00    -0.125 A  
HETATM    7  C   UNL     1      -8.056   8.760  67.382  1.00  0.00    -0.105 A  
HETATM    8  C   UNL     1      -8.054   8.045  66.182  1.00  0.00    -0.111 A  
HETATM    9  C   UNL     1      -8.607   8.592  65.011  1.00  0.00    -0.185 A  
BRANCH   7  10
HETATM   10  C   UNL     1      -7.355   8.194  68.577  1.00  0.00    -0.093 C  
BRANCH  10  11
HETATM   11  C   UNL     1      -7.599   6.766  68.944  1.00  0.00    -0.105 A  
HETATM   12  C   UNL     1      -8.957   5.066  70.035  1.00  0.00    -0.146 A  
HETATM   13  C   UNL     1      -8.656   6.419  69.783  1.00  0.00    -0.138 A  
HETATM   14  C   UNL     1      -6.819   5.740  68.410  1.00  0.00    -0.063 A  
HETATM   15  C   UNL     1      -7.125   4.393  68.681  1.00  0.00    -0.052 A  
HETATM   16  C   UNL     1      -8.217   4.009  69.478  1.00  0.00    -0.057 A  
BRANCH  16  17
HETATM   17  N   UNL     1      -8.568   2.681  69.668  1.00  0.00    -0.062 NA 
HETATM   18  C   UNL     1      -9.326   1.919  68.675  1.00  0.00    -0.176 C  
HETATM   19  C   UNL     1      -8.398   1.989  70.944  1.00  0.00    -0.049 C  
ENDBRANCH  16  17
ENDBRANCH  10  11
BRANCH  10  20
HETATM   20  C   UNL     1      -6.579   8.970  69.394  1.00  0.00    -0.044 A  
HETATM   21  C   UNL     1      -5.955  11.201  70.204  1.00  0.00    -0.136 A  
HETATM   22  C   UNL     1      -5.206   9.134  71.436  1.00  0.00    -0.042 A  
HETATM   23  C   UNL     1      -6.488  10.425  69.244  1.00  0.00    -0.052 A  
HETATM   24  C   UNL     1      -5.723   8.394  70.443  1.00  0.00    -0.028 A  
HETATM   25  C   UNL     1      -5.459  10.612  71.498  1.00  0.00     0.081 A  
BRANCH  25  26
HETATM   26  N   UNL     1      -5.258  11.331  72.571  1.00  0.00    -0.236 NA 
HETATM   27  C   UNL     1      -5.141  12.833  72.560  1.00  0.00     0.135 C  
HETATM   28  C   UNL     1      -5.159  10.789  73.966  1.00  0.00     0.236 C  
ENDBRANCH  25  26
ENDBRANCH  10  20
ENDBRANCH   7  10
ENDBRANCH   2   4
TORSDOF 6
ENDMDL
MODEL      125
REMARK 921   NORMALIZED FREE ENERGY PREDICTED BY IDOCK:   -1.77 KCAL/MOL
REMARK 922        TOTAL FREE ENERGY PREDICTED BY IDOCK:   -3.82 KCAL/MOL
REMARK 923 INTER-LIGAND FREE ENERGY PREDICTED BY IDOCK:   -2.04 KCAL/MOL
REMARK 924 INTRA-LIGAND FREE ENERGY PREDICTED BY IDOCK:   -1.78 KCAL/MOL
REMARK 927      BINDING AFFINITY PREDICTED BY RF-SCORE:    0.00 PKD
ROOT
HETATM    1  C   UNL     1      -9.430   7.972  65.758  1.00  0.00     0.137 C  
HETATM    2  N   UNL     1      -8.794   9.200  65.283  1.00  0.00    -0.191 NA 
HETATM    3  C   UNL     1      -8.237   9.153  63.931  1.00  0.00    -0.172 C  
ENDROOT
BRANCH   2   4
HETATM    4  C   UNL     1      -9.081  10.428  65.879  1.00  0.00    -0.165 A  
HETATM    5  C   UNL     1      -8.534  10.823  67.116  1.00  0.00    -0.126 A  
HETATM    6  C   UNL     1      -8.866  12.043  67.739  1.00  0.00    -0.165 A  
HETATM    7  C   UNL     1      -9.749  12.935  67.133  1.00  0.00    -0.221 A  
HETATM    8  C   UNL     1     -10.264  12.591  65.881  1.00  0.00    -0.280 A  
HETATM    9  C   UNL     1      -9.933  11.368  65.272  1.00  0.00    -0.303 A  
BRANCH   7  10
HETATM   10  C   UNL     1     -10.216  14.190  67.800  1.00  0.00    -0.242 C  
BRANCH  10  11
HETATM   11  C   UNL     1     -10.074  15.487  67.072  1.00  0.00    -0.254 A  
HETATM   12  C   UNL     1     -11.056  17.524  66.169  1.00  0.00     0.492 A  
HETATM   13  C   UNL     1     -11.196  16.248  66.750  1.00  0.00     0.217 A  
HETATM   14  C   UNL     1      -8.817  16.002  66.751  1.00  0.00    -0.288 A  
HETATM   15  C   UNL     1      -8.694  17.272  66.158  1.00  0.00    -0.198 A  
HETATM   16  C   UNL     1      -9.803  18.087  65.872  1.00  0.00    -0.042 A  
BRANCH  16  17
HETATM   17  N   UNL     1      -9.671  19.373  65.374  1.00  0.00     0.023 NA 
HETATM   18  C   UNL     1      -8.404  20.105  65.410  1.00  0.00     0.540 C  
HETATM   19  C   UNL     1     -10.814  20.187  64.962  1.00  0.00     0.601 C  
ENDBRANCH  16  17
ENDBRANCH  10  11
BRANCH  10  20
HETATM   20  C   UNL     1     -10.676  14.195  69.090  1.00  0.00    -0.216 A  
HETATM   21  C   UNL     1     -10.576  15.135  71.354  1.00  0.00     0.429 A  
HETATM   22  C   UNL     1     -12.499  13.662  70.661  1.00  0.00    -0.417 A  
HETATM   23  C   UNL     1      -9.984  14.904  70.169  1.00  0.00     0.228 A  
HETATM   24  C   UNL     1     -11.864  13.431  69.503  1.00  0.00    -0.391 A  
HETATM   25  C   UNL     1     -11.995  14.707  71.613  1.00  0.00    -0.309 A  
BRANCH  25  26
HETATM   26  N   UNL     1     -12.715  15.196  72.590  1.00  0.00    -0.351 NA 
HETATM   27  C   UNL     1     -12.146  16.026  73.711  1.00  0.00    -0.433 C  
HETATM   28  C   UNL     1     -14.202  15.049  72.723  1.00  0.00     0.057 C  
ENDBRANCH  25  26
ENDBRANCH  10  20
ENDBRANCH   7  10
ENDBRANCH   2   4
TORSDOF 6
ENDMDL
MODEL      126
REMARK 921   NORMALIZED FREE ENERGY PREDICTED BY IDOCK:   -1.76 KCAL/MOL
REMARK 922        TOTAL FREE ENERGY PREDICTED BY IDOCK:   -3.82 KCAL/MOL
REMARK 923 INTER-LIGAND FREE ENERGY PREDICTED BY IDOCK:   -2.33 KCAL/MOL
REMARK 924 INTRA-LIGAND FREE ENERGY PREDICTED BY IDOCK:   -1.48 KCAL/MOL
REMARK 927      BINDING AFFINITY PREDICTED BY RF-SCORE:    0.00 PKD
ROOT
HETATM    1  C   UNL     1     -10.549  12.388  64.242  1.00  0.00    -0.363 C  
HETATM    2  N   UNL     1      -9.846  11.228  63.694  1.00  0.00    -0.305 NA 
HETATM    3  C   UNL     1      -9.140  11.443  62.431  1.00  0.00    -0.018 C  
ENDROOT
BRANCH   2   4
HETATM    4  C   UNL     1      -9.507  10.150  64.510  1.00  0.00    -0.303 A  
HETATM    5  C   UNL     1      -9.754  10.134  65.897  1.00  0.00    -0.292 A  
HETATM    6  C   UNL     1      -9.365   9.063  66.727  1.00  0.00    -0.213 A  
HETATM    7  C   UNL     1      -8.726   7.945  66.193  1.00  0.00    -0.181 A  
HETATM    8  C   UNL     1      -8.517   7.912  64.812  1.00  0.00    -0.010 A  
HETATM    9  C   UNL     1      -8.902   8.989  63.996  1.00  0.00    -0.052 A  
BRANCH   7  10
HETATM   10  C   UNL     1      -8.198   6.833  67.043  1.00  0.00    -0.113 C  
BRANCH  10  11
HETATM   11  C   UNL     1      -8.290   6.958  68.530  1.00  0.00    -0.121 A  
HETATM   12  C   UNL     1      -7.387   7.757  70.644  1.00  0.00    -0.065 A  
HETATM   13  C   UNL     1      -7.252   7.533  69.260  1.00  0.00    -0.086 A  
HETATM   14  C   UNL     1      -9.437   6.562  69.218  1.00  0.00    -0.141 A  
HETATM   15  C   UNL     1      -9.552   6.781  70.604  1.00  0.00    -0.174 A  
HETATM   16  C   UNL     1      -8.546   7.409  71.358  1.00  0.00    -0.117 A  
BRANCH  16  17
HETATM   17  N   UNL     1      -8.701   7.704  72.704  1.00  0.00    -0.125 NA 
HETATM   18  C   UNL     1      -8.497   6.708  73.756  1.00  0.00    -0.122 C  
HETATM   19  C   UNL     1      -9.278   8.960  73.180  1.00  0.00     0.854 C  
ENDBRANCH  16  17
ENDBRANCH  10  11
BRANCH  10  20
HETATM   20  C   UNL     1      -7.547   5.756  66.503  1.00  0.00    -0.091 A  
HETATM   21  C   UNL     1      -7.634   3.454  65.661  1.00  0.00    -0.077 A  
HETATM   22  C   UNL     1      -5.622   4.905  65.219  1.00  0.00    -0.014 A  
HETATM   23  C   UNL     1      -8.155   4.426  66.430  1.00  0.00    -0.102 A  
HETATM   24  C   UNL     1      -6.161   5.839  66.017  1.00  0.00    -0.029 A  
HETATM   25  C   UNL     1      -6.418   3.701  64.809  1.00  0.00    -0.035 A  
BRANCH  25  26
HETATM   26  N   UNL     1      -6.084   2.925  63.810  1.00  0.00    -0.017 NA 
HETATM   27  C   UNL     1      -6.137   3.352  62.367  1.00  0.00    -0.013 C  
HETATM   28  C   UNL     1      -5.563   1.524  63.943  1.00  0.00    -0.005 C  
ENDBRANCH  25  26
ENDBRANCH  10  20
ENDBRANCH   7  10
ENDBRANCH   2   4
TORSDOF 6
ENDMDL
MODEL      127
REMARK 921   NORMALIZED FREE ENERGY PREDICTED BY IDOCK:   -1.67 KCAL/MOL
REMARK 922        TOTAL FREE ENERGY PREDICTED BY IDOCK:   -3.69 KCAL/MOL
REMARK 923 INTER-LIGAND FREE ENERGY PREDICTED BY IDOCK:   -1.98 KCAL/MOL
REMARK 924 INTRA-LIGAND FREE ENERGY PREDICTED BY IDOCK:   -1.71 KCAL/MOL
REMARK 927      BINDING AFFINITY PREDICTED BY RF-SCORE:    0.00 PKD
ROOT
HETATM    1  C   UNL     1     -11.637   4.167  62.330  1.00  0.00     0.743 C  
HETATM    2  N   UNL     1     -11.030   3.294  63.334  1.00  0.00    -0.236 NA 
HETATM    3  C   UNL     1     -10.695   1.941  62.891  1.00  0.00    -0.167 C  
ENDROOT
BRANCH   2   4
HETATM    4  C   UNL     1     -10.420   3.829  64.468  1.00  0.00    -0.182 A  
HETATM    5  C   UNL     1     -11.132   4.535  65.458  1.00  0.00     0.230 A  
HETATM    6  C   UNL     1     -10.504   5.117  66.577  1.00  0.00    -0.346 A  
HETATM    7  C   UNL     1      -9.128   4.997  66.764  1.00  0.00    -0.118 A  
HETATM    8  C   UNL     1      -8.406   4.257  65.824  1.00  0.00    -0.109 A  
HETATM    9  C   UNL     1      -9.041   3.688  64.708  1.00  0.00    -0.134 A  
BRANCH   7  10
HETATM   10  C   UNL     1      -8.399   5.686  67.875  1.00  0.00    -0.100 C  
BRANCH  10  11
HETATM   11  C   UNL     1      -8.422   5.074  69.238  1.00  0.00    -0.091 A  
HETATM   12  C   UNL     1      -7.696   3.347  70.792  1.00  0.00    -0.040 A  
HETATM   13  C   UNL     1      -7.775   3.865  69.484  1.00  0.00    -0.052 A  
HETATM   14  C   UNL     1      -9.034   5.723  70.311  1.00  0.00    -0.149 A  
HETATM   15  C   UNL     1      -8.958   5.186  71.610  1.00  0.00    -0.149 A  
HETATM   16  C   UNL     1      -8.265   3.998  71.900  1.00  0.00    -0.091 A  
BRANCH  16  17
HETATM   17  N   UNL     1      -8.116   3.522  73.193  1.00  0.00    -0.074 NA 
HETATM   18  C   UNL     1      -7.925   2.102  73.492  1.00  0.00    -0.047 C  
HETATM   19  C   UNL     1      -8.340   4.351  74.375  1.00  0.00    -0.090 C  
ENDBRANCH  16  17
ENDBRANCH  10  11
BRANCH  10  20
HETATM   20  C   UNL     1      -7.799   6.904  67.699  1.00  0.00    -0.112 A  
HETATM   21  C   UNL     1      -8.004   9.293  67.180  1.00  0.00    -0.106 A  
HETATM   22  C   UNL     1      -5.875   8.374  68.165  1.00  0.00    -0.038 A  
HETATM   23  C   UNL     1      -8.495   8.044  67.097  1.00  0.00    -0.124 A  
HETATM   24  C   UNL     1      -6.387   7.140  68.039  1.00  0.00    -0.044 A  
HETATM   25  C   UNL     1      -6.731   9.583  67.929  1.00  0.00    -0.066 A  
BRANCH  25  26
HETATM   26  N   UNL     1      -6.402  10.785  68.325  1.00  0.00    -0.057 NA 
HETATM   27  C   UNL     1      -5.967  11.111  69.730  1.00  0.00    -0.095 C  
HETATM   28  C   UNL     1      -6.363  12.002  67.448  1.00  0.00    -0.138 C  
ENDBRANCH  25  26
ENDBRANCH  10  20
ENDBRANCH   7  10
ENDBRANCH   2   4
TORSDOF 6
ENDMDL
MODEL      128
REMARK 921   NORMALIZED FREE ENERGY PREDICTED BY IDOCK:   -1.66 KCAL/MOL
REMARK 922        TOTAL FREE ENERGY PREDICTED BY IDOCK:   -3.68 KCAL/MOL
REMARK 923 INTER-LIGAND FREE ENERGY PREDICTED BY IDOCK:   -3.12 KCAL/MOL
REMARK 924 INTRA-LIGAND FREE ENERGY PREDICTED BY IDOCK:   -0.55 KCAL/MOL
REMARK 927      BINDING AFFINITY PREDICTED BY RF-SCORE:    0.00 PKD
ROOT
HETATM    1  C   UNL     1      -6.995  18.584  66.314  1.00  0.00    -0.240 C  
HETATM    2  N   UNL     1      -8.149  18.329  67.176  1.00  0.00    -0.222 NA 
HETATM    3  C   UNL     1      -9.030  19.470  67.423  1.00  0.00    -0.307 C  
ENDROOT
BRANCH   2   4
HETATM    4  C   UNL     1      -8.613  17.030  67.380  1.00  0.00    -0.197 A  
HETATM    5  C   UNL     1      -9.174  16.602  68.599  1.00  0.00    -0.248 A  
HETATM    6  C   UNL     1      -9.596  15.275  68.817  1.00  0.00    -0.214 A  
HETATM    7  C   UNL     1      -9.494  14.320  67.808  1.00  0.00    -0.216 A  
HETATM    8  C   UNL     1      -8.990  14.732  66.571  1.00  0.00    -0.267 A  
HETATM    9  C   UNL     1      -8.565  16.056  66.367  1.00  0.00    -0.369 A  
BRANCH   7  10
HETATM   10  C   UNL     1      -9.827  12.877  68.022  1.00  0.00    -0.223 C  
BRANCH  10  11
HETATM   11  C   UNL     1      -9.522  11.899  66.934  1.00  0.00    -0.205 A  
HETATM   12  C   UNL     1     -10.196  10.682  64.936  1.00  0.00    -0.395 A  
HETATM   13  C   UNL     1     -10.510  11.511  66.031  1.00  0.00    -0.298 A  
HETATM   14  C   UNL     1      -8.233  11.398  66.752  1.00  0.00    -0.160 A  
HETATM   15  C   UNL     1      -7.937  10.561  65.661  1.00  0.00    -0.158 A  
HETATM   16  C   UNL     1      -8.898  10.196  64.703  1.00  0.00    -0.196 A  
BRANCH  16  17
HETATM   17  N   UNL     1      -8.581   9.445  63.581  1.00  0.00    -0.205 NA 
HETATM   18  C   UNL     1      -7.308   8.736  63.443  1.00  0.00    -0.100 C  
HETATM   19  C   UNL     1      -9.386   9.461  62.361  1.00  0.00     0.097 C  
ENDBRANCH  16  17
ENDBRANCH  10  11
BRANCH  10  20
HETATM   20  C   UNL     1     -10.488  12.446  69.141  1.00  0.00     0.059 A  
HETATM   21  C   UNL     1     -11.859  12.973  71.106  1.00  0.00     0.564 A  
HETATM   22  C   UNL     1     -11.583  10.589  70.337  1.00  0.00    -0.430 A  
HETATM   23  C   UNL     1     -10.983  13.368  70.166  1.00  0.00     0.609 A  
HETATM   24  C   UNL     1     -10.690  11.018  69.432  1.00  0.00    -0.247 A  
HETATM   25  C   UNL     1     -12.402  11.569  71.125  1.00  0.00    -0.277 A  
BRANCH  25  26
HETATM   26  N   UNL     1     -13.484  11.238  71.782  1.00  0.00    -0.236 NA 
HETATM   27  C   UNL     1     -14.367  12.231  72.491  1.00  0.00     0.936 C  
HETATM   28  C   UNL     1     -14.032   9.846  71.894  1.00  0.00     0.020 C  
ENDBRANCH  25  26
ENDBRANCH  10  20
ENDBRANCH   7  10
ENDBRANCH   2   4
TORSDOF 6
ENDMDL
MODEL      129
REMARK 921   NORMALIZED FREE ENERGY PREDICTED BY IDOCK:   -1.58 KCAL/MOL
REMARK 922        TOTAL FREE ENERGY PREDICTED BY IDOCK:   -3.57 KCAL/MOL
REMARK 923 INTER-LIGAND FREE ENERGY PREDICTED BY IDOCK:   -2.52 KCAL/MOL
REMARK 924 INTRA-LIGAND FREE ENERGY PREDICTED BY IDOCK:   -1.05 KCAL/MOL
REMARK 927      BINDING AFFINITY PREDICTED BY RF-SCORE:    0.00 PKD
ROOT
HETATM    1  C   UNL     1      -9.411   5.418  66.639  1.00  0.00    -0.144 C  
HETATM    2  N   UNL     1     -10.081   6.242  67.645  1.00  0.00    -0.137 NA 
HETATM    3  C   UNL     1     -10.774   5.518  68.710  1.00  0.00    -0.125 C  
ENDROOT
BRANCH   2   4
HETATM    4  C   UNL     1      -9.723   7.577  67.825  1.00  0.00    -0.146 A  
HETATM    5  C   UNL     1     -10.109   8.325  68.955  1.00  0.00    -0.208 A  
HETATM    6  C   UNL     1      -9.787   9.689  69.110  1.00  0.00    -0.189 A  
HETATM    7  C   UNL     1      -9.042  10.359  68.142  1.00  0.00    -0.142 A  
HETATM    8  C   UNL     1      -8.602   9.627  67.036  1.00  0.00    -0.131 A  
HETATM    9  C   UNL     1      -8.935   8.269  66.888  1.00  0.00    -0.169 A  
BRANCH   7  10
HETATM   10  C   UNL     1      -8.767  11.829  68.207  1.00  0.00    -0.167 C  
BRANCH  10  11
HETATM   11  C   UNL     1      -9.565  12.748  67.339  1.00  0.00    -0.199 A  
HETATM   12  C   UNL     1     -10.957  14.728  67.075  1.00  0.00    -0.324 A  
HETATM   13  C   UNL     1     -10.301  13.791  67.898  1.00  0.00    -0.244 A  
HETATM   14  C   UNL     1      -9.546  12.628  65.950  1.00  0.00    -0.158 A  
HETATM   15  C   UNL     1     -10.217  13.564  65.141  1.00  0.00    -0.334 A  
HETATM   16  C   UNL     1     -10.921  14.659  65.672  1.00  0.00    -0.335 A  
BRANCH  16  17
HETATM   17  N   UNL     1     -11.504  15.627  64.870  1.00  0.00    -0.292 NA 
HETATM   18  C   UNL     1     -12.420  15.297  63.777  1.00  0.00     0.548 C  
HETATM   19  C   UNL     1     -11.103  17.033  64.903  1.00  0.00     0.146 C  
ENDBRANCH  16  17
ENDBRANCH  10  11
BRANCH  10  20
HETATM   20  C   UNL     1      -7.745  12.340  68.960  1.00  0.00     0.152 A  
HETATM   21  C   UNL     1      -6.605  14.296  69.905  1.00  0.00    -0.109 A  
HETATM   22  C   UNL     1      -6.069  11.978  70.731  1.00  0.00     0.311 A  
HETATM   23  C   UNL     1      -7.413  13.767  68.969  1.00  0.00     0.002 A  
HETATM   24  C   UNL     1      -6.859  11.485  69.765  1.00  0.00     0.010 A  
HETATM   25  C   UNL     1      -6.034  13.452  71.012  1.00  0.00     0.028 A  
BRANCH  25  26
HETATM   26  N   UNL     1      -5.542  13.963  72.110  1.00  0.00    -0.378 NA 
HETATM   27  C   UNL     1      -5.158  13.142  73.313  1.00  0.00     0.085 C  
HETATM   28  C   UNL     1      -5.246  15.417  72.328  1.00  0.00     0.133 C  
ENDBRANCH  25  26
ENDBRANCH  10  20
ENDBRANCH   7  10
ENDBRANCH   2   4
TORSDOF 6
ENDMDL
MODEL      130
REMARK 921   NORMALIZED FREE ENERGY PREDICTED BY IDOCK:   -1.34 KCAL/MOL
REMARK 922        TOTAL FREE ENERGY PREDICTED BY IDOCK:   -3.24 KCAL/MOL
REMARK 923 INTER-LIGAND FREE ENERGY PREDICTED BY IDOCK:   -1.57 KCAL/MOL
REMARK 924 INTRA-LIGAND FREE ENERGY PREDICTED BY IDOCK:   -1.67 KCAL/MOL
REMARK 927      BINDING AFFINITY PREDICTED BY RF-SCORE:    0.00 PKD
ROOT
HETATM    1  C   UNL     1      -8.459   9.383  62.333  1.00  0.00    -0.193 C  
HETATM    2  N   UNL     1      -8.382   8.329  63.344  1.00  0.00    -0.090 NA 
HETATM    3  C   UNL     1      -8.248   6.963  62.838  1.00  0.00     0.040 C  
ENDROOT
BRANCH   2   4
HETATM    4  C   UNL     1      -8.022   8.627  64.658  1.00  0.00    -0.141 A  
HETATM    5  C   UNL     1      -8.905   8.474  65.745  1.00  0.00    -0.229 A  
HETATM    6  C   UNL     1      -8.554   8.823  67.065  1.00  0.00    -0.119 A  
HETATM    7  C   UNL     1      -7.286   9.324  67.356  1.00  0.00    -0.087 A  
HETATM    8  C   UNL     1      -6.374   9.435  66.304  1.00  0.00    -0.069 A  
HETATM    9  C   UNL     1      -6.737   9.091  64.990  1.00  0.00    -0.069 A  
BRANCH   7  10
HETATM   10  C   UNL     1      -6.901   9.809  68.718  1.00  0.00    -0.051 C  
BRANCH  10  11
HETATM   11  C   UNL     1      -6.711  11.276  68.931  1.00  0.00    -0.081 A  
HETATM   12  C   UNL     1      -5.245  13.194  69.248  1.00  0.00    -0.074 A  
HETATM   13  C   UNL     1      -5.442  11.801  69.164  1.00  0.00    -0.048 A  
HETATM   14  C   UNL     1      -7.783  12.164  68.842  1.00  0.00     0.036 A  
HETATM   15  C   UNL     1      -7.574  13.552  68.941  1.00  0.00    -0.002 A  
HETATM   16  C   UNL     1      -6.298  14.116  69.120  1.00  0.00    -0.106 A  
BRANCH  16  17
HETATM   17  N   UNL     1      -6.086  15.485  69.126  1.00  0.00    -0.106 NA 
HETATM   18  C   UNL     1      -5.256  16.157  68.125  1.00  0.00    -0.108 C  
HETATM   19  C   UNL     1      -6.492  16.348  70.234  1.00  0.00     0.335 C  
ENDBRANCH  16  17
ENDBRANCH  10  11
BRANCH  10  20
HETATM   20  C   UNL     1      -6.624   8.944  69.742  1.00  0.00    -0.041 A  
HETATM   21  C   UNL     1      -7.404   7.673  71.690  1.00  0.00    -0.068 A  
HETATM   22  C   UNL     1      -5.167   7.172  70.646  1.00  0.00    -0.023 A  
HETATM   23  C   UNL     1      -7.555   8.711  70.849  1.00  0.00    -0.093 A  
HETATM   24  C   UNL     1      -5.339   8.234  69.844  1.00  0.00    -0.023 A  
HETATM   25  C   UNL     1      -6.290   6.678  71.510  1.00  0.00    -0.042 A  
BRANCH  25  26
HETATM   26  N   UNL     1      -6.300   5.495  72.068  1.00  0.00    -0.045 NA 
HETATM   27  C   UNL     1      -5.392   5.101  73.203  1.00  0.00    -0.013 C  
HETATM   28  C   UNL     1      -7.230   4.377  71.703  1.00  0.00    -0.059 C  
ENDBRANCH  25  26
ENDBRANCH  10  20
ENDBRANCH   7  10
ENDBRANCH   2   4
TORSDOF 6
ENDMDL
MODEL      131
REMARK 921   NORMALIZED FREE ENERGY PREDICTED BY IDOCK:   -1.17 KCAL/MOL
REMARK 922        TOTAL FREE ENERGY PREDICTED BY IDOCK:   -3.01 KCAL/MOL
REMARK 923 INTER-LIGAND FREE ENERGY PREDICTED BY IDOCK:   -2.44 KCAL/MOL
REMARK 924 INTRA-LIGAND FREE ENERGY PREDICTED BY IDOCK:   -0.57 KCAL/MOL
REMARK 927      BINDING AFFINITY PREDICTED BY RF-SCORE:    0.00 PKD
ROOT
HETATM    1  C   UNL     1     -12.403  13.743  63.011  1.00  0.00     0.611 C  
HETATM    2  N   UNL     1     -11.649  14.407  64.073  1.00  0.00    -0.138 NA 
HETATM    3  C   UNL     1     -11.312  15.812  63.839  1.00  0.00     0.537 C  
ENDROOT
BRANCH   2   4
HETATM    4  C   UNL     1     -11.638  13.892  65.369  1.00  0.00    -0.325 A  
HETATM    5  C   UNL     1     -12.120  12.606  65.683  1.00  0.00    -0.502 A  
HETATM    6  C   UNL     1     -12.153  12.108  67.002  1.00  0.00     0.047 A  
HETATM    7  C   UNL     1     -11.681  12.876  68.065  1.00  0.00    -0.401 A  
HETATM    8  C   UNL     1     -11.149  14.135  67.773  1.00  0.00    -0.292 A  
HETATM    9  C   UNL     1     -11.128  14.624  66.456  1.00  0.00    -0.329 A  
BRANCH   7  10
HETATM   10  C   UNL     1     -11.793  12.438  69.491  1.00  0.00    -0.368 C  
BRANCH  10  11
HETATM   11  C   UNL     1     -11.417  11.036  69.845  1.00  0.00    -0.400 A  
HETATM   12  C   UNL     1      -9.734   9.290  70.065  1.00  0.00    -0.234 A  
HETATM   13  C   UNL     1     -10.121  10.572  69.625  1.00  0.00    -0.177 A  
HETATM   14  C   UNL     1     -12.328  10.176  70.458  1.00  0.00    -0.330 A  
HETATM   15  C   UNL     1     -11.930   8.894  70.880  1.00  0.00    -0.254 A  
HETATM   16  C   UNL     1     -10.617   8.417  70.724  1.00  0.00    -0.207 A  
BRANCH  16  17
HETATM   17  N   UNL     1     -10.207   7.191  71.222  1.00  0.00    -0.191 NA 
HETATM   18  C   UNL     1     -11.111   6.293  71.944  1.00  0.00    -0.268 C  
HETATM   19  C   UNL     1      -8.806   6.775  71.258  1.00  0.00    -0.136 C  
ENDBRANCH  16  17
ENDBRANCH  10  11
BRANCH  10  20
HETATM   20  C   UNL     1     -12.321  13.252  70.457  1.00  0.00    -0.389 A  
HETATM   21  C   UNL     1     -12.817  13.654  72.826  1.00  0.00    -0.167 A  
HETATM   22  C   UNL     1     -12.973  15.527  71.148  1.00  0.00    -0.560 A  
HETATM   23  C   UNL     1     -12.564  12.791  71.827  1.00  0.00    -0.128 A  
HETATM   24  C   UNL     1     -12.749  14.631  70.175  1.00  0.00    -0.268 A  
HETATM   25  C   UNL     1     -12.824  15.141  72.590  1.00  0.00    -0.386 A  
BRANCH  25  26
HETATM   26  N   UNL     1     -12.722  16.012  73.561  1.00  0.00    -0.543 NA 
HETATM   27  C   UNL     1     -13.903  16.557  74.320  1.00  0.00     2.213 C  
HETATM   28  C   UNL     1     -11.433  16.564  74.091  1.00  0.00     1.146 C  
ENDBRANCH  25  26
ENDBRANCH  10  20
ENDBRANCH   7  10
ENDBRANCH   2   4
TORSDOF 6
ENDMDL
MODEL      132
REMARK 921   NORMALIZED FREE ENERGY PREDICTED BY IDOCK:   -0.67 KCAL/MOL
REMARK 922        TOTAL FREE ENERGY PREDICTED BY IDOCK:   -2.34 KCAL/MOL
REMARK 923 INTER-LIGAND FREE ENERGY PREDICTED BY IDOCK:   -1.64 KCAL/MOL
REMARK 924 INTRA-LIGAND FREE ENERGY PREDICTED BY IDOCK:   -0.70 KCAL/MOL
REMARK 927      BINDING AFFINITY PREDICTED BY RF-SCORE:    0.00 PKD
ROOT
HETATM    1  C   UNL     1      -9.183   8.564  62.381  1.00  0.00     0.702 C  
HETATM    2  N   UNL     1      -8.244   7.768  63.169  1.00  0.00    -0.066 NA 
HETATM    3  C   UNL     1      -7.460   6.780  62.426  1.00  0.00    -0.076 C  
ENDROOT
BRANCH   2   4
HETATM    4  C   UNL     1      -7.812   8.206  64.420  1.00  0.00    -0.136 A  
HETATM    5  C   UNL     1      -7.224   7.346  65.369  1.00  0.00    -0.069 A  
HETATM    6  C   UNL     1      -6.834   7.783  66.652  1.00  0.00    -0.070 A  
HETATM    7  C   UNL     1      -6.998   9.114  67.031  1.00  0.00    -0.081 A  
HETATM    8  C   UNL     1      -7.530   9.998  66.089  1.00  0.00    -0.109 A  
HETATM    9  C   UNL     1      -7.922   9.550  64.816  1.00  0.00    -0.123 A  
BRANCH   7  10
HETATM   10  C   UNL     1      -6.701   9.603  68.413  1.00  0.00    -0.057 C  
BRANCH  10  11
HETATM   11  C   UNL     1      -6.979   8.700  69.571  1.00  0.00    -0.048 A  
HETATM   12  C   UNL     1      -6.307   7.717  71.695  1.00  0.00    -0.039 A  
HETATM   13  C   UNL     1      -6.008   8.473  70.544  1.00  0.00    -0.031 A  
HETATM   14  C   UNL     1      -8.232   8.110  69.743  1.00  0.00    -0.122 A  
HETATM   15  C   UNL     1      -8.512   7.347  70.892  1.00  0.00    -0.123 A  
HETATM   16  C   UNL     1      -7.572   7.146  71.917  1.00  0.00    -0.087 A  
BRANCH  16  17
HETATM   17  N   UNL     1      -7.882   6.471  73.087  1.00  0.00    -0.100 NA 
HETATM   18  C   UNL     1      -6.942   5.560  73.742  1.00  0.00    -0.085 C  
HETATM   19  C   UNL     1      -9.229   6.442  73.655  1.00  0.00    -0.131 C  
ENDBRANCH  16  17
ENDBRANCH  10  11
BRANCH  10  20
HETATM   20  C   UNL     1      -6.278  10.883  68.652  1.00  0.00    -0.043 A  
HETATM   21  C   UNL     1      -5.485  13.032  67.774  1.00  0.00    -0.118 A  
HETATM   22  C   UNL     1      -6.249  12.828  70.166  1.00  0.00    -0.026 A  
HETATM   23  C   UNL     1      -5.643  11.706  67.619  1.00  0.00    -0.060 A  
HETATM   24  C   UNL     1      -6.365  11.504  69.983  1.00  0.00    -0.116 A  
HETATM   25  C   UNL     1      -5.988  13.740  69.004  1.00  0.00    -0.083 A  
BRANCH  25  26
HETATM   26  N   UNL     1      -6.167  15.035  69.052  1.00  0.00    -0.096 NA 
HETATM   27  C   UNL     1      -5.316  15.965  69.875  1.00  0.00    -0.127 C  
HETATM   28  C   UNL     1      -7.203  15.791  68.274  1.00  0.00    -0.116 C  
ENDBRANCH  25  26
ENDBRANCH  10  20
ENDBRANCH   7  10
ENDBRANCH   2   4
TORSDOF 6
ENDMDL
MODEL      133
REMARK 921   NORMALIZED FREE ENERGY PREDICTED BY IDOCK:   -0.66 KCAL/MOL
REMARK 922        TOTAL FREE ENERGY PREDICTED BY IDOCK:   -2.32 KCAL/MOL
REMARK 923 INTER-LIGAND FREE ENERGY PREDICTED BY IDOCK:   -1.80 KCAL/MOL
REMARK 924 INTRA-LIGAND FREE ENERGY PREDICTED BY IDOCK:   -0.52 KCAL/MOL
REMARK 927      BINDING AFFINITY PREDICTED BY RF-SCORE:    0.00 PKD
ROOT
HETATM    1  C   UNL     1     -12.432  13.969  62.651  1.00  0.00     2.159 C  
HETATM    2  N   UNL     1     -11.806  14.163  63.957  1.00  0.00    -0.329 NA 
HETATM    3  C   UNL     1     -12.399  15.196  64.807  1.00  0.00    -0.072 C  
ENDROOT
BRANCH   2   4
HETATM    4  C   UNL     1     -11.009  13.167  64.521  1.00  0.00    -0.372 A  
HETATM    5  C   UNL     1     -10.972  11.848  64.026  1.00  0.00    -0.445 A  
HETATM    6  C   UNL     1     -10.204  10.831  64.629  1.00  0.00    -0.419 A  
HETATM    7  C   UNL     1      -9.419  11.101  65.749  1.00  0.00    -0.248 A  
HETATM    8  C   UNL     1      -9.397  12.414  66.227  1.00  0.00    -0.189 A  
HETATM    9  C   UNL     1     -10.173  13.418  65.623  1.00  0.00    -0.300 A  
BRANCH   7  10
HETATM   10  C   UNL     1      -8.672  10.036  66.489  1.00  0.00    -0.142 C  
BRANCH  10  11
HETATM   11  C   UNL     1      -7.789  10.436  67.626  1.00  0.00    -0.105 A  
HETATM   12  C   UNL     1      -6.566  12.146  68.854  1.00  0.00    -0.090 A  
HETATM   13  C   UNL     1      -7.300  11.737  67.723  1.00  0.00    -0.106 A  
HETATM   14  C   UNL     1      -7.481   9.541  68.651  1.00  0.00    -0.079 A  
HETATM   15  C   UNL     1      -6.735   9.960  69.768  1.00  0.00    -0.076 A  
HETATM   16  C   UNL     1      -6.276  11.280  69.922  1.00  0.00    -0.137 A  
BRANCH  16  17
HETATM   17  N   UNL     1      -5.621  11.711  71.065  1.00  0.00    -0.343 NA 
HETATM   18  C   UNL     1      -5.497  10.877  72.261  1.00  0.00     0.568 C  
HETATM   19  C   UNL     1      -5.182  13.091  71.256  1.00  0.00    -0.182 C  
ENDBRANCH  16  17
ENDBRANCH  10  11
BRANCH  10  20
HETATM   20  C   UNL     1      -8.698   8.727  66.092  1.00  0.00    -0.184 A  
HETATM   21  C   UNL     1      -7.487   6.742  65.310  1.00  0.00    -0.086 A  
HETATM   22  C   UNL     1      -9.860   6.552  66.135  1.00  0.00     0.066 A  
HETATM   23  C   UNL     1      -7.557   8.078  65.443  1.00  0.00    -0.083 A  
HETATM   24  C   UNL     1      -9.902   7.890  66.225  1.00  0.00    -0.139 A  
HETATM   25  C   UNL     1      -8.566   5.846  65.857  1.00  0.00    -0.145 A  
BRANCH  25  26
HETATM   26  N   UNL     1      -8.388   4.566  66.059  1.00  0.00    -0.113 NA 
HETATM   27  C   UNL     1      -7.033   3.910  66.116  1.00  0.00    -0.062 C  
HETATM   28  C   UNL     1      -9.483   3.571  66.304  1.00  0.00    -0.144 C  
ENDBRANCH  25  26
ENDBRANCH  10  20
ENDBRANCH   7  10
ENDBRANCH   2   4
TORSDOF 6
ENDMDL
MODEL      134
REMARK 921   NORMALIZED FREE ENERGY PREDICTED BY IDOCK:   -0.61 KCAL/MOL
REMARK 922        TOTAL FREE ENERGY PREDICTED BY IDOCK:   -2.25 KCAL/MOL
REMARK 923 INTER-LIGAND FREE ENERGY PREDICTED BY IDOCK:   -1.02 KCAL/MOL
REMARK 924 INTRA-LIGAND FREE ENERGY PREDICTED BY IDOCK:   -1.23 KCAL/MOL
REMARK 927      BINDING AFFINITY PREDICTED BY RF-SCORE:    0.00 PKD
ROOT
HETATM    1  C   UNL     1      -6.077  14.219  73.437  1.00  0.00     0.540 C  
HETATM    2  N   UNL     1      -5.867  14.341  71.995  1.00  0.00    -0.154 NA 
HETATM    3  C   UNL     1      -5.179  15.552  71.546  1.00  0.00    -0.028 C  
ENDROOT
BRANCH   2   4
HETATM    4  C   UNL     1      -5.915  13.218  71.170  1.00  0.00     0.183 A  
HETATM    5  C   UNL     1      -6.467  13.245  69.874  1.00  0.00     0.016 A  
HETATM    6  C   UNL     1      -6.559  12.096  69.062  1.00  0.00    -0.100 A  
HETATM    7  C   UNL     1      -6.077  10.868  69.511  1.00  0.00    -0.061 A  
HETATM    8  C   UNL     1      -5.477  10.825  70.772  1.00  0.00    -0.112 A  
HETATM    9  C   UNL     1      -5.398  11.975  71.576  1.00  0.00     0.089 A  
BRANCH   7  10
HETATM   10  C   UNL     1      -6.248   9.600  68.734  1.00  0.00    -0.042 C  
BRANCH  10  11
HETATM   11  C   UNL     1      -6.684   9.684  67.307  1.00  0.00    -0.071 A  
HETATM   12  C   UNL     1      -6.260  10.344  65.002  1.00  0.00    -0.105 A  
HETATM   13  C   UNL     1      -5.911  10.363  66.368  1.00  0.00    -0.075 A  
HETATM   14  C   UNL     1      -7.837   9.036  66.864  1.00  0.00    -0.101 A  
HETATM   15  C   UNL     1      -8.179   9.036  65.500  1.00  0.00    -0.124 A  
HETATM   16  C   UNL     1      -7.391   9.664  64.520  1.00  0.00    -0.125 A  
BRANCH  16  17
HETATM   17  N   UNL     1      -7.684   9.584  63.167  1.00  0.00    -0.120 NA 
HETATM   18  C   UNL     1      -8.184  10.727  62.402  1.00  0.00    -0.221 C  
HETATM   19  C   UNL     1      -7.719   8.319  62.436  1.00  0.00    -0.128 C  
ENDBRANCH  16  17
ENDBRANCH  10  11
BRANCH  10  20
HETATM   20  C   UNL     1      -6.111   8.370  69.320  1.00  0.00    -0.038 A  
HETATM   21  C   UNL     1      -6.951   6.687  70.895  1.00  0.00    -0.067 A  
HETATM   22  C   UNL     1      -5.187   6.088  69.198  1.00  0.00    -0.004 A  
HETATM   23  C   UNL     1      -6.885   7.970  70.498  1.00  0.00    -0.037 A  
HETATM   24  C   UNL     1      -5.127   7.382  68.851  1.00  0.00    -0.015 A  
HETATM   25  C   UNL     1      -6.262   5.594  70.122  1.00  0.00    -0.026 A  
BRANCH  25  26
HETATM   26  N   UNL     1      -6.568   4.330  70.257  1.00  0.00    -0.031 NA 
HETATM   27  C   UNL     1      -7.108   3.734  71.531  1.00  0.00    -0.032 C  
HETATM   28  C   UNL     1      -6.475   3.299  69.172  1.00  0.00    -0.029 C  
ENDBRANCH  25  26
ENDBRANCH  10  20
ENDBRANCH   7  10
ENDBRANCH   2   4
TORSDOF 6
ENDMDL
MODEL      135
REMARK 921   NORMALIZED FREE ENERGY PREDICTED BY IDOCK:   -0.17 KCAL/MOL
REMARK 922        TOTAL FREE ENERGY PREDICTED BY IDOCK:   -1.67 KCAL/MOL
REMARK 923 INTER-LIGAND FREE ENERGY PREDICTED BY IDOCK:   -1.03 KCAL/MOL
REMARK 924 INTRA-LIGAND FREE ENERGY PREDICTED BY IDOCK:   -0.63 KCAL/MOL
REMARK 927      BINDING AFFINITY PREDICTED BY RF-SCORE:    0.00 PKD
ROOT
HETATM    1  C   UNL     1      -9.459   7.849  64.677  1.00  0.00     1.792 C  
HETATM    2  N   UNL     1      -8.507   8.925  64.404  1.00  0.00    -0.172 NA 
HETATM    3  C   UNL     1      -7.957   8.968  63.050  1.00  0.00    -0.149 C  
ENDROOT
BRANCH   2   4
HETATM    4  C   UNL     1      -8.465  10.061  65.212  1.00  0.00    -0.154 A  
HETATM    5  C   UNL     1      -9.431  11.085  65.140  1.00  0.00    -0.265 A  
HETATM    6  C   UNL     1      -9.357  12.255  65.923  1.00  0.00    -0.098 A  
HETATM    7  C   UNL     1      -8.318  12.439  66.833  1.00  0.00    -0.117 A  
HETATM    8  C   UNL     1      -7.377  11.414  66.962  1.00  0.00    -0.144 A  
HETATM    9  C   UNL     1      -7.455  10.255  66.171  1.00  0.00    -0.121 A  
BRANCH   7  10
HETATM   10  C   UNL     1      -8.136  13.706  67.607  1.00  0.00    -0.179 C  
BRANCH  10  11
HETATM   11  C   UNL     1      -7.333  13.670  68.868  1.00  0.00    -0.060 A  
HETATM   12  C   UNL     1      -6.389  14.799  70.807  1.00  0.00     0.038 A  
HETATM   13  C   UNL     1      -7.044  14.844  69.560  1.00  0.00    -0.184 A  
HETATM   14  C   UNL     1      -6.905  12.461  69.417  1.00  0.00     0.021 A  
HETATM   15  C   UNL     1      -6.240  12.433  70.657  1.00  0.00     0.383 A  
HETATM   16  C   UNL     1      -5.984  13.595  71.406  1.00  0.00     0.086 A  
BRANCH  16  17
HETATM   17  N   UNL     1      -5.411  13.554  72.667  1.00  0.00    -0.408 NA 
HETATM   18  C   UNL     1      -5.212  12.303  73.401  1.00  0.00     0.609 C  
HETATM   19  C   UNL     1      -5.147  14.753  73.460  1.00  0.00     0.110 C  
ENDBRANCH  16  17
ENDBRANCH  10  11
BRANCH  10  20
HETATM   20  C   UNL     1      -8.762  14.869  67.248  1.00  0.00    -0.224 A  
HETATM   21  C   UNL     1     -10.409  16.614  67.757  1.00  0.00    -0.306 A  
HETATM   22  C   UNL     1      -8.705  16.954  65.933  1.00  0.00    -0.058 A  
HETATM   23  C   UNL     1      -9.966  15.356  67.925  1.00  0.00    -0.221 A  
HETATM   24  C   UNL     1      -8.311  15.684  66.108  1.00  0.00     0.099 A  
HETATM   25  C   UNL     1      -9.664  17.595  66.893  1.00  0.00    -0.292 A  
BRANCH  25  26
HETATM   26  N   UNL     1      -9.849  18.888  66.968  1.00  0.00    -0.310 NA 
HETATM   27  C   UNL     1      -9.911  19.648  68.267  1.00  0.00    -0.436 C  
HETATM   28  C   UNL     1      -9.983  19.810  65.793  1.00  0.00    -0.271 C  
ENDBRANCH  25  26
ENDBRANCH  10  20
ENDBRANCH   7  10
ENDBRANCH   2   4
TORSDOF 6
ENDMDL
MODEL      136
REMARK 921   NORMALIZED FREE ENERGY PREDICTED BY IDOCK:    0.25 KCAL/MOL
REMARK 922        TOTAL FREE ENERGY PREDICTED BY IDOCK:   -1.10 KCAL/MOL
REMARK 923 INTER-LIGAND FREE ENERGY PREDICTED BY IDOCK:    0.36 KCAL/MOL
REMARK 924 INTRA-LIGAND FREE ENERGY PREDICTED BY IDOCK:   -1.46 KCAL/MOL
REMARK 927      BINDING AFFINITY PREDICTED BY RF-SCORE:    0.00 PKD
ROOT
HETATM    1  C   UNL     1     -11.995   4.741  63.060  1.00  0.00     2.983 C  
HETATM    2  N   UNL     1     -11.196   3.817  63.863  1.00  0.00    -0.219 NA 
HETATM    3  C   UNL     1     -10.791   2.576  63.202  1.00  0.00    -0.238 C  
ENDROOT
BRANCH   2   4
HETATM    4  C   UNL     1     -10.510   4.264  64.992  1.00  0.00    -0.165 A  
HETATM    5  C   UNL     1     -11.122   5.032  66.003  1.00  0.00     0.151 A  
HETATM    6  C   UNL     1     -10.413   5.524  67.118  1.00  0.00    -0.321 A  
HETATM    7  C   UNL     1      -9.057   5.246  67.278  1.00  0.00    -0.112 A  
HETATM    8  C   UNL     1      -8.439   4.442  66.317  1.00  0.00    -0.112 A  
HETATM    9  C   UNL     1      -9.153   3.964  65.205  1.00  0.00    -0.142 A  
BRANCH   7  10
HETATM   10  C   UNL     1      -8.236   5.833  68.383  1.00  0.00    -0.108 C  
BRANCH  10  11
HETATM   11  C   UNL     1      -7.451   7.076  68.114  1.00  0.00    -0.099 A  
HETATM   12  C   UNL     1      -6.766   8.858  66.604  1.00  0.00    -0.072 A  
HETATM   13  C   UNL     1      -7.407   7.625  66.834  1.00  0.00    -0.090 A  
HETATM   14  C   UNL     1      -6.796   7.753  69.143  1.00  0.00    -0.049 A  
HETATM   15  C   UNL     1      -6.148   8.978  68.895  1.00  0.00    -0.044 A  
HETATM   16  C   UNL     1      -6.133   9.585  67.627  1.00  0.00    -0.053 A  
BRANCH  16  17
HETATM   17  N   UNL     1      -5.573  10.834  67.408  1.00  0.00    -0.044 NA 
HETATM   18  C   UNL     1      -5.527  11.868  68.443  1.00  0.00    -0.049 C  
HETATM   19  C   UNL     1      -5.171  11.303  66.083  1.00  0.00    -0.115 C  
ENDBRANCH  16  17
ENDBRANCH  10  11
BRANCH  10  20
HETATM   20  C   UNL     1      -8.107   5.211  69.596  1.00  0.00    -0.089 A  
HETATM   21  C   UNL     1      -9.020   4.741  71.825  1.00  0.00    -0.154 A  
HETATM   22  C   UNL     1      -7.097   3.390  70.916  1.00  0.00    -0.033 A  
HETATM   23  C   UNL     1      -8.964   5.534  70.740  1.00  0.00    -0.157 A  
HETATM   24  C   UNL     1      -7.052   4.221  69.863  1.00  0.00    -0.042 A  
HETATM   25  C   UNL     1      -8.229   3.463  71.898  1.00  0.00    -0.063 A  
BRANCH  25  26
HETATM   26  N   UNL     1      -8.502   2.510  72.752  1.00  0.00    -0.069 NA 
HETATM   27  C   UNL     1      -9.862   1.879  72.891  1.00  0.00    -0.099 C  
HETATM   28  C   UNL     1      -7.511   1.875  73.682  1.00  0.00    -0.033 C  
ENDBRANCH  25  26
ENDBRANCH  10  20
ENDBRANCH   7  10
ENDBRANCH   2   4
TORSDOF 6
ENDMDL
MODEL      137
REMARK 921   NORMALIZED FREE ENERGY PREDICTED BY IDOCK:    0.67 KCAL/MOL
REMARK 922        TOTAL FREE ENERGY PREDICTED BY IDOCK:   -0.53 KCAL/MOL
REMARK 923 INTER-LIGAND FREE ENERGY PREDICTED BY IDOCK:    1.05 KCAL/MOL
REMARK 924 INTRA-LIGAND FREE ENERGY PREDICTED BY IDOCK:   -1.58 KCAL/MOL
REMARK 927      BINDING AFFINITY PREDICTED BY RF-SCORE:    0.00 PKD
ROOT
HETATM    1  C   UNL     1      -5.697  14.579  70.602  1.00  0.00    -0.169 C  
HETATM    2  N   UNL     1      -6.929  13.812  70.423  1.00  0.00     0.505 NA 
HETATM    3  C   UNL     1      -8.144  14.594  70.195  1.00  0.00     0.796 C  
ENDROOT
BRANCH   2   4
HETATM    4  C   UNL     1      -6.884  12.467  70.060  1.00  0.00     0.526 A  
HETATM    5  C   UNL     1      -5.708  11.695  70.133  1.00  0.00    -0.141 A  
HETATM    6  C   UNL     1      -5.656  10.348  69.717  1.00  0.00    -0.040 A  
HETATM    7  C   UNL     1      -6.793   9.709  69.229  1.00  0.00    -0.050 A  
HETATM    8  C   UNL     1      -7.985  10.437  69.195  1.00  0.00    -0.141 A  
HETATM    9  C   UNL     1      -8.025  11.781  69.605  1.00  0.00     0.951 A  
BRANCH   7  10
HETATM   10  C   UNL     1      -6.765   8.319  68.676  1.00  0.00    -0.059 C  
BRANCH  10  11
HETATM   11  C   UNL     1      -7.009   7.172  69.602  1.00  0.00    -0.051 A  
HETATM   12  C   UNL     1      -6.408   5.889  71.582  1.00  0.00    -0.048 A  
HETATM   13  C   UNL     1      -6.120   6.895  70.639  1.00  0.00    -0.028 A  
HETATM   14  C   UNL     1      -8.158   6.388  69.495  1.00  0.00    -0.118 A  
HETATM   15  C   UNL     1      -8.426   5.377  70.437  1.00  0.00    -0.117 A  
HETATM   16  C   UNL     1      -7.577   5.111  71.526  1.00  0.00    -0.101 A  
BRANCH  16  17
HETATM   17  N   UNL     1      -7.891   4.177  72.501  1.00  0.00    -0.084 NA 
HETATM   18  C   UNL     1      -9.262   3.946  72.956  1.00  0.00    -0.109 C  
HETATM   19  C   UNL     1      -6.877   3.495  73.303  1.00  0.00    -0.040 C  
ENDBRANCH  16  17
ENDBRANCH  10  11
BRANCH  10  20
HETATM   20  C   UNL     1      -6.428   8.066  67.373  1.00  0.00    -0.057 A  
HETATM   21  C   UNL     1      -5.480   6.536  65.706  1.00  0.00    -0.021 A  
HETATM   22  C   UNL     1      -6.786   8.566  64.986  1.00  0.00    -0.064 A  
HETATM   23  C   UNL     1      -5.579   6.937  66.986  1.00  0.00    -0.017 A  
HETATM   24  C   UNL     1      -6.837   8.950  66.270  1.00  0.00    -0.074 A  
HETATM   25  C   UNL     1      -6.270   7.207  64.615  1.00  0.00    -0.037 A  
BRANCH  25  26
HETATM   26  N   UNL     1      -6.474   6.655  63.447  1.00  0.00    -0.041 NA 
HETATM   27  C   UNL     1      -5.606   5.564  62.877  1.00  0.00    -0.014 C  
HETATM   28  C   UNL     1      -7.609   6.984  62.524  1.00  0.00    -0.106 C  
ENDBRANCH  25  26
ENDBRANCH  10  20
ENDBRANCH   7  10
ENDBRANCH   2   4
TORSDOF 6
ENDMDL
MODEL      138
REMARK 921   NORMALIZED FREE ENERGY PREDICTED BY IDOCK:    1.74 KCAL/MOL
REMARK 922        TOTAL FREE ENERGY PREDICTED BY IDOCK:    0.92 KCAL/MOL
REMARK 923 INTER-LIGAND FREE ENERGY PREDICTED BY IDOCK:    1.30 KCAL/MOL
REMARK 924 INTRA-LIGAND FREE ENERGY PREDICTED BY IDOCK:   -0.38 KCAL/MOL
REMARK 927      BINDING AFFINITY PREDICTED BY RF-SCORE:    0.00 PKD
ROOT
HETATM    1  C   UNL     1     -11.217  18.363  66.326  1.00  0.00     0.819 C  
HETATM    2  N   UNL     1     -11.627  17.076  65.767  1.00  0.00     1.148 NA 
HETATM    3  C   UNL     1     -12.142  17.106  64.397  1.00  0.00     3.169 C  
ENDROOT
BRANCH   2   4
HETATM    4  C   UNL     1     -11.161  15.880  66.312  1.00  0.00    -0.014 A  
HETATM    5  C   UNL     1      -9.946  15.284  65.919  1.00  0.00    -0.368 A  
HETATM    6  C   UNL     1      -9.503  14.050  66.437  1.00  0.00    -0.278 A  
HETATM    7  C   UNL     1     -10.253  13.368  67.394  1.00  0.00    -0.237 A  
HETATM    8  C   UNL     1     -11.435  13.964  67.839  1.00  0.00    -0.350 A  
HETATM    9  C   UNL     1     -11.872  15.191  67.310  1.00  0.00    -0.072 A  
BRANCH   7  10
HETATM   10  C   UNL     1      -9.881  12.008  67.894  1.00  0.00    -0.196 C  
BRANCH  10  11
HETATM   11  C   UNL     1     -10.785  11.330  68.872  1.00  0.00    -0.246 A  
HETATM   12  C   UNL     1     -11.607   9.300  69.936  1.00  0.00     0.076 A  
HETATM   13  C   UNL     1     -10.845   9.939  68.938  1.00  0.00    -0.239 A  
HETATM   14  C   UNL     1     -11.544  12.064  69.784  1.00  0.00    -0.348 A  
HETATM   15  C   UNL     1     -12.310  11.411  70.768  1.00  0.00    -0.483 A  
HETATM   16  C   UNL     1     -12.348  10.012  70.895  1.00  0.00    -0.341 A  
BRANCH  16  17
HETATM   17  N   UNL     1     -13.031   9.378  71.921  1.00  0.00    -0.383 NA 
HETATM   18  C   UNL     1     -14.145  10.007  72.631  1.00  0.00     0.571 C  
HETATM   19  C   UNL     1     -12.577   8.125  72.521  1.00  0.00    -0.155 C  
ENDBRANCH  16  17
ENDBRANCH  10  11
BRANCH  10  20
HETATM   20  C   UNL     1      -8.695  11.413  67.558  1.00  0.00    -0.140 A  
HETATM   21  C   UNL     1      -6.636  10.281  68.265  1.00  0.00    -0.057 A  
HETATM   22  C   UNL     1      -7.344  10.261  65.847  1.00  0.00    -0.131 A  
HETATM   23  C   UNL     1      -7.663  11.102  68.550  1.00  0.00    -0.129 A  
HETATM   24  C   UNL     1      -8.338  11.105  66.164  1.00  0.00    -0.144 A  
HETATM   25  C   UNL     1      -6.521   9.613  66.922  1.00  0.00    -0.067 A  
BRANCH  25  26
HETATM   26  N   UNL     1      -5.761   8.569  66.713  1.00  0.00    -0.043 NA 
HETATM   27  C   UNL     1      -5.293   8.137  65.349  1.00  0.00    -0.032 C  
HETATM   28  C   UNL     1      -5.209   7.677  67.785  1.00  0.00    -0.030 C  
ENDBRANCH  25  26
ENDBRANCH  10  20
ENDBRANCH   7  10
ENDBRANCH   2   4
TORSDOF 6
ENDMDL
MODEL      139
REMARK 921   NORMALIZED FREE ENERGY PREDICTED BY IDOCK:    1.89 KCAL/MOL
REMARK 922        TOTAL FREE ENERGY PREDICTED BY IDOCK:    1.12 KCAL/MOL
REMARK 923 INTER-LIGAND FREE ENERGY PREDICTED BY IDOCK:    2.63 KCAL/MOL
REMARK 924 INTRA-LIGAND FREE ENERGY PREDICTED BY IDOCK:   -1.50 KCAL/MOL
REMARK 927      BINDING AFFINITY PREDICTED BY RF-SCORE:    0.00 PKD
ROOT
HETATM    1  C   UNL     1     -10.714  13.522  63.990  1.00  0.00    -0.051 C  
HETATM    2  N   UNL     1     -10.021  12.253  63.771  1.00  0.00    -0.335 NA 
HETATM    3  C   UNL     1      -8.988  12.257  62.735  1.00  0.00     1.943 C  
ENDROOT
BRANCH   2   4
HETATM    4  C   UNL     1     -10.028  11.260  64.749  1.00  0.00    -0.277 A  
HETATM    5  C   UNL     1      -8.979  11.094  65.675  1.00  0.00    -0.195 A  
HETATM    6  C   UNL     1      -8.966  10.057  66.631  1.00  0.00    -0.156 A  
HETATM    7  C   UNL     1     -10.021   9.150  66.712  1.00  0.00    -0.322 A  
HETATM    8  C   UNL     1     -11.098   9.325  65.838  1.00  0.00     2.090 A  
HETATM    9  C   UNL     1     -11.097  10.357  64.885  1.00  0.00     0.989 A  
BRANCH   7  10
HETATM   10  C   UNL     1     -10.006   7.970  67.632  1.00  0.00    -0.234 C  
BRANCH  10  11
HETATM   11  C   UNL     1     -10.805   8.032  68.894  1.00  0.00    -0.001 A  
HETATM   12  C   UNL     1     -12.017   9.319  70.567  1.00  0.00    -0.115 A  
HETATM   13  C   UNL     1     -11.166   9.259  69.446  1.00  0.00     0.030 A  
HETATM   14  C   UNL     1     -11.262   6.871  69.517  1.00  0.00    -0.246 A  
HETATM   15  C   UNL     1     -12.100   6.946  70.645  1.00  0.00    -0.363 A  
HETATM   16  C   UNL     1     -12.528   8.168  71.192  1.00  0.00    -0.182 A  
BRANCH  16  17
HETATM   17  N   UNL     1     -13.426   8.237  72.245  1.00  0.00    -0.247 NA 
HETATM   18  C   UNL     1     -14.131   7.060  72.756  1.00  0.00     0.998 C  
HETATM   19  C   UNL     1     -13.904   9.502  72.801  1.00  0.00    -0.002 C  
ENDBRANCH  16  17
ENDBRANCH  10  11
BRANCH  10  20
HETATM   20  C   UNL     1      -9.207   6.883  67.400  1.00  0.00    -0.130 A  
HETATM   21  C   UNL     1      -8.380   5.176  65.844  1.00  0.00    -0.118 A  
HETATM   22  C   UNL     1      -7.225   5.568  68.049  1.00  0.00    -0.072 A  
HETATM   23  C   UNL     1      -9.331   6.059  66.196  1.00  0.00    -0.140 A  
HETATM   24  C   UNL     1      -8.209   6.419  68.377  1.00  0.00    -0.113 A  
HETATM   25  C   UNL     1      -7.122   5.020  66.656  1.00  0.00    -0.069 A  
BRANCH  25  26
HETATM   26  N   UNL     1      -6.043   4.448  66.187  1.00  0.00    -0.030 NA 
HETATM   27  C   UNL     1      -5.289   4.949  64.983  1.00  0.00    -0.013 C  
HETATM   28  C   UNL     1      -5.372   3.249  66.788  1.00  0.00    -0.012 C  
ENDBRANCH  25  26
ENDBRANCH  10  20
ENDBRANCH   7  10
ENDBRANCH   2   4
TORSDOF 6
ENDMDL
MODEL      140
REMARK 921   NORMALIZED FREE ENERGY PREDICTED BY IDOCK:    2.69 KCAL/MOL
REMARK 922        TOTAL FREE ENERGY PREDICTED BY IDOCK:    2.19 KCAL/MOL
REMARK 923 INTER-LIGAND FREE ENERGY PREDICTED BY IDOCK:    2.64 KCAL/MOL
REMARK 924 INTRA-LIGAND FREE ENERGY PREDICTED BY IDOCK:   -0.45 KCAL/MOL
REMARK 927      BINDING AFFINITY PREDICTED BY RF-SCORE:    0.00 PKD
ROOT
HETATM    1  C   UNL     1      -7.201   9.460  63.192  1.00  0.00    -0.100 C  
HETATM    2  N   UNL     1      -7.176   8.218  63.963  1.00  0.00    -0.086 NA 
HETATM    3  C   UNL     1      -6.691   7.033  63.256  1.00  0.00    -0.048 C  
ENDROOT
BRANCH   2   4
HETATM    4  C   UNL     1      -7.186   8.245  65.357  1.00  0.00    -0.071 A  
HETATM    5  C   UNL     1      -8.329   7.929  66.119  1.00  0.00    -0.127 A  
HETATM    6  C   UNL     1      -8.349   8.005  67.526  1.00  0.00    -0.123 A  
HETATM    7  C   UNL     1      -7.211   8.383  68.236  1.00  0.00    -0.086 A  
HETATM    8  C   UNL     1      -6.049   8.650  67.507  1.00  0.00    -0.052 A  
HETATM    9  C   UNL     1      -6.042   8.578  66.103  1.00  0.00    -0.052 A  
BRANCH   7  10
HETATM   10  C   UNL     1      -7.211   8.583  69.718  1.00  0.00    -0.052 C  
BRANCH  10  11
HETATM   11  C   UNL     1      -6.775   9.904  70.266  1.00  0.00    -0.126 A  
HETATM   12  C   UNL     1      -6.464  12.304  69.999  1.00  0.00     0.067 A  
HETATM   13  C   UNL     1      -6.761  11.038  69.456  1.00  0.00    -0.126 A  
HETATM   14  C   UNL     1      -6.432  10.052  71.610  1.00  0.00     0.570 A  
HETATM   15  C   UNL     1      -6.125  11.320  72.135  1.00  0.00     2.117 A  
HETATM   16  C   UNL     1      -6.156  12.491  71.357  1.00  0.00     1.229 A  
BRANCH  16  17
HETATM   17  N   UNL     1      -5.942  13.749  71.899  1.00  0.00    -0.295 NA 
HETATM   18  C   UNL     1      -6.345  14.097  73.263  1.00  0.00     1.245 C  
HETATM   19  C   UNL     1      -5.491  14.890  71.105  1.00  0.00    -0.095 C  
ENDBRANCH  16  17
ENDBRANCH  10  11
BRANCH  10  20
HETATM   20  C   UNL     1      -7.503   7.565  70.585  1.00  0.00    -0.077 A  
HETATM   21  C   UNL     1      -8.527   6.822  72.687  1.00  0.00    -0.127 A  
HETATM   22  C   UNL     1      -7.843   5.148  70.933  1.00  0.00    -0.096 A  
HETATM   23  C   UNL     1      -7.986   7.805  71.947  1.00  0.00    -0.116 A  
HETATM   24  C   UNL     1      -7.287   6.151  70.238  1.00  0.00    -0.088 A  
HETATM   25  C   UNL     1      -8.696   5.432  72.135  1.00  0.00    -0.130 A  
BRANCH  25  26
HETATM   26  N   UNL     1      -9.505   4.553  72.666  1.00  0.00    -0.132 NA 
HETATM   27  C   UNL     1      -9.296   3.064  72.575  1.00  0.00    -0.101 C  
HETATM   28  C   UNL     1     -10.726   4.882  73.473  1.00  0.00    -0.280 C  
ENDBRANCH  25  26
ENDBRANCH  10  20
ENDBRANCH   7  10
ENDBRANCH   2   4
TORSDOF 6
ENDMDL
MODEL      141
REMARK 921   NORMALIZED FREE ENERGY PREDICTED BY IDOCK:    2.72 KCAL/MOL
REMARK 922        TOTAL FREE ENERGY PREDICTED BY IDOCK:    2.24 KCAL/MOL
REMARK 923 INTER-LIGAND FREE ENERGY PREDICTED BY IDOCK:    3.04 KCAL/MOL
REMARK 924 INTRA-LIGAND FREE ENERGY PREDICTED BY IDOCK:   -0.80 KCAL/MOL
REMARK 927      BINDING AFFINITY PREDICTED BY RF-SCORE:    0.00 PKD
ROOT
HETATM    1  C   UNL     1     -11.536   7.072  66.404  1.00  0.00     2.006 C  
HETATM    2  N   UNL     1     -10.734   8.234  66.784  1.00  0.00    -0.176 NA 
HETATM    3  C   UNL     1     -11.154   9.517  66.220  1.00  0.00     0.967 C  
ENDROOT
BRANCH   2   4
HETATM    4  C   UNL     1      -9.926   8.202  67.920  1.00  0.00    -0.182 A  
HETATM    5  C   UNL     1      -9.093   9.274  68.296  1.00  0.00    -0.128 A  
HETATM    6  C   UNL     1      -8.240   9.218  69.418  1.00  0.00    -0.114 A  
HETATM    7  C   UNL     1      -8.203   8.084  70.227  1.00  0.00    -0.123 A  
HETATM    8  C   UNL     1      -9.058   7.027  69.907  1.00  0.00    -0.141 A  
HETATM    9  C   UNL     1      -9.898   7.091  68.782  1.00  0.00    -0.152 A  
BRANCH   7  10
HETATM   10  C   UNL     1      -7.240   7.932  71.362  1.00  0.00    -0.065 C  
BRANCH  10  11
HETATM   11  C   UNL     1      -7.187   6.628  72.091  1.00  0.00    -0.081 A  
HETATM   12  C   UNL     1      -8.295   4.864  73.351  1.00  0.00    -0.107 A  
HETATM   13  C   UNL     1      -8.308   6.145  72.763  1.00  0.00    -0.117 A  
HETATM   14  C   UNL     1      -6.041   5.833  72.067  1.00  0.00    -0.036 A  
HETATM   15  C   UNL     1      -6.040   4.561  72.669  1.00  0.00    -0.017 A  
HETATM   16  C   UNL     1      -7.171   4.022  73.306  1.00  0.00    -0.068 A  
BRANCH  16  17
HETATM   17  N   UNL     1      -7.192   2.734  73.818  1.00  0.00    -0.040 NA 
HETATM   18  C   UNL     1      -8.400   2.133  74.386  1.00  0.00    -0.058 C  
HETATM   19  C   UNL     1      -5.982   1.941  74.025  1.00  0.00    -0.004 C  
ENDBRANCH  16  17
ENDBRANCH  10  11
BRANCH  10  20
HETATM   20  C   UNL     1      -6.481   8.979  71.812  1.00  0.00    -0.033 A  
HETATM   21  C   UNL     1      -5.224  11.028  71.320  1.00  0.00    -0.071 A  
HETATM   22  C   UNL     1      -5.834  10.437  73.692  1.00  0.00     1.085 A  
HETATM   23  C   UNL     1      -5.733   9.854  70.906  1.00  0.00    -0.083 A  
HETATM   24  C   UNL     1      -6.304   9.263  73.245  1.00  0.00     0.363 A  
HETATM   25  C   UNL     1      -5.432  11.515  72.729  1.00  0.00     1.069 A  
BRANCH  25  26
HETATM   26  N   UNL     1      -5.264  12.764  73.077  1.00  0.00    -0.342 NA 
HETATM   27  C   UNL     1      -5.228  13.907  72.097  1.00  0.00    -0.205 C  
HETATM   28  C   UNL     1      -5.127  13.255  74.488  1.00  0.00    -0.112 C  
ENDBRANCH  25  26
ENDBRANCH  10  20
ENDBRANCH   7  10
ENDBRANCH   2   4
TORSDOF 6
ENDMDL
MODEL      142
REMARK 921   NORMALIZED FREE ENERGY PREDICTED BY IDOCK:    3.55 KCAL/MOL
REMARK 922        TOTAL FREE ENERGY PREDICTED BY IDOCK:    3.36 KCAL/MOL
REMARK 923 INTER-LIGAND FREE ENERGY PREDICTED BY IDOCK:    3.64 KCAL/MOL
REMARK 924 INTRA-LIGAND FREE ENERGY PREDICTED BY IDOCK:   -0.28 KCAL/MOL
REMARK 927      BINDING AFFINITY PREDICTED BY RF-SCORE:    0.00 PKD
ROOT
HETATM    1  C   UNL     1      -9.930  19.764  67.786  1.00  0.00    -0.409 C  
HETATM    2  N   UNL     1     -11.017  18.811  67.562  1.00  0.00    -0.334 NA 
HETATM    3  C   UNL     1     -12.239  19.358  66.973  1.00  0.00     3.226 C  
ENDROOT
BRANCH   2   4
HETATM    4  C   UNL     1     -10.761  17.442  67.497  1.00  0.00    -0.278 A  
HETATM    5  C   UNL     1     -11.398  16.589  66.574  1.00  0.00     0.575 A  
HETATM    6  C   UNL     1     -11.174  15.197  66.545  1.00  0.00    -0.283 A  
HETATM    7  C   UNL     1     -10.280  14.601  67.432  1.00  0.00    -0.240 A  
HETATM    8  C   UNL     1      -9.596  15.432  68.323  1.00  0.00    -0.205 A  
HETATM    9  C   UNL     1      -9.833  16.817  68.348  1.00  0.00    -0.253 A  
BRANCH   7  10
HETATM   10  C   UNL     1     -10.089  13.119  67.514  1.00  0.00    -0.222 C  
BRANCH  10  11
HETATM   11  C   UNL     1      -9.480  12.407  66.349  1.00  0.00    -0.240 A  
HETATM   12  C   UNL     1      -8.426  10.431  65.396  1.00  0.00    -0.173 A  
HETATM   13  C   UNL     1      -8.894  11.154  66.511  1.00  0.00    -0.174 A  
HETATM   14  C   UNL     1      -9.536  12.946  65.064  1.00  0.00     0.185 A  
HETATM   15  C   UNL     1      -9.052  12.218  63.961  1.00  0.00     0.816 A  
HETATM   16  C   UNL     1      -8.507  10.928  64.084  1.00  0.00     0.113 A  
BRANCH  16  17
HETATM   17  N   UNL     1      -8.116  10.179  62.985  1.00  0.00    -0.147 NA 
HETATM   18  C   UNL     1      -8.906   9.057  62.476  1.00  0.00    -0.143 C  
HETATM   19  C   UNL     1      -6.796  10.303  62.368  1.00  0.00    -0.131 C  
ENDBRANCH  16  17
ENDBRANCH  10  11
BRANCH  10  20
HETATM   20  C   UNL     1     -10.543  12.390  68.580  1.00  0.00    -0.251 A  
HETATM   21  C   UNL     1     -11.281  12.321  70.918  1.00  0.00     2.042 A  
HETATM   22  C   UNL     1     -11.679  10.357  69.390  1.00  0.00    -0.231 A  
HETATM   23  C   UNL     1     -10.588  12.930  69.941  1.00  0.00     1.018 A  
HETATM   24  C   UNL     1     -10.955  10.983  68.450  1.00  0.00    -0.281 A  
HETATM   25  C   UNL     1     -12.076  11.071  70.649  1.00  0.00    -0.373 A  
BRANCH  25  26
HETATM   26  N   UNL     1     -13.018  10.645  71.450  1.00  0.00    -0.422 NA 
HETATM   27  C   UNL     1     -13.549   9.236  71.438  1.00  0.00    -0.292 C  
HETATM   28  C   UNL     1     -13.677  11.465  72.519  1.00  0.00     0.743 C  
ENDBRANCH  25  26
ENDBRANCH  10  20
ENDBRANCH   7  10
ENDBRANCH   2   4
TORSDOF 6
ENDMDL
MODEL      143
REMARK 921   NORMALIZED FREE ENERGY PREDICTED BY IDOCK:    4.70 KCAL/MOL
REMARK 922        TOTAL FREE ENERGY PREDICTED BY IDOCK:    4.92 KCAL/MOL
REMARK 923 INTER-LIGAND FREE ENERGY PREDICTED BY IDOCK:    5.58 KCAL/MOL
REMARK 924 INTRA-LIGAND FREE ENERGY PREDICTED BY IDOCK:   -0.66 KCAL/MOL
REMARK 927      BINDING AFFINITY PREDICTED BY RF-SCORE:    0.00 PKD
ROOT
HETATM    1  C   UNL     1      -8.971  15.280  71.553  1.00  0.00     4.203 C  
HETATM    2  N   UNL     1      -8.565  15.006  70.175  1.00  0.00     0.423 NA 
HETATM    3  C   UNL     1      -8.186  16.170  69.374  1.00  0.00    -0.091 C  
ENDROOT
BRANCH   2   4
HETATM    4  C   UNL     1      -8.152  13.730  69.794  1.00  0.00     1.203 A  
HETATM    5  C   UNL     1      -6.969  13.135  70.278  1.00  0.00     1.008 A  
HETATM    6  C   UNL     1      -6.529  11.865  69.852  1.00  0.00    -0.048 A  
HETATM    7  C   UNL     1      -7.272  11.124  68.935  1.00  0.00    -0.106 A  
HETATM    8  C   UNL     1      -8.475  11.669  68.480  1.00  0.00    -0.135 A  
HETATM    9  C   UNL     1      -8.901  12.940  68.905  1.00  0.00     0.328 A  
BRANCH   7  10
HETATM   10  C   UNL     1      -6.795   9.823  68.371  1.00  0.00    -0.060 C  
BRANCH  10  11
HETATM   11  C   UNL     1      -6.514   8.693  69.308  1.00  0.00    -0.042 A  
HETATM   12  C   UNL     1      -5.582   7.862  71.398  1.00  0.00    -0.034 A  
HETATM   13  C   UNL     1      -5.749   8.896  70.455  1.00  0.00    -0.027 A  
HETATM   14  C   UNL     1      -7.057   7.426  69.096  1.00  0.00    -0.079 A  
HETATM   15  C   UNL     1      -6.870   6.399  70.040  1.00  0.00    -0.054 A  
HETATM   16  C   UNL     1      -6.151   6.588  71.233  1.00  0.00    -0.040 A  
BRANCH  16  17
HETATM   17  N   UNL     1      -6.048   5.601  72.201  1.00  0.00    -0.034 NA 
HETATM   18  C   UNL     1      -5.568   4.252  71.901  1.00  0.00    -0.011 C  
HETATM   19  C   UNL     1      -6.595   5.750  73.548  1.00  0.00    -0.074 C  
ENDBRANCH  16  17
ENDBRANCH  10  11
BRANCH  10  20
HETATM   20  C   UNL     1      -6.517   9.671  67.039  1.00  0.00    -0.066 A  
HETATM   21  C   UNL     1      -5.377   8.427  65.258  1.00  0.00    -0.035 A  
HETATM   22  C   UNL     1      -7.180  10.096  64.703  1.00  0.00    -0.124 A  
HETATM   23  C   UNL     1      -5.460   8.780  66.553  1.00  0.00    -0.035 A  
HETATM   24  C   UNL     1      -7.213  10.444  65.998  1.00  0.00    -0.134 A  
HETATM   25  C   UNL     1      -6.390   8.903  64.252  1.00  0.00    -0.071 A  
BRANCH  25  26
HETATM   26  N   UNL     1      -6.555   8.330  63.088  1.00  0.00    -0.085 NA 
HETATM   27  C   UNL     1      -5.451   7.631  62.339  1.00  0.00    -0.051 C  
HETATM   28  C   UNL     1      -7.855   8.242  62.346  1.00  0.00    -0.144 C  
ENDBRANCH  25  26
ENDBRANCH  10  20
ENDBRANCH   7  10
ENDBRANCH   2   4
TORSDOF 6
ENDMDL
MODEL      144
REMARK 921   NORMALIZED FREE ENERGY PREDICTED BY IDOCK:    5.42 KCAL/MOL
REMARK 922        TOTAL FREE ENERGY PREDICTED BY IDOCK:    5.90 KCAL/MOL
REMARK 923 INTER-LIGAND FREE ENERGY PREDICTED BY IDOCK:    7.45 KCAL/MOL
REMARK 924 INTRA-LIGAND FREE ENERGY PREDICTED BY IDOCK:   -1.56 KCAL/MOL
REMARK 927      BINDING AFFINITY PREDICTED BY RF-SCORE:    0.00 PKD
ROOT
HETATM    1  C   UNL     1     -12.144  13.800  74.502  1.00  0.00     4.973 C  
HETATM    2  N   UNL     1     -12.873  13.933  73.241  1.00  0.00    -0.259 NA 
HETATM    3  C   UNL     1     -13.882  14.991  73.191  1.00  0.00     0.145 C  
ENDROOT
BRANCH   2   4
HETATM    4  C   UNL     1     -12.354  13.404  72.059  1.00  0.00     0.308 A  
HETATM    5  C   UNL     1     -12.722  12.138  71.563  1.00  0.00    -0.348 A  
HETATM    6  C   UNL     1     -12.159  11.586  70.395  1.00  0.00    -0.471 A  
HETATM    7  C   UNL     1     -11.212  12.295  69.657  1.00  0.00    -0.120 A  
HETATM    8  C   UNL     1     -10.869  13.576  70.099  1.00  0.00     0.742 A  
HETATM    9  C   UNL     1     -11.431  14.113  71.269  1.00  0.00     0.425 A  
BRANCH   7  10
HETATM   10  C   UNL     1     -10.506  11.712  68.474  1.00  0.00    -0.236 C  
BRANCH  10  11
HETATM   11  C   UNL     1     -10.865  12.203  67.109  1.00  0.00    -0.286 A  
HETATM   12  C   UNL     1     -12.531  12.631  65.386  1.00  0.00    -0.421 A  
HETATM   13  C   UNL     1     -12.163  12.065  66.623  1.00  0.00     0.439 A  
HETATM   14  C   UNL     1      -9.931  12.865  66.311  1.00  0.00    -0.271 A  
HETATM   15  C   UNL     1     -10.310  13.414  65.072  1.00  0.00    -0.361 A  
HETATM   16  C   UNL     1     -11.625  13.341  64.579  1.00  0.00    -0.369 A  
BRANCH  16  17
HETATM   17  N   UNL     1     -12.013  13.961  63.402  1.00  0.00    -0.270 NA 
HETATM   18  C   UNL     1     -11.922  15.409  63.209  1.00  0.00     2.029 C  
HETATM   19  C   UNL     1     -12.733  13.265  62.338  1.00  0.00     2.836 C  
ENDBRANCH  16  17
ENDBRANCH  10  11
BRANCH  10  20
HETATM   20  C   UNL     1      -9.617  10.678  68.600  1.00  0.00    -0.179 A  
HETATM   21  C   UNL     1      -8.183   9.302  70.038  1.00  0.00    -0.160 A  
HETATM   22  C   UNL     1      -8.714   8.575  67.685  1.00  0.00    -0.136 A  
HETATM   23  C   UNL     1      -8.836  10.457  69.818  1.00  0.00     0.036 A  
HETATM   24  C   UNL     1      -9.329   9.751  67.494  1.00  0.00    -0.152 A  
HETATM   25  C   UNL     1      -8.257   8.165  69.054  1.00  0.00    -0.127 A  
BRANCH  25  26
HETATM   26  N   UNL     1      -7.940   6.936  69.368  1.00  0.00    -0.113 NA 
HETATM   27  C   UNL     1      -7.667   5.859  68.351  1.00  0.00    -0.094 C  
HETATM   28  C   UNL     1      -7.758   6.422  70.766  1.00  0.00    -0.102 C  
ENDBRANCH  25  26
ENDBRANCH  10  20
ENDBRANCH   7  10
ENDBRANCH   2   4
TORSDOF 6
ENDMDL
MODEL      145
REMARK 921   NORMALIZED FREE ENERGY PREDICTED BY IDOCK:    5.46 KCAL/MOL
REMARK 922        TOTAL FREE ENERGY PREDICTED BY IDOCK:    5.94 KCAL/MOL
REMARK 923 INTER-LIGAND FREE ENERGY PREDICTED BY IDOCK:    6.57 KCAL/MOL
REMARK 924 INTRA-LIGAND FREE ENERGY PREDICTED BY IDOCK:   -0.63 KCAL/MOL
REMARK 927      BINDING AFFINITY PREDICTED BY RF-SCORE:    0.00 PKD
ROOT
HETATM    1  C   UNL     1     -13.312  17.937  74.057  1.00  0.00     4.710 C  
HETATM    2  N   UNL     1     -11.985  17.473  73.655  1.00  0.00     0.448 NA 
HETATM    3  C   UNL     1     -10.886  17.812  74.559  1.00  0.00     3.023 C  
ENDROOT
BRANCH   2   4
HETATM    4  C   UNL     1     -11.841  16.431  72.740  1.00  0.00    -0.435 A  
HETATM    5  C   UNL     1     -11.320  16.620  71.444  1.00  0.00     0.139 A  
HETATM    6  C   UNL     1     -11.222  15.574  70.504  1.00  0.00    -0.365 A  
HETATM    7  C   UNL     1     -11.626  14.281  70.833  1.00  0.00    -0.146 A  
HETATM    8  C   UNL     1     -12.098  14.056  72.129  1.00  0.00     0.172 A  
HETATM    9  C   UNL     1     -12.198  15.108  73.056  1.00  0.00    -0.499 A  
BRANCH   7  10
HETATM   10  C   UNL     1     -11.644  13.162  69.840  1.00  0.00    -0.255 C  
BRANCH  10  11
HETATM   11  C   UNL     1     -11.722  13.493  68.385  1.00  0.00    -0.393 A  
HETATM   12  C   UNL     1     -12.696  13.129  66.184  1.00  0.00     0.091 A  
HETATM   13  C   UNL     1     -12.531  12.747  67.530  1.00  0.00     0.615 A  
HETATM   14  C   UNL     1     -11.042  14.590  67.856  1.00  0.00    -0.290 A  
HETATM   15  C   UNL     1     -11.207  14.952  66.506  1.00  0.00    -0.335 A  
HETATM   16  C   UNL     1     -12.058  14.253  65.632  1.00  0.00    -0.393 A  
BRANCH  16  17
HETATM   17  N   UNL     1     -12.287  14.667  64.329  1.00  0.00    -0.678 NA 
HETATM   18  C   UNL     1     -11.934  13.848  63.169  1.00  0.00     0.553 C  
HETATM   19  C   UNL     1     -12.705  16.026  63.990  1.00  0.00     1.333 C  
ENDBRANCH  16  17
ENDBRANCH  10  11
BRANCH  10  20
HETATM   20  C   UNL     1     -11.690  11.851  70.230  1.00  0.00    -0.293 A  
HETATM   21  C   UNL     1     -13.014   9.921  70.965  1.00  0.00    -0.412 A  
HETATM   22  C   UNL     1     -10.629   9.625  70.209  1.00  0.00    -0.333 A  
HETATM   23  C   UNL     1     -12.879  11.253  70.842  1.00  0.00    -0.343 A  
HETATM   24  C   UNL     1     -10.523  10.959  70.128  1.00  0.00     0.307 A  
HETATM   25  C   UNL     1     -11.963   8.978  70.445  1.00  0.00     0.083 A  
BRANCH  25  26
HETATM   26  N   UNL     1     -12.194   7.708  70.232  1.00  0.00     0.243 NA 
HETATM   27  C   UNL     1     -13.105   6.870  71.089  1.00  0.00    -0.125 C  
HETATM   28  C   UNL     1     -11.632   6.909  69.093  1.00  0.00     0.149 C  
ENDBRANCH  25  26
ENDBRANCH  10  20
ENDBRANCH   7  10
ENDBRANCH   2   4
TORSDOF 6
ENDMDL
MODEL      146
REMARK 921   NORMALIZED FREE ENERGY PREDICTED BY IDOCK:    5.70 KCAL/MOL
REMARK 922        TOTAL FREE ENERGY PREDICTED BY IDOCK:    6.26 KCAL/MOL
REMARK 923 INTER-LIGAND FREE ENERGY PREDICTED BY IDOCK:    5.00 KCAL/MOL
REMARK 924 INTRA-LIGAND FREE ENERGY PREDICTED BY IDOCK:    1.27 KCAL/MOL
REMARK 927      BINDING AFFINITY PREDICTED BY RF-SCORE:    0.00 PKD
ROOT
HETATM    1  C   UNL     1      -9.922   9.197  62.408  1.00  0.00     2.176 C  
HETATM    2  N   UNL     1     -10.320  10.168  63.426  1.00  0.00     0.637 NA 
HETATM    3  C   UNL     1     -11.096  11.315  62.952  1.00  0.00     0.478 C  
ENDROOT
BRANCH   2   4
HETATM    4  C   UNL     1     -10.347   9.816  64.775  1.00  0.00     0.810 A  
HETATM    5  C   UNL     1     -10.381   8.478  65.215  1.00  0.00     2.470 A  
HETATM    6  C   UNL     1     -10.458   8.127  66.578  1.00  0.00    -0.041 A  
HETATM    7  C   UNL     1     -10.482   9.109  67.566  1.00  0.00    -0.335 A  
HETATM    8  C   UNL     1     -10.396  10.443  67.159  1.00  0.00    -0.290 A  
HETATM    9  C   UNL     1     -10.327  10.782  65.797  1.00  0.00    -0.295 A  
BRANCH   7  10
HETATM   10  C   UNL     1     -10.672   8.794  69.016  1.00  0.00    -0.134 C  
BRANCH  10  11
HETATM   11  C   UNL     1     -11.156   9.873  69.930  1.00  0.00    -0.318 A  
HETATM   12  C   UNL     1     -12.018  12.124  70.272  1.00  0.00    -0.389 A  
HETATM   13  C   UNL     1     -11.451  11.142  69.435  1.00  0.00    -0.368 A  
HETATM   14  C   UNL     1     -11.384   9.626  71.283  1.00  0.00    -0.458 A  
HETATM   15  C   UNL     1     -11.938  10.621  72.110  1.00  0.00     1.192 A  
HETATM   16  C   UNL     1     -12.298  11.892  71.629  1.00  0.00     0.201 A  
BRANCH  16  17
HETATM   17  N   UNL     1     -12.927  12.836  72.426  1.00  0.00    -0.199 NA 
HETATM   18  C   UNL     1     -14.359  13.123  72.323  1.00  0.00     0.001 C  
HETATM   19  C   UNL     1     -12.195  13.767  73.282  1.00  0.00     1.193 C  
ENDBRANCH  16  17
ENDBRANCH  10  11
BRANCH  10  20
HETATM   20  C   UNL     1     -10.323   7.580  69.543  1.00  0.00    -0.216 A  
HETATM   21  C   UNL     1      -9.752   5.220  69.189  1.00  0.00    -0.231 A  
HETATM   22  C   UNL     1      -9.329   6.321  71.416  1.00  0.00    -0.160 A  
HETATM   23  C   UNL     1     -10.350   6.344  68.757  1.00  0.00    -0.232 A  
HETATM   24  C   UNL     1      -9.960   7.413  70.959  1.00  0.00    -0.183 A  
HETATM   25  C   UNL     1      -8.992   5.191  70.488  1.00  0.00    -0.134 A  
BRANCH  25  26
HETATM   26  N   UNL     1      -8.126   4.255  70.780  1.00  0.00    -0.066 NA 
HETATM   27  C   UNL     1      -8.096   3.528  72.099  1.00  0.00    -0.071 C  
HETATM   28  C   UNL     1      -7.070   3.736  69.850  1.00  0.00    -0.042 C  
ENDBRANCH  25  26
ENDBRANCH  10  20
ENDBRANCH   7  10
ENDBRANCH   2   4
TORSDOF 6
ENDMDL
MODEL      147
REMARK 921   NORMALIZED FREE ENERGY PREDICTED BY IDOCK:    6.22 KCAL/MOL
REMARK 922        TOTAL FREE ENERGY PREDICTED BY IDOCK:    6.96 KCAL/MOL
REMARK 923 INTER-LIGAND FREE ENERGY PREDICTED BY IDOCK:    7.78 KCAL/MOL
REMARK 924 INTRA-LIGAND FREE ENERGY PREDICTED BY IDOCK:   -0.82 KCAL/MOL
REMARK 927      BINDING AFFINITY PREDICTED BY RF-SCORE:    0.00 PKD
ROOT
HETATM    1  C   UNL     1      -7.077  16.207  68.148  1.00  0.00    -0.131 C  
HETATM    2  N   UNL     1      -6.666  15.125  69.042  1.00  0.00    -0.113 NA 
HETATM    3  C   UNL     1      -5.982  15.532  70.270  1.00  0.00    -0.109 C  
ENDROOT
BRANCH   2   4
HETATM    4  C   UNL     1      -7.257  13.865  68.955  1.00  0.00    -0.078 A  
HETATM    5  C   UNL     1      -7.299  12.965  70.039  1.00  0.00     1.336 A  
HETATM    6  C   UNL     1      -7.854  11.674  69.933  1.00  0.00     1.324 A  
HETATM    7  C   UNL     1      -8.413  11.235  68.735  1.00  0.00    -0.112 A  
HETATM    8  C   UNL     1      -8.432  12.128  67.660  1.00  0.00    -0.163 A  
HETATM    9  C   UNL     1      -7.869  13.411  67.774  1.00  0.00    -0.158 A  
BRANCH   7  10
HETATM   10  C   UNL     1      -8.916   9.839  68.539  1.00  0.00    -0.124 C  
BRANCH  10  11
HETATM   11  C   UNL     1      -8.554   9.113  67.284  1.00  0.00    -0.118 A  
HETATM   12  C   UNL     1      -7.909   7.065  66.138  1.00  0.00    -0.102 A  
HETATM   13  C   UNL     1      -8.138   7.785  67.327  1.00  0.00    -0.119 A  
HETATM   14  C   UNL     1      -8.681   9.722  66.035  1.00  0.00    -0.156 A  
HETATM   15  C   UNL     1      -8.437   8.994  64.856  1.00  0.00    -0.195 A  
HETATM   16  C   UNL     1      -8.069   7.637  64.864  1.00  0.00    -0.128 A  
BRANCH  16  17
HETATM   17  N   UNL     1      -7.919   6.901  63.699  1.00  0.00    -0.099 NA 
HETATM   18  C   UNL     1      -7.822   7.528  62.380  1.00  0.00    -0.124 C  
HETATM   19  C   UNL     1      -8.050   5.446  63.657  1.00  0.00    -0.117 C  
ENDBRANCH  16  17
ENDBRANCH  10  11
BRANCH  10  20
HETATM   20  C   UNL     1      -9.774   9.249  69.428  1.00  0.00    -0.175 A  
HETATM   21  C   UNL     1     -10.111   7.792  71.372  1.00  0.00    -0.211 A  
HETATM   22  C   UNL     1     -11.972   9.276  70.545  1.00  0.00    -0.115 A  
HETATM   23  C   UNL     1      -9.356   8.171  70.327  1.00  0.00    -0.155 A  
HETATM   24  C   UNL     1     -11.199   9.606  69.499  1.00  0.00    -0.144 A  
HETATM   25  C   UNL     1     -11.409   8.485  71.690  1.00  0.00    -0.295 A  
BRANCH  25  26
HETATM   26  N   UNL     1     -11.993   8.394  72.856  1.00  0.00    -0.214 NA 
HETATM   27  C   UNL     1     -11.343   8.807  74.150  1.00  0.00     7.177 C  
HETATM   28  C   UNL     1     -13.396   7.912  73.082  1.00  0.00     1.398 C  
ENDBRANCH  25  26
ENDBRANCH  10  20
ENDBRANCH   7  10
ENDBRANCH   2   4
TORSDOF 6
ENDMDL
MODEL      148
REMARK 921   NORMALIZED FREE ENERGY PREDICTED BY IDOCK:    7.09 KCAL/MOL
REMARK 922        TOTAL FREE ENERGY PREDICTED BY IDOCK:    8.14 KCAL/MOL
REMARK 923 INTER-LIGAND FREE ENERGY PREDICTED BY IDOCK:    8.97 KCAL/MOL
REMARK 924 INTRA-LIGAND FREE ENERGY PREDICTED BY IDOCK:   -0.83 KCAL/MOL
REMARK 927      BINDING AFFINITY PREDICTED BY RF-SCORE:    0.00 PKD
ROOT
HETATM    1  C   UNL     1     -12.086  10.714  73.243  1.00  0.00     7.252 C  
HETATM    2  N   UNL     1     -12.630  10.000  72.089  1.00  0.00    -0.283 NA 
HETATM    3  C   UNL     1     -13.988   9.476  72.240  1.00  0.00    -0.214 C  
ENDROOT
BRANCH   2   4
HETATM    4  C   UNL     1     -12.088  10.183  70.818  1.00  0.00    -0.343 A  
HETATM    5  C   UNL     1     -10.747   9.881  70.509  1.00  0.00    -0.382 A  
HETATM    6  C   UNL     1     -10.190  10.114  69.235  1.00  0.00    -0.238 A  
HETATM    7  C   UNL     1     -10.965  10.642  68.204  1.00  0.00    -0.321 A  
HETATM    8  C   UNL     1     -12.312  10.901  68.470  1.00  0.00     0.470 A  
HETATM    9  C   UNL     1     -12.855  10.672  69.746  1.00  0.00     0.164 A  
BRANCH   7  10
HETATM   10  C   UNL     1     -10.395  11.008  66.870  1.00  0.00    -0.279 C  
BRANCH  10  11
HETATM   11  C   UNL     1      -9.485  10.040  66.186  1.00  0.00    -0.242 A  
HETATM   12  C   UNL     1      -7.250   9.360  65.503  1.00  0.00    -0.088 A  
HETATM   13  C   UNL     1      -8.128  10.321  66.041  1.00  0.00    -0.139 A  
HETATM   14  C   UNL     1      -9.953   8.806  65.732  1.00  0.00     0.117 A  
HETATM   15  C   UNL     1      -9.065   7.862  65.184  1.00  0.00     0.345 A  
HETATM   16  C   UNL     1      -7.683   8.094  65.076  1.00  0.00    -0.113 A  
BRANCH  16  17
HETATM   17  N   UNL     1      -6.801   7.126  64.620  1.00  0.00    -0.049 NA 
HETATM   18  C   UNL     1      -6.982   5.701  64.901  1.00  0.00    -0.056 C  
HETATM   19  C   UNL     1      -5.515   7.450  64.005  1.00  0.00    -0.033 C  
ENDBRANCH  16  17
ENDBRANCH  10  11
BRANCH  10  20
HETATM   20  C   UNL     1     -10.605  12.238  66.307  1.00  0.00    -0.282 A  
HETATM   21  C   UNL     1     -12.140  14.083  65.798  1.00  0.00    -0.445 A  
HETATM   22  C   UNL     1      -9.651  14.384  65.555  1.00  0.00    -0.097 A  
HETATM   23  C   UNL     1     -11.947  12.784  66.088  1.00  0.00    -0.476 A  
HETATM   24  C   UNL     1      -9.500  13.077  65.817  1.00  0.00     0.015 A  
HETATM   25  C   UNL     1     -10.987  15.047  65.723  1.00  0.00    -0.350 A  
BRANCH  25  26
HETATM   26  N   UNL     1     -11.142  16.344  65.787  1.00  0.00     0.003 NA 
HETATM   27  C   UNL     1     -12.418  17.010  66.230  1.00  0.00     4.919 C  
HETATM   28  C   UNL     1     -10.080  17.356  65.477  1.00  0.00     0.119 C  
ENDBRANCH  25  26
ENDBRANCH  10  20
ENDBRANCH   7  10
ENDBRANCH   2   4
TORSDOF 6
ENDMDL
MODEL      149
REMARK 921   NORMALIZED FREE ENERGY PREDICTED BY IDOCK:    8.53 KCAL/MOL
REMARK 922        TOTAL FREE ENERGY PREDICTED BY IDOCK:   10.09 KCAL/MOL
REMARK 923 INTER-LIGAND FREE ENERGY PREDICTED BY IDOCK:   11.08 KCAL/MOL
REMARK 924 INTRA-LIGAND FREE ENERGY PREDICTED BY IDOCK:   -0.98 KCAL/MOL
REMARK 927      BINDING AFFINITY PREDICTED BY RF-SCORE:    0.00 PKD
ROOT
HETATM    1  C   UNL     1     -12.067   3.141  73.538  1.00  0.00     0.546 C  
HETATM    2  N   UNL     1     -10.801   3.577  72.949  1.00  0.00    -0.098 NA 
HETATM    3  C   UNL     1      -9.775   2.546  72.797  1.00  0.00    -0.118 C  
ENDROOT
BRANCH   2   4
HETATM    4  C   UNL     1     -10.732   4.750  72.198  1.00  0.00    -0.079 A  
HETATM    5  C   UNL     1     -11.873   5.487  71.824  1.00  0.00     0.355 A  
HETATM    6  C   UNL     1     -11.802   6.644  71.023  1.00  0.00    -0.427 A  
HETATM    7  C   UNL     1     -10.574   7.128  70.577  1.00  0.00    -0.243 A  
HETATM    8  C   UNL     1      -9.422   6.445  70.978  1.00  0.00    -0.181 A  
HETATM    9  C   UNL     1      -9.505   5.288  71.771  1.00  0.00    -0.183 A  
BRANCH   7  10
HETATM   10  C   UNL     1     -10.453   8.286  69.638  1.00  0.00    -0.221 C  
BRANCH  10  11
HETATM   11  C   UNL     1     -10.174   8.015  68.194  1.00  0.00    -0.251 A  
HETATM   12  C   UNL     1      -8.715   8.194  66.254  1.00  0.00    -0.172 A  
HETATM   13  C   UNL     1      -9.041   8.543  67.579  1.00  0.00    -0.146 A  
HETATM   14  C   UNL     1     -11.001   7.180  67.443  1.00  0.00    -0.296 A  
HETATM   15  C   UNL     1     -10.669   6.850  66.116  1.00  0.00     0.931 A  
HETATM   16  C   UNL     1      -9.505   7.322  65.485  1.00  0.00     0.631 A  
BRANCH  16  17
HETATM   17  N   UNL     1      -9.137   6.922  64.210  1.00  0.00     1.089 NA 
HETATM   18  C   UNL     1      -7.919   6.153  63.948  1.00  0.00    -0.103 C  
HETATM   19  C   UNL     1      -9.807   7.401  63.003  1.00  0.00     4.943 C  
ENDBRANCH  16  17
ENDBRANCH  10  11
BRANCH  10  20
HETATM   20  C   UNL     1     -10.492   9.581  70.079  1.00  0.00    -0.283 A  
HETATM   21  C   UNL     1     -10.321  11.977  69.581  1.00  0.00     0.692 A  
HETATM   22  C   UNL     1     -11.276  11.189  71.776  1.00  0.00     3.315 A  
HETATM   23  C   UNL     1     -10.028  10.705  69.261  1.00  0.00    -0.215 A  
HETATM   24  C   UNL     1     -10.940   9.936  71.435  1.00  0.00    -0.117 A  
HETATM   25  C   UNL     1     -11.174  12.305  70.777  1.00  0.00     1.787 A  
BRANCH  25  26
HETATM   26  N   UNL     1     -11.761  13.463  70.932  1.00  0.00     0.140 NA 
HETATM   27  C   UNL     1     -12.362  13.927  72.233  1.00  0.00     0.099 C  
HETATM   28  C   UNL     1     -11.889  14.514  69.870  1.00  0.00    -0.317 C  
ENDBRANCH  25  26
ENDBRANCH  10  20
ENDBRANCH   7  10
ENDBRANCH   2   4
TORSDOF 6
ENDMDL
MODEL      150
REMARK 921   NORMALIZED FREE ENERGY PREDICTED BY IDOCK:   10.24 KCAL/MOL
REMARK 922        TOTAL FREE ENERGY PREDICTED BY IDOCK:   12.40 KCAL/MOL
REMARK 923 INTER-LIGAND FREE ENERGY PREDICTED BY IDOCK:   13.90 KCAL/MOL
REMARK 924 INTRA-LIGAND FREE ENERGY PREDICTED BY IDOCK:   -1.51 KCAL/MOL
REMARK 927      BINDING AFFINITY PREDICTED BY RF-SCORE:    0.00 PKD
ROOT
HETATM    1  C   UNL     1      -8.322  14.561  72.298  1.00  0.00     7.095 C  
HETATM    2  N   UNL     1      -7.865  14.355  70.925  1.00  0.00     2.119 NA 
HETATM    3  C   UNL     1      -7.272  15.518  70.264  1.00  0.00     0.398 C  
ENDROOT
BRANCH   2   4
HETATM    4  C   UNL     1      -7.609  13.072  70.444  1.00  0.00     3.046 A  
HETATM    5  C   UNL     1      -6.535  12.284  70.903  1.00  0.00     1.416 A  
HETATM    6  C   UNL     1      -6.250  11.007  70.379  1.00  0.00    -0.106 A  
HETATM    7  C   UNL     1      -7.048  10.453  69.381  1.00  0.00    -0.102 A  
HETATM    8  C   UNL     1      -8.152  11.191  68.945  1.00  0.00    -0.115 A  
HETATM    9  C   UNL     1      -8.422  12.467  69.469  1.00  0.00     1.436 A  
BRANCH   7  10
HETATM   10  C   UNL     1      -6.726   9.151  68.717  1.00  0.00    -0.053 C  
BRANCH  10  11
HETATM   11  C   UNL     1      -6.839   7.891  69.512  1.00  0.00    -0.047 A  
HETATM   12  C   UNL     1      -5.797   5.988  70.617  1.00  0.00    -0.022 A  
HETATM   13  C   UNL     1      -5.713   7.112  69.771  1.00  0.00    -0.023 A  
HETATM   14  C   UNL     1      -8.055   7.493  70.067  1.00  0.00    -0.127 A  
HETATM   15  C   UNL     1      -8.126   6.361  70.900  1.00  0.00    -0.124 A  
HETATM   16  C   UNL     1      -6.999   5.587  71.226  1.00  0.00    -0.066 A  
BRANCH  16  17
HETATM   17  N   UNL     1      -7.057   4.528  72.118  1.00  0.00    -0.059 NA 
HETATM   18  C   UNL     1      -5.943   3.598  72.309  1.00  0.00    -0.009 C  
HETATM   19  C   UNL     1      -8.291   4.122  72.789  1.00  0.00    -0.097 C  
ENDBRANCH  16  17
ENDBRANCH  10  11
BRANCH  10  20
HETATM   20  C   UNL     1      -6.240   9.093  67.438  1.00  0.00    -0.058 A  
HETATM   21  C   UNL     1      -6.120   7.921  65.286  1.00  0.00    -0.038 A  
HETATM   22  C   UNL     1      -5.306  10.296  65.499  1.00  0.00    -0.079 A  
HETATM   23  C   UNL     1      -6.344   7.888  66.611  1.00  0.00    -0.050 A  
HETATM   24  C   UNL     1      -5.514  10.215  66.822  1.00  0.00    -0.045 A  
HETATM   25  C   UNL     1      -5.788   9.210  64.583  1.00  0.00    -0.064 A  
BRANCH  25  26
HETATM   26  N   UNL     1      -5.899   9.359  63.288  1.00  0.00    -0.088 NA 
HETATM   27  C   UNL     1      -6.176   8.223  62.338  1.00  0.00    -0.087 C  
HETATM   28  C   UNL     1      -5.813  10.667  62.560  1.00  0.00    -0.148 C  
ENDBRANCH  25  26
ENDBRANCH  10  20
ENDBRANCH   7  10
ENDBRANCH   2   4
TORSDOF 6
ENDMDL
MODEL      151
REMARK 921   NORMALIZED FREE ENERGY PREDICTED BY IDOCK:   10.73 KCAL/MOL
REMARK 922        TOTAL FREE ENERGY PREDICTED BY IDOCK:   13.06 KCAL/MOL
REMARK 923 INTER-LIGAND FREE ENERGY PREDICTED BY IDOCK:   14.15 KCAL/MOL
REMARK 924 INTRA-LIGAND FREE ENERGY PREDICTED BY IDOCK:   -1.09 KCAL/MOL
REMARK 927      BINDING AFFINITY PREDICTED BY RF-SCORE:    0.00 PKD
ROOT
HETATM    1  C   UNL     1      -6.804  10.052  73.900  1.00  0.00     2.239 C  
HETATM    2  N   UNL     1      -7.061   9.445  72.594  1.00  0.00     0.207 NA 
HETATM    3  C   UNL     1      -7.434   8.031  72.606  1.00  0.00    -0.113 C  
ENDROOT
BRANCH   2   4
HETATM    4  C   UNL     1      -7.357  10.237  71.486  1.00  0.00     2.248 A  
HETATM    5  C   UNL     1      -8.393   9.929  70.582  1.00  0.00     0.309 A  
HETATM    6  C   UNL     1      -8.658  10.705  69.435  1.00  0.00    -0.046 A  
HETATM    7  C   UNL     1      -7.904  11.843  69.156  1.00  0.00     0.206 A  
HETATM    8  C   UNL     1      -6.905  12.201  70.065  1.00  0.00     0.463 A  
HETATM    9  C   UNL     1      -6.644  11.415  71.201  1.00  0.00     1.869 A  
BRANCH   7  10
HETATM   10  C   UNL     1      -8.073  12.637  67.900  1.00  0.00    -0.165 C  
BRANCH  10  11
HETATM   11  C   UNL     1      -8.769  12.005  66.738  1.00  0.00    -0.192 A  
HETATM   12  C   UNL     1     -10.071  12.204  64.690  1.00  0.00    -0.282 A  
HETATM   13  C   UNL     1      -9.513  12.779  65.849  1.00  0.00    -0.076 A  
HETATM   14  C   UNL     1      -8.644  10.641  66.475  1.00  0.00    -0.143 A  
HETATM   15  C   UNL     1      -9.218  10.079  65.320  1.00  0.00    -0.268 A  
HETATM   16  C   UNL     1      -9.927  10.842  64.376  1.00  0.00    -0.322 A  
BRANCH  16  17
HETATM   17  N   UNL     1     -10.412  10.301  63.196  1.00  0.00     0.652 NA 
HETATM   18  C   UNL     1      -9.793   9.143  62.549  1.00  0.00     1.868 C  
HETATM   19  C   UNL     1     -11.443  10.951  62.389  1.00  0.00     2.362 C  
ENDBRANCH  16  17
ENDBRANCH  10  11
BRANCH  10  20
HETATM   20  C   UNL     1      -7.525  13.883  67.753  1.00  0.00    -0.174 A  
HETATM   21  C   UNL     1      -5.792  15.314  66.770  1.00  0.00     1.448 A  
HETATM   22  C   UNL     1      -7.834  16.327  67.843  1.00  0.00    -0.154 A  
HETATM   23  C   UNL     1      -6.202  14.095  67.161  1.00  0.00     0.740 A  
HETATM   24  C   UNL     1      -8.194  15.098  68.242  1.00  0.00    -0.144 A  
HETATM   25  C   UNL     1      -6.691  16.515  66.889  1.00  0.00    -0.198 A  
BRANCH  25  26
HETATM   26  N   UNL     1      -6.483  17.624  66.226  1.00  0.00    -0.230 NA 
HETATM   27  C   UNL     1      -5.972  18.891  66.860  1.00  0.00    -0.162 C  
HETATM   28  C   UNL     1      -6.674  17.794  64.749  1.00  0.00     2.204 C  
ENDBRANCH  25  26
ENDBRANCH  10  20
ENDBRANCH   7  10
ENDBRANCH   2   4
TORSDOF 6
ENDMDL
MODEL      152
REMARK 921   NORMALIZED FREE ENERGY PREDICTED BY IDOCK:   12.54 KCAL/MOL
REMARK 922        TOTAL FREE ENERGY PREDICTED BY IDOCK:   15.51 KCAL/MOL
REMARK 923 INTER-LIGAND FREE ENERGY PREDICTED BY IDOCK:   15.64 KCAL/MOL
REMARK 924 INTRA-LIGAND FREE ENERGY PREDICTED BY IDOCK:   -0.13 KCAL/MOL
REMARK 927      BINDING AFFINITY PREDICTED BY RF-SCORE:    0.00 PKD
ROOT
HETATM    1  C   UNL     1      -8.822   6.573  72.839  1.00  0.00    -0.122 C  
HETATM    2  N   UNL     1      -9.963   6.302  71.966  1.00  0.00    -0.168 NA 
HETATM    3  C   UNL     1     -11.283   6.386  72.591  1.00  0.00    -0.255 C  
ENDROOT
BRANCH   2   4
HETATM    4  C   UNL     1      -9.838   6.393  70.580  1.00  0.00    -0.184 A  
HETATM    5  C   UNL     1      -8.595   6.336  69.920  1.00  0.00    -0.134 A  
HETATM    6  C   UNL     1      -8.468   6.478  68.523  1.00  0.00    -0.124 A  
HETATM    7  C   UNL     1      -9.593   6.664  67.722  1.00  0.00    -0.129 A  
HETATM    8  C   UNL     1     -10.843   6.672  68.346  1.00  0.00    -0.320 A  
HETATM    9  C   UNL     1     -10.957   6.536  69.740  1.00  0.00    -0.396 A  
BRANCH   7  10
HETATM   10  C   UNL     1      -9.504   6.928  66.252  1.00  0.00    -0.122 C  
BRANCH  10  11
HETATM   11  C   UNL     1     -10.218   8.115  65.690  1.00  0.00     1.411 A  
HETATM   12  C   UNL     1     -12.074   9.689  65.749  1.00  0.00     7.527 A  
HETATM   13  C   UNL     1     -11.456   8.504  66.196  1.00  0.00     4.327 A  
HETATM   14  C   UNL     1      -9.640   8.900  64.691  1.00  0.00     0.763 A  
HETATM   15  C   UNL     1     -10.276  10.073  64.245  1.00  0.00     0.398 A  
HETATM   16  C   UNL     1     -11.498  10.522  64.775  1.00  0.00     1.783 A  
BRANCH  16  17
HETATM   17  N   UNL     1     -12.074  11.725  64.398  1.00  0.00    -0.176 NA 
HETATM   18  C   UNL     1     -11.281  12.917  64.097  1.00  0.00    -0.389 C  
HETATM   19  C   UNL     1     -13.513  11.972  64.465  1.00  0.00     1.418 C  
ENDBRANCH  16  17
ENDBRANCH  10  11
BRANCH  10  20
HETATM   20  C   UNL     1      -8.873   6.063  65.399  1.00  0.00    -0.042 A  
HETATM   21  C   UNL     1      -7.347   4.170  65.074  1.00  0.00    -0.072 A  
HETATM   22  C   UNL     1      -8.832   4.956  63.196  1.00  0.00    -0.081 A  
HETATM   23  C   UNL     1      -7.771   5.199  65.829  1.00  0.00    -0.091 A  
HETATM   24  C   UNL     1      -9.208   5.987  63.968  1.00  0.00     1.063 A  
HETATM   25  C   UNL     1      -8.012   3.835  63.766  1.00  0.00    -0.088 A  
BRANCH  25  26
HETATM   26  N   UNL     1      -7.874   2.675  63.178  1.00  0.00    -0.067 NA 
HETATM   27  C   UNL     1      -6.643   1.816  63.306  1.00  0.00    -0.014 C  
HETATM   28  C   UNL     1      -8.917   2.007  62.333  1.00  0.00    -0.073 C  
ENDBRANCH  25  26
ENDBRANCH  10  20
ENDBRANCH   7  10
ENDBRANCH   2   4
TORSDOF 6
ENDMDL
MODEL      153
REMARK 921   NORMALIZED FREE ENERGY PREDICTED BY IDOCK:   15.04 KCAL/MOL
REMARK 922        TOTAL FREE ENERGY PREDICTED BY IDOCK:   18.88 KCAL/MOL
REMARK 923 INTER-LIGAND FREE ENERGY PREDICTED BY IDOCK:   19.66 KCAL/MOL
REMARK 924 INTRA-LIGAND FREE ENERGY PREDICTED BY IDOCK:   -0.78 KCAL/MOL
REMARK 927      BINDING AFFINITY PREDICTED BY RF-SCORE:    0.00 PKD
ROOT
HETATM    1  C   UNL     1     -11.839  10.954  73.675  1.00  0.00    12.490 C  
HETATM    2  N   UNL     1     -12.537  10.012  72.800  1.00  0.00     0.614 NA 
HETATM    3  C   UNL     1     -13.908   9.674  73.185  1.00  0.00     1.042 C  
ENDROOT
BRANCH   2   4
HETATM    4  C   UNL     1     -12.105   9.801  71.491  1.00  0.00    -0.409 A  
HETATM    5  C   UNL     1     -10.811   9.339  71.179  1.00  0.00    -0.407 A  
HETATM    6  C   UNL     1     -10.363   9.174  69.853  1.00  0.00    -0.229 A  
HETATM    7  C   UNL     1     -11.205   9.447  68.777  1.00  0.00     0.112 A  
HETATM    8  C   UNL     1     -12.511   9.856  69.060  1.00  0.00     1.589 A  
HETATM    9  C   UNL     1     -12.945  10.024  70.386  1.00  0.00    -0.052 A  
BRANCH   7  10
HETATM   10  C   UNL     1     -10.744   9.392  67.354  1.00  0.00    -0.280 C  
BRANCH  10  11
HETATM   11  C   UNL     1     -10.038   8.166  66.874  1.00  0.00    -0.367 A  
HETATM   12  C   UNL     1      -7.998   7.043  66.164  1.00  0.00    -0.110 A  
HETATM   13  C   UNL     1      -8.695   8.219  66.504  1.00  0.00    -0.157 A  
HETATM   14  C   UNL     1     -10.680   6.928  66.841  1.00  0.00    -0.386 A  
HETATM   15  C   UNL     1      -9.973   5.764  66.486  1.00  0.00    -0.202 A  
HETATM   16  C   UNL     1      -8.605   5.776  66.162  1.00  0.00    -0.135 A  
BRANCH  16  17
HETATM   17  N   UNL     1      -7.893   4.616  65.902  1.00  0.00    -0.094 NA 
HETATM   18  C   UNL     1      -8.165   3.355  66.593  1.00  0.00    -0.096 C  
HETATM   19  C   UNL     1      -6.686   4.593  65.079  1.00  0.00    -0.045 C  
ENDBRANCH  16  17
ENDBRANCH  10  11
BRANCH  10  20
HETATM   20  C   UNL     1     -10.864  10.466  66.514  1.00  0.00    -0.098 A  
HETATM   21  C   UNL     1     -11.521  12.805  66.173  1.00  0.00    -0.399 A  
HETATM   22  C   UNL     1     -10.126  11.602  64.454  1.00  0.00    -0.322 A  
HETATM   23  C   UNL     1     -11.633  11.661  66.870  1.00  0.00    -0.246 A  
HETATM   24  C   UNL     1     -10.287  10.473  65.161  1.00  0.00    -0.310 A  
HETATM   25  C   UNL     1     -10.568  12.922  65.013  1.00  0.00    -0.315 A  
BRANCH  25  26
HETATM   26  N   UNL     1     -10.174  14.074  64.534  1.00  0.00    -0.279 NA 
HETATM   27  C   UNL     1     -10.314  15.377  65.275  1.00  0.00    -0.390 C  
HETATM   28  C   UNL     1      -9.494  14.270  63.212  1.00  0.00     9.138 C  
ENDBRANCH  25  26
ENDBRANCH  10  20
ENDBRANCH   7  10
ENDBRANCH   2   4
TORSDOF 6
ENDMDL
MODEL      154
REMARK 921   NORMALIZED FREE ENERGY PREDICTED BY IDOCK:   15.88 KCAL/MOL
REMARK 922        TOTAL FREE ENERGY PREDICTED BY IDOCK:   20.02 KCAL/MOL
REMARK 923 INTER-LIGAND FREE ENERGY PREDICTED BY IDOCK:   20.59 KCAL/MOL
REMARK 924 INTRA-LIGAND FREE ENERGY PREDICTED BY IDOCK:   -0.57 KCAL/MOL
REMARK 927      BINDING AFFINITY PREDICTED BY RF-SCORE:    0.00 PKD
ROOT
HETATM    1  C   UNL     1     -14.219  16.367  62.991  1.00  0.00     8.943 C  
HETATM    2  N   UNL     1     -12.872  16.330  63.559  1.00  0.00     1.253 NA 
HETATM    3  C   UNL     1     -11.997  17.448  63.209  1.00  0.00     9.320 C  
ENDROOT
BRANCH   2   4
HETATM    4  C   UNL     1     -12.592  15.546  64.678  1.00  0.00     0.362 A  
HETATM    5  C   UNL     1     -13.478  14.564  65.164  1.00  0.00     0.973 A  
HETATM    6  C   UNL     1     -13.213  13.808  66.324  1.00  0.00     0.930 A  
HETATM    7  C   UNL     1     -12.030  13.992  67.039  1.00  0.00    -0.472 A  
HETATM    8  C   UNL     1     -11.111  14.923  66.548  1.00  0.00    -0.341 A  
HETATM    9  C   UNL     1     -11.389  15.676  65.395  1.00  0.00    -0.089 A  
BRANCH   7  10
HETATM   10  C   UNL     1     -11.751  13.295  68.333  1.00  0.00    -0.389 C  
BRANCH  10  11
HETATM   11  C   UNL     1     -11.256  11.885  68.298  1.00  0.00    -0.317 A  
HETATM   12  C   UNL     1     -10.638   9.892  67.044  1.00  0.00    -0.272 A  
HETATM   13  C   UNL     1     -11.212  11.177  67.099  1.00  0.00    -0.320 A  
HETATM   14  C   UNL     1     -10.769  11.262  69.447  1.00  0.00    -0.188 A  
HETATM   15  C   UNL     1     -10.210   9.972  69.380  1.00  0.00    -0.239 A  
HETATM   16  C   UNL     1     -10.101   9.255  68.176  1.00  0.00    -0.187 A  
BRANCH  16  17
HETATM   17  N   UNL     1      -9.468   8.024  68.099  1.00  0.00    -0.143 NA 
HETATM   18  C   UNL     1      -9.901   6.866  68.883  1.00  0.00    -0.147 C  
HETATM   19  C   UNL     1      -8.200   7.825  67.399  1.00  0.00    -0.123 C  
ENDBRANCH  16  17
ENDBRANCH  10  11
BRANCH  10  20
HETATM   20  C   UNL     1     -12.027  13.876  69.541  1.00  0.00    -0.396 A  
HETATM   21  C   UNL     1     -12.382  13.637  71.957  1.00  0.00     0.040 A  
HETATM   22  C   UNL     1     -12.017  15.910  70.934  1.00  0.00    -0.432 A  
HETATM   23  C   UNL     1     -12.384  13.093  70.727  1.00  0.00    -0.404 A  
HETATM   24  C   UNL     1     -12.055  15.336  69.723  1.00  0.00    -0.357 A  
HETATM   25  C   UNL     1     -11.976  15.069  72.177  1.00  0.00    -0.375 A  
BRANCH  25  26
HETATM   26  N   UNL     1     -11.632  15.535  73.349  1.00  0.00    -0.210 NA 
HETATM   27  C   UNL     1     -11.150  14.669  74.483  1.00  0.00     3.613 C  
HETATM   28  C   UNL     1     -11.620  16.986  73.731  1.00  0.00     0.559 C  
ENDBRANCH  25  26
ENDBRANCH  10  20
ENDBRANCH   7  10
ENDBRANCH   2   4
TORSDOF 6
ENDMDL
MODEL      155
REMARK 921   NORMALIZED FREE ENERGY PREDICTED BY IDOCK:   18.34 KCAL/MOL
REMARK 922        TOTAL FREE ENERGY PREDICTED BY IDOCK:   23.35 KCAL/MOL
REMARK 923 INTER-LIGAND FREE ENERGY PREDICTED BY IDOCK:   23.90 KCAL/MOL
REMARK 924 INTRA-LIGAND FREE ENERGY PREDICTED BY IDOCK:   -0.55 KCAL/MOL
REMARK 927      BINDING AFFINITY PREDICTED BY RF-SCORE:    0.00 PKD
ROOT
HETATM    1  C   UNL     1     -12.514   5.161  65.637  1.00  0.00     4.982 C  
HETATM    2  N   UNL     1     -11.987   6.520  65.762  1.00  0.00     4.195 NA 
HETATM    3  C   UNL     1     -12.837   7.589  65.237  1.00  0.00    16.897 C  
ENDROOT
BRANCH   2   4
HETATM    4  C   UNL     1     -10.985   6.813  66.685  1.00  0.00     0.006 A  
HETATM    5  C   UNL     1     -10.240   8.009  66.649  1.00  0.00    -0.315 A  
HETATM    6  C   UNL     1      -9.193   8.280  67.554  1.00  0.00    -0.155 A  
HETATM    7  C   UNL     1      -8.862   7.367  68.553  1.00  0.00    -0.126 A  
HETATM    8  C   UNL     1      -9.620   6.197  68.644  1.00  0.00    -0.138 A  
HETATM    9  C   UNL     1     -10.656   5.933  67.731  1.00  0.00    -0.331 A  
BRANCH   7  10
HETATM   10  C   UNL     1      -7.693   7.558  69.468  1.00  0.00    -0.104 C  
BRANCH  10  11
HETATM   11  C   UNL     1      -7.358   6.475  70.442  1.00  0.00    -0.085 A  
HETATM   12  C   UNL     1      -7.627   5.443  72.631  1.00  0.00    -0.098 A  
HETATM   13  C   UNL     1      -7.844   6.519  71.747  1.00  0.00    -0.103 A  
HETATM   14  C   UNL     1      -6.606   5.364  70.058  1.00  0.00    -0.046 A  
HETATM   15  C   UNL     1      -6.387   4.303  70.956  1.00  0.00    -0.022 A  
HETATM   16  C   UNL     1      -6.910   4.293  72.261  1.00  0.00    -0.046 A  
BRANCH  16  17
HETATM   17  N   UNL     1      -6.768   3.206  73.109  1.00  0.00    -0.032 NA 
HETATM   18  C   UNL     1      -7.912   2.439  73.603  1.00  0.00    -0.055 C  
HETATM   19  C   UNL     1      -5.500   2.857  73.748  1.00  0.00     0.000 C  
ENDBRANCH  16  17
ENDBRANCH  10  11
BRANCH  10  20
HETATM   20  C   UNL     1      -6.987   8.730  69.504  1.00  0.00    -0.055 A  
HETATM   21  C   UNL     1      -6.872  11.131  69.012  1.00  0.00    -0.092 A  
HETATM   22  C   UNL     1      -5.183  10.054  70.539  1.00  0.00    -0.047 A  
HETATM   23  C   UNL     1      -7.402   9.921  68.759  1.00  0.00    -0.078 A  
HETATM   24  C   UNL     1      -5.719   8.861  70.239  1.00  0.00    -0.033 A  
HETATM   25  C   UNL     1      -5.851  11.323  70.101  1.00  0.00    -0.133 A  
BRANCH  25  26
HETATM   26  N   UNL     1      -5.569  12.496  70.607  1.00  0.00    -0.172 NA 
HETATM   27  C   UNL     1      -5.348  12.739  72.076  1.00  0.00     0.167 C  
HETATM   28  C   UNL     1      -5.380  13.755  69.813  1.00  0.00    -0.089 C  
ENDBRANCH  25  26
ENDBRANCH  10  20
ENDBRANCH   7  10
ENDBRANCH   2   4
TORSDOF 6
ENDMDL
MODEL      156
REMARK 921   NORMALIZED FREE ENERGY PREDICTED BY IDOCK:   18.92 KCAL/MOL
REMARK 922        TOTAL FREE ENERGY PREDICTED BY IDOCK:   24.12 KCAL/MOL
REMARK 923 INTER-LIGAND FREE ENERGY PREDICTED BY IDOCK:   25.18 KCAL/MOL
REMARK 924 INTRA-LIGAND FREE ENERGY PREDICTED BY IDOCK:   -1.07 KCAL/MOL
REMARK 927      BINDING AFFINITY PREDICTED BY RF-SCORE:    0.00 PKD
ROOT
HETATM    1  C   UNL     1      -7.843  13.257  63.181  1.00  0.00    11.569 C  
HETATM    2  N   UNL     1      -7.218  11.948  63.365  1.00  0.00     2.710 NA 
HETATM    3  C   UNL     1      -6.261  11.543  62.336  1.00  0.00     0.610 C  
ENDROOT
BRANCH   2   4
HETATM    4  C   UNL     1      -7.196  11.341  64.620  1.00  0.00     1.268 A  
HETATM    5  C   UNL     1      -7.607  12.000  65.796  1.00  0.00     1.313 A  
HETATM    6  C   UNL     1      -7.536  11.399  67.069  1.00  0.00    -0.151 A  
HETATM    7  C   UNL     1      -7.066  10.095  67.216  1.00  0.00    -0.088 A  
HETATM    8  C   UNL     1      -6.701   9.401  66.059  1.00  0.00    -0.081 A  
HETATM    9  C   UNL     1      -6.769  10.012  64.796  1.00  0.00    -0.127 A  
BRANCH   7  10
HETATM   10  C   UNL     1      -6.869   9.452  68.552  1.00  0.00    -0.062 C  
BRANCH  10  11
HETATM   11  C   UNL     1      -6.934   7.962  68.649  1.00  0.00    -0.071 A  
HETATM   12  C   UNL     1      -8.225   5.898  68.663  1.00  0.00    -0.109 A  
HETATM   13  C   UNL     1      -8.162   7.306  68.689  1.00  0.00    -0.125 A  
HETATM   14  C   UNL     1      -5.774   7.186  68.640  1.00  0.00    -0.022 A  
HETATM   15  C   UNL     1      -5.853   5.781  68.627  1.00  0.00    -0.019 A  
HETATM   16  C   UNL     1      -7.077   5.090  68.611  1.00  0.00    -0.057 A  
BRANCH  16  17
HETATM   17  N   UNL     1      -7.150   3.710  68.506  1.00  0.00    -0.050 NA 
HETATM   18  C   UNL     1      -6.258   2.817  69.248  1.00  0.00    -0.028 C  
HETATM   19  C   UNL     1      -7.969   3.031  67.503  1.00  0.00    -0.076 C  
ENDBRANCH  16  17
ENDBRANCH  10  11
BRANCH  10  20
HETATM   20  C   UNL     1      -6.730  10.190  69.696  1.00  0.00    -0.076 A  
HETATM   21  C   UNL     1      -5.340  10.884  71.595  1.00  0.00     0.110 A  
HETATM   22  C   UNL     1      -7.458  12.129  71.035  1.00  0.00     5.666 A  
HETATM   23  C   UNL     1      -5.623   9.988  70.634  1.00  0.00    -0.070 A  
HETATM   24  C   UNL     1      -7.722  11.197  70.106  1.00  0.00     1.174 A  
HETATM   25  C   UNL     1      -6.128  12.160  71.728  1.00  0.00     1.985 A  
BRANCH  25  26
HETATM   26  N   UNL     1      -5.691  13.194  72.399  1.00  0.00    -0.102 NA 
HETATM   27  C   UNL     1      -5.225  13.125  73.830  1.00  0.00     0.140 C  
HETATM   28  C   UNL     1      -5.546  14.581  71.847  1.00  0.00    -0.047 C  
ENDBRANCH  25  26
ENDBRANCH  10  20
ENDBRANCH   7  10
ENDBRANCH   2   4
TORSDOF 6
ENDMDL
MODEL      157
REMARK 921   NORMALIZED FREE ENERGY PREDICTED BY IDOCK:   25.43 KCAL/MOL
REMARK 922        TOTAL FREE ENERGY PREDICTED BY IDOCK:   32.92 KCAL/MOL
REMARK 923 INTER-LIGAND FREE ENERGY PREDICTED BY IDOCK:   33.45 KCAL/MOL
REMARK 924 INTRA-LIGAND FREE ENERGY PREDICTED BY IDOCK:   -0.53 KCAL/MOL
REMARK 927      BINDING AFFINITY PREDICTED BY RF-SCORE:    0.00 PKD
ROOT
HETATM    1  C   UNL     1     -12.579   5.200  65.605  1.00  0.00     5.657 C  
HETATM    2  N   UNL     1     -12.373   6.643  65.729  1.00  0.00     5.849 NA 
HETATM    3  C   UNL     1     -13.368   7.492  65.075  1.00  0.00    19.642 C  
ENDROOT
BRANCH   2   4
HETATM    4  C   UNL     1     -11.566   7.163  66.740  1.00  0.00     1.625 A  
HETATM    5  C   UNL     1     -11.152   8.509  66.770  1.00  0.00     0.775 A  
HETATM    6  C   UNL     1     -10.295   9.019  67.767  1.00  0.00    -0.304 A  
HETATM    7  C   UNL     1      -9.831   8.200  68.794  1.00  0.00    -0.181 A  
HETATM    8  C   UNL     1     -10.269   6.874  68.817  1.00  0.00    -0.179 A  
HETATM    9  C   UNL     1     -11.117   6.374  67.814  1.00  0.00    -0.376 A  
BRANCH   7  10
HETATM   10  C   UNL     1      -8.837   8.664  69.812  1.00  0.00    -0.137 C  
BRANCH  10  11
HETATM   11  C   UNL     1      -8.044   9.899  69.532  1.00  0.00    -0.155 A  
HETATM   12  C   UNL     1      -6.078  10.980  68.587  1.00  0.00    -0.043 A  
HETATM   13  C   UNL     1      -6.777   9.815  68.959  1.00  0.00    -0.049 A  
HETATM   14  C   UNL     1      -8.571  11.167  69.777  1.00  0.00     0.893 A  
HETATM   15  C   UNL     1      -7.856  12.323  69.413  1.00  0.00     0.648 A  
HETATM   16  C   UNL     1      -6.600  12.271  68.782  1.00  0.00    -0.084 A  
BRANCH  16  17
HETATM   17  N   UNL     1      -5.942  13.408  68.343  1.00  0.00    -0.084 NA 
HETATM   18  C   UNL     1      -5.887  14.639  69.132  1.00  0.00    -0.099 C  
HETATM   19  C   UNL     1      -5.427  13.553  66.983  1.00  0.00     0.990 C  
ENDBRANCH  16  17
ENDBRANCH  10  11
BRANCH  10  20
HETATM   20  C   UNL     1      -8.565   7.937  70.940  1.00  0.00    -0.129 A  
HETATM   21  C   UNL     1      -8.345   5.750  72.030  1.00  0.00    -0.122 A  
HETATM   22  C   UNL     1      -7.469   7.832  73.146  1.00  0.00    -0.131 A  
HETATM   23  C   UNL     1      -8.858   6.506  71.043  1.00  0.00    -0.139 A  
HETATM   24  C   UNL     1      -8.022   8.555  72.160  1.00  0.00    -0.147 A  
HETATM   25  C   UNL     1      -7.412   6.336  73.056  1.00  0.00    -0.096 A  
BRANCH  25  26
HETATM   26  N   UNL     1      -6.633   5.600  73.806  1.00  0.00    -0.076 NA 
HETATM   27  C   UNL     1      -7.056   4.288  74.413  1.00  0.00    -0.070 C  
HETATM   28  C   UNL     1      -5.206   5.918  74.140  1.00  0.00    -0.028 C  
ENDBRANCH  25  26
ENDBRANCH  10  20
ENDBRANCH   7  10
ENDBRANCH   2   4
TORSDOF 6
ENDMDL
MODEL      158
REMARK 921   NORMALIZED FREE ENERGY PREDICTED BY IDOCK:   26.97 KCAL/MOL
REMARK 922        TOTAL FREE ENERGY PREDICTED BY IDOCK:   35.00 KCAL/MOL
REMARK 923 INTER-LIGAND FREE ENERGY PREDICTED BY IDOCK:   34.66 KCAL/MOL
REMARK 924 INTRA-LIGAND FREE ENERGY PREDICTED BY IDOCK:    0.34 KCAL/MOL
REMARK 927      BINDING AFFINITY PREDICTED BY RF-SCORE:    0.00 PKD
ROOT
HETATM    1  C   UNL     1     -12.633   8.501  72.773  1.00  0.00    -0.052 C  
HETATM    2  N   UNL     1     -11.417   9.278  72.541  1.00  0.00     0.313 NA 
HETATM    3  C   UNL     1     -10.161   8.638  72.933  1.00  0.00     0.202 C  
ENDROOT
BRANCH   2   4
HETATM    4  C   UNL     1     -11.409  10.334  71.630  1.00  0.00     0.531 A  
HETATM    5  C   UNL     1     -11.839  11.634  71.963  1.00  0.00     2.431 A  
HETATM    6  C   UNL     1     -11.876  12.686  71.026  1.00  0.00     0.488 A  
HETATM    7  C   UNL     1     -11.461  12.484  69.711  1.00  0.00    -0.211 A  
HETATM    8  C   UNL     1     -10.979  11.218  69.368  1.00  0.00    -0.282 A  
HETATM    9  C   UNL     1     -10.954  10.173  70.309  1.00  0.00    -0.380 A  
BRANCH   7  10
HETATM   10  C   UNL     1     -11.582  13.535  68.654  1.00  0.00    -0.365 C  
BRANCH  10  11
HETATM   11  C   UNL     1     -11.840  13.111  67.244  1.00  0.00    -0.420 A  
HETATM   12  C   UNL     1     -12.923  13.469  65.093  1.00  0.00    -0.263 A  
HETATM   13  C   UNL     1     -12.764  13.794  66.455  1.00  0.00    -0.073 A  
HETATM   14  C   UNL     1     -11.124  12.065  66.661  1.00  0.00    -0.358 A  
HETATM   15  C   UNL     1     -11.303  11.744  65.303  1.00  0.00    -0.284 A  
HETATM   16  C   UNL     1     -12.186  12.450  64.467  1.00  0.00    -0.431 A  
BRANCH  16  17
HETATM   17  N   UNL     1     -12.292  12.189  63.110  1.00  0.00    -0.399 NA 
HETATM   18  C   UNL     1     -13.488  12.525  62.335  1.00  0.00     3.714 C  
HETATM   19  C   UNL     1     -11.320  11.379  62.378  1.00  0.00     1.856 C  
ENDBRANCH  16  17
ENDBRANCH  10  11
BRANCH  10  20
HETATM   20  C   UNL     1     -11.366  14.860  68.923  1.00  0.00    -0.301 A  
HETATM   21  C   UNL     1     -11.382  17.191  68.158  1.00  0.00     0.197 A  
HETATM   22  C   UNL     1     -11.189  16.648  70.611  1.00  0.00     0.067 A  
HETATM   23  C   UNL     1     -11.317  15.879  67.872  1.00  0.00    -0.252 A  
HETATM   24  C   UNL     1     -11.097  15.351  70.284  1.00  0.00    -0.331 A  
HETATM   25  C   UNL     1     -11.546  17.673  69.574  1.00  0.00     2.620 A  
BRANCH  25  26
HETATM   26  N   UNL     1     -11.951  18.882  69.868  1.00  0.00     7.680 NA 
HETATM   27  C   UNL     1     -12.723  19.757  68.916  1.00  0.00     9.243 C  
HETATM   28  C   UNL     1     -11.753  19.560  71.191  1.00  0.00     9.713 C  
ENDBRANCH  25  26
ENDBRANCH  10  20
ENDBRANCH   7  10
ENDBRANCH   2   4
TORSDOF 6
ENDMDL
MODEL      159
REMARK 921   NORMALIZED FREE ENERGY PREDICTED BY IDOCK:   27.27 KCAL/MOL
REMARK 922        TOTAL FREE ENERGY PREDICTED BY IDOCK:   35.40 KCAL/MOL
REMARK 923 INTER-LIGAND FREE ENERGY PREDICTED BY IDOCK:   35.34 KCAL/MOL
REMARK 924 INTRA-LIGAND FREE ENERGY PREDICTED BY IDOCK:    0.06 KCAL/MOL
REMARK 927      BINDING AFFINITY PREDICTED BY RF-SCORE:    0.00 PKD
ROOT
HETATM    1  C   UNL     1      -7.655   9.174  65.767  1.00  0.00    -0.091 C  
HETATM    2  N   UNL     1      -6.817  10.366  65.896  1.00  0.00    -0.125 NA 
HETATM    3  C   UNL     1      -5.702  10.471  64.954  1.00  0.00    -0.123 C  
ENDROOT
BRANCH   2   4
HETATM    4  C   UNL     1      -7.290  11.503  66.550  1.00  0.00    -0.012 A  
HETATM    5  C   UNL     1      -7.922  12.565  65.873  1.00  0.00     1.482 A  
HETATM    6  C   UNL     1      -8.355  13.735  66.530  1.00  0.00     0.431 A  
HETATM    7  C   UNL     1      -8.189  13.881  67.906  1.00  0.00    -0.164 A  
HETATM    8  C   UNL     1      -7.613  12.819  68.609  1.00  0.00    -0.085 A  
HETATM    9  C   UNL     1      -7.178  11.661  67.942  1.00  0.00    -0.083 A  
BRANCH   7  10
HETATM   10  C   UNL     1      -8.531  15.143  68.633  1.00  0.00    -0.170 C  
BRANCH  10  11
HETATM   11  C   UNL     1      -9.252  16.225  67.895  1.00  0.00    -0.201 A  
HETATM   12  C   UNL     1     -10.815  16.924  66.164  1.00  0.00     0.009 A  
HETATM   13  C   UNL     1     -10.043  15.924  66.788  1.00  0.00    -0.276 A  
HETATM   14  C   UNL     1      -9.203  17.550  68.327  1.00  0.00    -0.277 A  
HETATM   15  C   UNL     1      -9.969  18.541  67.685  1.00  0.00    -0.362 A  
HETATM   16  C   UNL     1     -10.820  18.260  66.602  1.00  0.00    -0.031 A  
BRANCH  16  17
HETATM   17  N   UNL     1     -11.641  19.220  66.033  1.00  0.00     1.005 NA 
HETATM   18  C   UNL     1     -11.590  19.554  64.609  1.00  0.00     3.596 C  
HETATM   19  C   UNL     1     -12.474  20.124  66.824  1.00  0.00     4.335 C  
ENDBRANCH  16  17
ENDBRANCH  10  11
BRANCH  10  20
HETATM   20  C   UNL     1      -8.119  15.372  69.918  1.00  0.00     0.127 A  
HETATM   21  C   UNL     1      -7.964  14.608  72.244  1.00  0.00     5.887 A  
HETATM   22  C   UNL     1      -6.585  16.558  71.441  1.00  0.00     3.039 A  
HETATM   23  C   UNL     1      -8.575  14.559  71.047  1.00  0.00     3.548 A  
HETATM   24  C   UNL     1      -7.239  16.497  70.271  1.00  0.00     1.330 A  
HETATM   25  C   UNL     1      -6.755  15.477  72.468  1.00  0.00     3.743 A  
BRANCH  25  26
HETATM   26  N   UNL     1      -5.938  15.307  73.474  1.00  0.00     1.103 NA 
HETATM   27  C   UNL     1      -5.703  16.342  74.543  1.00  0.00     8.023 C  
HETATM   28  C   UNL     1      -5.151  14.059  73.745  1.00  0.00    -0.322 C  
ENDBRANCH  25  26
ENDBRANCH  10  20
ENDBRANCH   7  10
ENDBRANCH   2   4
TORSDOF 6
ENDMDL
MODEL      160
REMARK 921   NORMALIZED FREE ENERGY PREDICTED BY IDOCK:   35.58 KCAL/MOL
REMARK 922        TOTAL FREE ENERGY PREDICTED BY IDOCK:   46.62 KCAL/MOL
REMARK 923 INTER-LIGAND FREE ENERGY PREDICTED BY IDOCK:   47.85 KCAL/MOL
REMARK 924 INTRA-LIGAND FREE ENERGY PREDICTED BY IDOCK:   -1.23 KCAL/MOL
REMARK 927      BINDING AFFINITY PREDICTED BY RF-SCORE:    0.00 PKD
ROOT
HETATM    1  C   UNL     1      -9.050  10.376  63.477  1.00  0.00    -0.249 C  
HETATM    2  N   UNL     1      -8.851  11.741  63.963  1.00  0.00     0.520 NA 
HETATM    3  C   UNL     1      -8.670  12.767  62.936  1.00  0.00     4.885 C  
ENDROOT
BRANCH   2   4
HETATM    4  C   UNL     1      -9.241  12.102  65.252  1.00  0.00     0.235 A  
HETATM    5  C   UNL     1     -10.230  11.405  65.974  1.00  0.00    -0.289 A  
HETATM    6  C   UNL     1     -10.657  11.803  67.257  1.00  0.00    -0.259 A  
HETATM    7  C   UNL     1     -10.090  12.911  67.884  1.00  0.00    -0.232 A  
HETATM    8  C   UNL     1      -9.069  13.588  67.211  1.00  0.00    -0.225 A  
HETATM    9  C   UNL     1      -8.658  13.187  65.929  1.00  0.00     1.056 A  
BRANCH   7  10
HETATM   10  C   UNL     1     -10.581  13.438  69.196  1.00  0.00    -0.035 C  
BRANCH  10  11
HETATM   11  C   UNL     1     -10.834  12.473  70.309  1.00  0.00     1.427 A  
HETATM   12  C   UNL     1     -12.202  10.742  71.336  1.00  0.00    -0.374 A  
HETATM   13  C   UNL     1     -12.014  11.734  70.354  1.00  0.00    -0.422 A  
HETATM   14  C   UNL     1      -9.874  12.240  71.295  1.00  0.00    10.611 A  
HETATM   15  C   UNL     1     -10.082  11.254  72.277  1.00  0.00    12.659 A  
HETATM   16  C   UNL     1     -11.237  10.454  72.316  1.00  0.00     3.160 A  
BRANCH  16  17
HETATM   17  N   UNL     1     -11.397   9.424  73.229  1.00  0.00     3.007 NA 
HETATM   18  C   UNL     1     -10.410   9.137  74.272  1.00  0.00     8.331 C  
HETATM   19  C   UNL     1     -12.444   8.411  73.110  1.00  0.00     0.820 C  
ENDBRANCH  16  17
ENDBRANCH  10  11
BRANCH  10  20
HETATM   20  C   UNL     1     -10.897  14.758  69.372  1.00  0.00    -0.269 A  
HETATM   21  C   UNL     1     -10.829  16.766  70.779  1.00  0.00     0.487 A  
HETATM   22  C   UNL     1     -11.459  16.928  68.345  1.00  0.00     0.171 A  
HETATM   23  C   UNL     1     -10.787  15.427  70.670  1.00  0.00    -0.318 A  
HETATM   24  C   UNL     1     -11.437  15.588  68.283  1.00  0.00    -0.359 A  
HETATM   25  C   UNL     1     -10.955  17.645  69.564  1.00  0.00     0.865 A  
BRANCH  25  26
HETATM   26  N   UNL     1     -10.661  18.919  69.578  1.00  0.00     0.681 NA 
HETATM   27  C   UNL     1      -9.981  19.606  70.733  1.00  0.00     1.618 C  
HETATM   28  C   UNL     1     -10.910  19.874  68.448  1.00  0.00     0.348 C  
ENDBRANCH  25  26
ENDBRANCH  10  20
ENDBRANCH   7  10
ENDBRANCH   2   4
TORSDOF 6
ENDMDL
MODEL      161
REMARK 921   NORMALIZED FREE ENERGY PREDICTED BY IDOCK:   38.00 KCAL/MOL
REMARK 922        TOTAL FREE ENERGY PREDICTED BY IDOCK:   49.90 KCAL/MOL
REMARK 923 INTER-LIGAND FREE ENERGY PREDICTED BY IDOCK:   50.85 KCAL/MOL
REMARK 924 INTRA-LIGAND FREE ENERGY PREDICTED BY IDOCK:   -0.95 KCAL/MOL
REMARK 927      BINDING AFFINITY PREDICTED BY RF-SCORE:    0.00 PKD
ROOT
HETATM    1  C   UNL     1      -7.077  16.207  68.148  1.00  0.00    -0.131 C  
HETATM    2  N   UNL     1      -6.666  15.125  69.042  1.00  0.00    -0.113 NA 
HETATM    3  C   UNL     1      -5.982  15.532  70.270  1.00  0.00    -0.109 C  
ENDROOT
BRANCH   2   4
HETATM    4  C   UNL     1      -7.257  13.865  68.955  1.00  0.00    -0.078 A  
HETATM    5  C   UNL     1      -7.299  12.965  70.039  1.00  0.00     1.336 A  
HETATM    6  C   UNL     1      -7.854  11.674  69.933  1.00  0.00     1.324 A  
HETATM    7  C   UNL     1      -8.413  11.235  68.735  1.00  0.00    -0.112 A  
HETATM    8  C   UNL     1      -8.432  12.128  67.660  1.00  0.00    -0.163 A  
HETATM    9  C   UNL     1      -7.869  13.411  67.774  1.00  0.00    -0.158 A  
BRANCH   7  10
HETATM   10  C   UNL     1      -8.916   9.839  68.539  1.00  0.00    -0.124 C  
BRANCH  10  11
HETATM   11  C   UNL     1      -8.318   8.739  69.355  1.00  0.00    -0.117 A  
HETATM   12  C   UNL     1      -8.560   6.673  70.619  1.00  0.00    -0.142 A  
HETATM   13  C   UNL     1      -9.128   7.775  69.950  1.00  0.00    -0.147 A  
HETATM   14  C   UNL     1      -6.935   8.610  69.491  1.00  0.00    -0.048 A  
HETATM   15  C   UNL     1      -6.382   7.511  70.174  1.00  0.00    -0.034 A  
HETATM   16  C   UNL     1      -7.171   6.493  70.737  1.00  0.00    -0.071 A  
BRANCH  16  17
HETATM   17  N   UNL     1      -6.620   5.367  71.328  1.00  0.00    -0.038 NA 
HETATM   18  C   UNL     1      -7.428   4.216  71.735  1.00  0.00    -0.064 C  
HETATM   19  C   UNL     1      -5.233   5.308  71.785  1.00  0.00    -0.005 C  
ENDBRANCH  16  17
ENDBRANCH  10  11
BRANCH  10  20
HETATM   20  C   UNL     1      -9.833   9.530  67.571  1.00  0.00    -0.213 A  
HETATM   21  C   UNL     1     -12.173   9.154  66.935  1.00  0.00     7.345 A  
HETATM   22  C   UNL     1     -10.398   9.461  65.172  1.00  0.00     1.016 A  
HETATM   23  C   UNL     1     -11.222   9.184  67.885  1.00  0.00     0.334 A  
HETATM   24  C   UNL     1      -9.475   9.454  66.146  1.00  0.00    -0.287 A  
HETATM   25  C   UNL     1     -11.860   9.513  65.507  1.00  0.00     6.820 A  
BRANCH  25  26
HETATM   26  N   UNL     1     -12.786   9.828  64.638  1.00  0.00    10.623 NA 
HETATM   27  C   UNL     1     -13.743  10.976  64.819  1.00  0.00     6.830 C  
HETATM   28  C   UNL     1     -13.008   9.137  63.326  1.00  0.00    17.380 C  
ENDBRANCH  25  26
ENDBRANCH  10  20
ENDBRANCH   7  10
ENDBRANCH   2   4
TORSDOF 6
ENDMDL
MODEL      162
REMARK 921   NORMALIZED FREE ENERGY PREDICTED BY IDOCK:   63.81 KCAL/MOL
REMARK 922        TOTAL FREE ENERGY PREDICTED BY IDOCK:   84.76 KCAL/MOL
REMARK 923 INTER-LIGAND FREE ENERGY PREDICTED BY IDOCK:   85.86 KCAL/MOL
REMARK 924 INTRA-LIGAND FREE ENERGY PREDICTED BY IDOCK:   -1.10 KCAL/MOL
REMARK 927      BINDING AFFINITY PREDICTED BY RF-SCORE:    0.00 PKD
ROOT
HETATM    1  C   UNL     1      -7.273   6.799  71.909  1.00  0.00    -0.080 C  
HETATM    2  N   UNL     1      -6.577   7.380  70.761  1.00  0.00    -0.043 NA 
HETATM    3  C   UNL     1      -5.822   6.445  69.927  1.00  0.00    -0.014 C  
ENDROOT
BRANCH   2   4
HETATM    4  C   UNL     1      -6.954   8.623  70.253  1.00  0.00    -0.041 A  
HETATM    5  C   UNL     1      -6.168   9.341  69.331  1.00  0.00    -0.040 A  
HETATM    6  C   UNL     1      -6.528  10.619  68.857  1.00  0.00    -0.049 A  
HETATM    7  C   UNL     1      -7.711  11.226  69.276  1.00  0.00     0.010 A  
HETATM    8  C   UNL     1      -8.535  10.512  70.150  1.00  0.00     0.608 A  
HETATM    9  C   UNL     1      -8.162   9.241  70.621  1.00  0.00    -0.224 A  
BRANCH   7  10
HETATM   10  C   UNL     1      -8.085  12.622  68.888  1.00  0.00     0.212 C  
BRANCH  10  11
HETATM   11  C   UNL     1      -8.808  13.474  69.881  1.00  0.00     2.351 A  
HETATM   12  C   UNL     1     -10.768  14.765  70.529  1.00  0.00     0.095 A  
HETATM   13  C   UNL     1     -10.030  14.059  69.558  1.00  0.00     0.448 A  
HETATM   14  C   UNL     1      -8.314  13.656  71.173  1.00  0.00     7.202 A  
HETATM   15  C   UNL     1      -9.055  14.374  72.129  1.00  0.00     7.458 A  
HETATM   16  C   UNL     1     -10.317  14.929  71.850  1.00  0.00     2.096 A  
BRANCH  16  17
HETATM   17  N   UNL     1     -11.083  15.556  72.819  1.00  0.00     0.168 NA 
HETATM   18  C   UNL     1     -12.413  15.079  73.201  1.00  0.00    -0.435 C  
HETATM   19  C   UNL     1     -10.731  16.853  73.394  1.00  0.00     4.503 C  
ENDBRANCH  16  17
ENDBRANCH  10  11
BRANCH  10  20
HETATM   20  C   UNL     1      -7.873  13.103  67.625  1.00  0.00    -0.169 A  
HETATM   21  C   UNL     1      -7.935  12.741  65.199  1.00  0.00     4.052 A  
HETATM   22  C   UNL     1      -7.657  15.061  66.142  1.00  0.00     2.190 A  
HETATM   23  C   UNL     1      -7.868  12.236  66.444  1.00  0.00     0.405 A  
HETATM   24  C   UNL     1      -7.564  14.518  67.365  1.00  0.00    -0.209 A  
HETATM   25  C   UNL     1      -8.057  14.222  64.963  1.00  0.00     7.230 A  
BRANCH  25  26
HETATM   26  N   UNL     1      -8.463  14.727  63.827  1.00  0.00    11.356 NA 
HETATM   27  C   UNL     1      -7.680  15.743  63.037  1.00  0.00    27.561 C  
HETATM   28  C   UNL     1      -9.730  14.348  63.119  1.00  0.00     9.219 C  
ENDBRANCH  25  26
ENDBRANCH  10  20
ENDBRANCH   7  10
ENDBRANCH   2   4
TORSDOF 6
ENDMDL
