MODEL        1
REMARK 921   NORMALIZED FREE ENERGY PREDICTED BY IDOCK:   -4.56 KCAL/MOL
REMARK 922        TOTAL FREE ENERGY PREDICTED BY IDOCK:   -5.94 KCAL/MOL
REMARK 923 INTER-LIGAND FREE ENERGY PREDICTED BY IDOCK:   -5.63 KCAL/MOL
REMARK 924 INTRA-LIGAND FREE ENERGY PREDICTED BY IDOCK:   -0.32 KCAL/MOL
REMARK 927      BINDING AFFINITY PREDICTED BY RF-SCORE:    0.00 PKD
ROOT
HETATM    1  C   UNL     1     -12.435  15.938  74.428  1.00  0.00    -0.767 C  
HETATM    2  C   UNL     1     -12.479  15.277  73.078  1.00  0.00    -0.532 C  
HETATM    3  C   UNL     1     -11.673  15.912  71.978  1.00  0.00    -0.588 C  
HETATM    4  C   UNL     1     -13.229  14.172  72.888  1.00  0.00    -0.553 C  
ENDROOT
BRANCH   4   5
HETATM    5  C   UNL     1     -13.325  13.375  71.614  1.00  0.00    -0.420 C  
BRANCH   5   6
HETATM    6  C   UNL     1     -13.281  11.863  71.868  1.00  0.00    -0.467 C  
BRANCH   6   7
HETATM    7  C   UNL     1     -12.331  11.125  70.941  1.00  0.00    -0.500 C  
HETATM    8  C   UNL     1     -11.803   9.801  71.428  1.00  0.00    -0.488 C  
HETATM    9  C   UNL     1     -11.949  11.663  69.767  1.00  0.00    -0.402 C  
BRANCH   9  10
HETATM   10  C   UNL     1     -10.985  11.082  68.782  1.00  0.00    -0.221 C  
HETATM   11  O   UNL     1     -11.729  10.481  67.733  1.00  0.00    -0.687 OA 
HETATM   12  H   UNL     1     -11.116  10.112  67.107  1.00  0.00     0.000 HD 
ENDBRANCH   9  10
ENDBRANCH   6   7
ENDBRANCH   5   6
ENDBRANCH   4   5
TORSDOF 4
ENDMDL
MODEL        2
REMARK 921   NORMALIZED FREE ENERGY PREDICTED BY IDOCK:   -4.48 KCAL/MOL
REMARK 922        TOTAL FREE ENERGY PREDICTED BY IDOCK:   -5.85 KCAL/MOL
REMARK 923 INTER-LIGAND FREE ENERGY PREDICTED BY IDOCK:   -5.67 KCAL/MOL
REMARK 924 INTRA-LIGAND FREE ENERGY PREDICTED BY IDOCK:   -0.18 KCAL/MOL
REMARK 927      BINDING AFFINITY PREDICTED BY RF-SCORE:    0.00 PKD
ROOT
HETATM    1  C   UNL     1     -13.320  15.700  72.822  1.00  0.00    -0.640 C  
HETATM    2  C   UNL     1     -13.119  14.564  71.857  1.00  0.00    -0.427 C  
HETATM    3  C   UNL     1     -13.660  13.220  72.258  1.00  0.00    -0.703 C  
HETATM    4  C   UNL     1     -12.465  14.770  70.695  1.00  0.00    -0.407 C  
ENDROOT
BRANCH   4   5
HETATM    5  C   UNL     1     -12.240  13.747  69.612  1.00  0.00    -0.359 C  
BRANCH   5   6
HETATM    6  C   UNL     1     -11.782  14.385  68.295  1.00  0.00    -0.376 C  
BRANCH   6   7
HETATM    7  C   UNL     1     -11.889  13.448  67.104  1.00  0.00    -0.429 C  
HETATM    8  C   UNL     1     -11.442  12.026  67.320  1.00  0.00    -0.403 C  
HETATM    9  C   UNL     1     -12.316  13.893  65.907  1.00  0.00    -0.517 C  
BRANCH   9  10
HETATM   10  C   UNL     1     -12.423  13.106  64.640  1.00  0.00    -0.373 C  
HETATM   11  O   UNL     1     -12.364  14.009  63.548  1.00  0.00    -1.032 OA 
HETATM   12  H   UNL     1     -12.432  13.509  62.743  1.00  0.00     0.000 HD 
ENDBRANCH   9  10
ENDBRANCH   6   7
ENDBRANCH   5   6
ENDBRANCH   4   5
TORSDOF 4
ENDMDL
MODEL        3
REMARK 921   NORMALIZED FREE ENERGY PREDICTED BY IDOCK:   -4.45 KCAL/MOL
REMARK 922        TOTAL FREE ENERGY PREDICTED BY IDOCK:   -5.81 KCAL/MOL
REMARK 923 INTER-LIGAND FREE ENERGY PREDICTED BY IDOCK:   -5.57 KCAL/MOL
REMARK 924 INTRA-LIGAND FREE ENERGY PREDICTED BY IDOCK:   -0.24 KCAL/MOL
REMARK 927      BINDING AFFINITY PREDICTED BY RF-SCORE:    0.00 PKD
ROOT
HETATM    1  C   UNL     1     -11.613   7.691  72.421  1.00  0.00    -0.386 C  
HETATM    2  C   UNL     1     -12.488   8.769  71.843  1.00  0.00    -0.434 C  
HETATM    3  C   UNL     1     -13.963   8.485  71.764  1.00  0.00    -0.491 C  
HETATM    4  C   UNL     1     -11.943   9.924  71.409  1.00  0.00    -0.489 C  
ENDROOT
BRANCH   4   5
HETATM    5  C   UNL     1     -12.697  11.108  70.862  1.00  0.00    -0.438 C  
BRANCH   5   6
HETATM    6  C   UNL     1     -13.269  11.998  71.972  1.00  0.00    -0.481 C  
BRANCH   6   7
HETATM    7  C   UNL     1     -13.005  13.477  71.754  1.00  0.00    -0.439 C  
HETATM    8  C   UNL     1     -12.223  13.850  70.521  1.00  0.00    -0.443 C  
HETATM    9  C   UNL     1     -13.412  14.395  72.651  1.00  0.00    -0.605 C  
BRANCH   9  10
HETATM   10  C   UNL     1     -13.180  15.871  72.598  1.00  0.00    -0.472 C  
HETATM   11  O   UNL     1     -13.574  16.430  73.841  1.00  0.00    -0.891 OA 
HETATM   12  H   UNL     1     -13.426  17.368  73.807  1.00  0.00     0.000 HD 
ENDBRANCH   9  10
ENDBRANCH   6   7
ENDBRANCH   5   6
ENDBRANCH   4   5
TORSDOF 4
ENDMDL
MODEL        4
REMARK 921   NORMALIZED FREE ENERGY PREDICTED BY IDOCK:   -4.42 KCAL/MOL
REMARK 922        TOTAL FREE ENERGY PREDICTED BY IDOCK:   -5.77 KCAL/MOL
REMARK 923 INTER-LIGAND FREE ENERGY PREDICTED BY IDOCK:   -5.66 KCAL/MOL
REMARK 924 INTRA-LIGAND FREE ENERGY PREDICTED BY IDOCK:   -0.11 KCAL/MOL
REMARK 927      BINDING AFFINITY PREDICTED BY RF-SCORE:    0.00 PKD
ROOT
HETATM    1  C   UNL     1     -14.379  15.092  71.829  1.00  0.00    -0.696 C  
HETATM    2  C   UNL     1     -12.949  15.229  71.381  1.00  0.00    -0.503 C  
HETATM    3  C   UNL     1     -12.024  16.013  72.271  1.00  0.00    -0.633 C  
HETATM    4  C   UNL     1     -12.547  14.675  70.219  1.00  0.00    -0.370 C  
ENDROOT
BRANCH   4   5
HETATM    5  C   UNL     1     -11.143  14.682  69.674  1.00  0.00    -0.284 C  
BRANCH   5   6
HETATM    6  C   UNL     1     -10.971  15.677  68.520  1.00  0.00    -0.303 C  
BRANCH   6   7
HETATM    7  C   UNL     1     -11.245  15.070  67.156  1.00  0.00    -0.336 C  
HETATM    8  C   UNL     1     -11.802  13.671  67.137  1.00  0.00    -0.435 C  
HETATM    9  C   UNL     1     -10.952  15.742  66.025  1.00  0.00    -0.177 C  
BRANCH   9  10
HETATM   10  C   UNL     1     -11.116  15.255  64.621  1.00  0.00    -0.332 C  
HETATM   11  O   UNL     1     -11.467  16.360  63.804  1.00  0.00    -1.590 OA 
HETATM   12  H   UNL     1     -11.571  16.051  62.912  1.00  0.00     0.000 HD 
ENDBRANCH   9  10
ENDBRANCH   6   7
ENDBRANCH   5   6
ENDBRANCH   4   5
TORSDOF 4
ENDMDL
MODEL        5
REMARK 921   NORMALIZED FREE ENERGY PREDICTED BY IDOCK:   -4.41 KCAL/MOL
REMARK 922        TOTAL FREE ENERGY PREDICTED BY IDOCK:   -5.76 KCAL/MOL
REMARK 923 INTER-LIGAND FREE ENERGY PREDICTED BY IDOCK:   -5.45 KCAL/MOL
REMARK 924 INTRA-LIGAND FREE ENERGY PREDICTED BY IDOCK:   -0.32 KCAL/MOL
REMARK 927      BINDING AFFINITY PREDICTED BY RF-SCORE:    0.00 PKD
ROOT
HETATM    1  C   UNL     1     -13.771  13.460  72.231  1.00  0.00    -0.705 C  
HETATM    2  C   UNL     1     -12.838  13.973  71.168  1.00  0.00    -0.427 C  
HETATM    3  C   UNL     1     -12.565  15.452  71.151  1.00  0.00    -0.485 C  
HETATM    4  C   UNL     1     -12.296  13.121  70.273  1.00  0.00    -0.319 C  
ENDROOT
BRANCH   4   5
HETATM    5  C   UNL     1     -11.308  13.481  69.194  1.00  0.00    -0.333 C  
BRANCH   5   6
HETATM    6  C   UNL     1     -11.716  12.929  67.823  1.00  0.00    -0.412 C  
BRANCH   6   7
HETATM    7  C   UNL     1     -11.630  13.958  66.710  1.00  0.00    -0.398 C  
HETATM    8  C   UNL     1     -10.935  15.253  67.039  1.00  0.00    -0.324 C  
HETATM    9  C   UNL     1     -12.196  13.731  65.509  1.00  0.00    -0.470 C  
BRANCH   9  10
HETATM   10  C   UNL     1     -12.237  14.666  64.342  1.00  0.00    -0.452 C  
HETATM   11  O   UNL     1     -12.373  13.896  63.159  1.00  0.00    -1.122 OA 
HETATM   12  H   UNL     1     -12.400  14.490  62.418  1.00  0.00     0.000 HD 
ENDBRANCH   9  10
ENDBRANCH   6   7
ENDBRANCH   5   6
ENDBRANCH   4   5
TORSDOF 4
ENDMDL
MODEL        6
REMARK 921   NORMALIZED FREE ENERGY PREDICTED BY IDOCK:   -4.38 KCAL/MOL
REMARK 922        TOTAL FREE ENERGY PREDICTED BY IDOCK:   -5.72 KCAL/MOL
REMARK 923 INTER-LIGAND FREE ENERGY PREDICTED BY IDOCK:   -5.47 KCAL/MOL
REMARK 924 INTRA-LIGAND FREE ENERGY PREDICTED BY IDOCK:   -0.26 KCAL/MOL
REMARK 927      BINDING AFFINITY PREDICTED BY RF-SCORE:    0.00 PKD
ROOT
HETATM    1  C   UNL     1     -12.310  13.472  65.624  1.00  0.00    -0.522 C  
HETATM    2  C   UNL     1     -11.870  13.317  67.054  1.00  0.00    -0.442 C  
HETATM    3  C   UNL     1     -11.391  11.957  67.480  1.00  0.00    -0.381 C  
HETATM    4  C   UNL     1     -11.928  14.367  67.898  1.00  0.00    -0.348 C  
ENDROOT
BRANCH   4   5
HETATM    5  C   UNL     1     -11.472  14.376  69.333  1.00  0.00    -0.330 C  
BRANCH   5   6
HETATM    6  C   UNL     1     -11.673  15.742  70.001  1.00  0.00    -0.362 C  
BRANCH   6   7
HETATM    7  C   UNL     1     -12.431  15.664  71.314  1.00  0.00    -0.503 C  
HETATM    8  C   UNL     1     -13.878  15.253  71.237  1.00  0.00    -0.562 C  
HETATM    9  C   UNL     1     -11.840  15.998  72.478  1.00  0.00    -0.630 C  
BRANCH   9  10
HETATM   10  C   UNL     1     -12.471  16.021  73.834  1.00  0.00    -0.612 C  
HETATM   11  O   UNL     1     -12.076  14.849  74.528  1.00  0.00    -0.773 OA 
HETATM   12  H   UNL     1     -12.477  14.863  75.390  1.00  0.00     0.000 HD 
ENDBRANCH   9  10
ENDBRANCH   6   7
ENDBRANCH   5   6
ENDBRANCH   4   5
TORSDOF 4
ENDMDL
MODEL        7
REMARK 921   NORMALIZED FREE ENERGY PREDICTED BY IDOCK:   -4.34 KCAL/MOL
REMARK 922        TOTAL FREE ENERGY PREDICTED BY IDOCK:   -5.68 KCAL/MOL
REMARK 923 INTER-LIGAND FREE ENERGY PREDICTED BY IDOCK:   -5.43 KCAL/MOL
REMARK 924 INTRA-LIGAND FREE ENERGY PREDICTED BY IDOCK:   -0.25 KCAL/MOL
REMARK 927      BINDING AFFINITY PREDICTED BY RF-SCORE:    0.00 PKD
ROOT
HETATM    1  C   UNL     1     -12.589  16.031  74.080  1.00  0.00    -0.714 C  
HETATM    2  C   UNL     1     -12.537  15.209  72.821  1.00  0.00    -0.487 C  
HETATM    3  C   UNL     1     -11.780  15.787  71.657  1.00  0.00    -0.542 C  
HETATM    4  C   UNL     1     -13.163  14.016  72.764  1.00  0.00    -0.580 C  
ENDROOT
BRANCH   4   5
HETATM    5  C   UNL     1     -13.150  13.064  71.597  1.00  0.00    -0.440 C  
BRANCH   5   6
HETATM    6  C   UNL     1     -13.362  11.608  72.031  1.00  0.00    -0.405 C  
BRANCH   6   7
HETATM    7  C   UNL     1     -12.540  10.616  71.227  1.00  0.00    -0.533 C  
HETATM    8  C   UNL     1     -12.120  11.047  69.846  1.00  0.00    -0.435 C  
HETATM    9  C   UNL     1     -12.251   9.395  71.717  1.00  0.00    -0.465 C  
BRANCH   9  10
HETATM   10  C   UNL     1     -11.502   8.301  71.025  1.00  0.00    -0.275 C  
HETATM   11  O   UNL     1     -12.444   7.384  70.493  1.00  0.00    -0.556 OA 
HETATM   12  H   UNL     1     -11.968   6.689  70.053  1.00  0.00     0.000 HD 
ENDBRANCH   9  10
ENDBRANCH   6   7
ENDBRANCH   5   6
ENDBRANCH   4   5
TORSDOF 4
ENDMDL
MODEL        8
REMARK 921   NORMALIZED FREE ENERGY PREDICTED BY IDOCK:   -4.33 KCAL/MOL
REMARK 922        TOTAL FREE ENERGY PREDICTED BY IDOCK:   -5.66 KCAL/MOL
REMARK 923 INTER-LIGAND FREE ENERGY PREDICTED BY IDOCK:   -5.40 KCAL/MOL
REMARK 924 INTRA-LIGAND FREE ENERGY PREDICTED BY IDOCK:   -0.27 KCAL/MOL
REMARK 927      BINDING AFFINITY PREDICTED BY RF-SCORE:    0.00 PKD
ROOT
HETATM    1  C   UNL     1     -12.503  16.162  73.576  1.00  0.00    -0.671 C  
HETATM    2  C   UNL     1     -12.811  15.769  72.157  1.00  0.00    -0.510 C  
HETATM    3  C   UNL     1     -14.204  15.284  71.867  1.00  0.00    -0.681 C  
HETATM    4  C   UNL     1     -11.854  15.847  71.209  1.00  0.00    -0.502 C  
ENDROOT
BRANCH   4   5
HETATM    5  C   UNL     1     -12.031  15.543  69.745  1.00  0.00    -0.384 C  
BRANCH   5   6
HETATM    6  C   UNL     1     -11.016  14.512  69.237  1.00  0.00    -0.282 C  
BRANCH   6   7
HETATM    7  C   UNL     1     -11.596  13.548  68.217  1.00  0.00    -0.381 C  
HETATM    8  C   UNL     1     -11.905  12.156  68.700  1.00  0.00    -0.358 C  
HETATM    9  C   UNL     1     -11.773  13.919  66.934  1.00  0.00    -0.425 C  
BRANCH   9  10
HETATM   10  C   UNL     1     -12.281  13.070  65.813  1.00  0.00    -0.453 C  
HETATM   11  O   UNL     1     -13.106  13.873  64.984  1.00  0.00    -0.749 OA 
HETATM   12  H   UNL     1     -13.429  13.333  64.272  1.00  0.00     0.000 HD 
ENDBRANCH   9  10
ENDBRANCH   6   7
ENDBRANCH   5   6
ENDBRANCH   4   5
TORSDOF 4
ENDMDL
MODEL        9
REMARK 921   NORMALIZED FREE ENERGY PREDICTED BY IDOCK:   -4.33 KCAL/MOL
REMARK 922        TOTAL FREE ENERGY PREDICTED BY IDOCK:   -5.66 KCAL/MOL
REMARK 923 INTER-LIGAND FREE ENERGY PREDICTED BY IDOCK:   -5.48 KCAL/MOL
REMARK 924 INTRA-LIGAND FREE ENERGY PREDICTED BY IDOCK:   -0.19 KCAL/MOL
REMARK 927      BINDING AFFINITY PREDICTED BY RF-SCORE:    0.00 PKD
ROOT
HETATM    1  C   UNL     1     -11.476   9.112  71.634  1.00  0.00    -0.451 C  
HETATM    2  C   UNL     1     -12.007  10.343  70.953  1.00  0.00    -0.478 C  
HETATM    3  C   UNL     1     -13.129  11.074  71.637  1.00  0.00    -0.543 C  
HETATM    4  C   UNL     1     -11.489  10.742  69.773  1.00  0.00    -0.386 C  
ENDROOT
BRANCH   4   5
HETATM    5  C   UNL     1     -11.880  11.978  69.007  1.00  0.00    -0.372 C  
BRANCH   5   6
HETATM    6  C   UNL     1     -11.539  11.872  67.515  1.00  0.00    -0.374 C  
BRANCH   6   7
HETATM    7  C   UNL     1     -11.800  13.154  66.746  1.00  0.00    -0.444 C  
HETATM    8  C   UNL     1     -11.818  14.431  67.544  1.00  0.00    -0.418 C  
HETATM    9  C   UNL     1     -12.052  13.131  65.422  1.00  0.00    -0.478 C  
BRANCH   9  10
HETATM   10  C   UNL     1     -12.376  14.299  64.547  1.00  0.00    -0.410 C  
HETATM   11  O   UNL     1     -12.401  13.853  63.200  1.00  0.00    -1.122 OA 
HETATM   12  H   UNL     1     -12.607  14.595  62.644  1.00  0.00     0.000 HD 
ENDBRANCH   9  10
ENDBRANCH   6   7
ENDBRANCH   5   6
ENDBRANCH   4   5
TORSDOF 4
ENDMDL
MODEL       10
REMARK 921   NORMALIZED FREE ENERGY PREDICTED BY IDOCK:   -4.25 KCAL/MOL
REMARK 922        TOTAL FREE ENERGY PREDICTED BY IDOCK:   -5.56 KCAL/MOL
REMARK 923 INTER-LIGAND FREE ENERGY PREDICTED BY IDOCK:   -5.28 KCAL/MOL
REMARK 924 INTRA-LIGAND FREE ENERGY PREDICTED BY IDOCK:   -0.28 KCAL/MOL
REMARK 927      BINDING AFFINITY PREDICTED BY RF-SCORE:    0.00 PKD
ROOT
HETATM    1  C   UNL     1     -13.330  13.294  72.059  1.00  0.00    -0.582 C  
HETATM    2  C   UNL     1     -12.630  13.775  70.816  1.00  0.00    -0.410 C  
HETATM    3  C   UNL     1     -12.517  15.262  70.626  1.00  0.00    -0.458 C  
HETATM    4  C   UNL     1     -12.148  12.886  69.924  1.00  0.00    -0.335 C  
ENDROOT
BRANCH   4   5
HETATM    5  C   UNL     1     -11.380  13.217  68.671  1.00  0.00    -0.327 C  
BRANCH   5   6
HETATM    6  C   UNL     1     -11.527  12.134  67.595  1.00  0.00    -0.399 C  
BRANCH   6   7
HETATM    7  C   UNL     1     -11.650  12.696  66.190  1.00  0.00    -0.445 C  
HETATM    8  C   UNL     1     -12.299  14.049  66.056  1.00  0.00    -0.504 C  
HETATM    9  C   UNL     1     -11.241  11.987  65.119  1.00  0.00    -0.368 C  
BRANCH   9  10
HETATM   10  C   UNL     1     -11.346  12.386  63.682  1.00  0.00    -0.482 C  
HETATM   11  O   UNL     1     -12.322  11.563  63.062  1.00  0.00    -0.975 OA 
HETATM   12  H   UNL     1     -12.389  11.817  62.149  1.00  0.00     0.000 HD 
ENDBRANCH   9  10
ENDBRANCH   6   7
ENDBRANCH   5   6
ENDBRANCH   4   5
TORSDOF 4
ENDMDL
MODEL       11
REMARK 921   NORMALIZED FREE ENERGY PREDICTED BY IDOCK:   -4.24 KCAL/MOL
REMARK 922        TOTAL FREE ENERGY PREDICTED BY IDOCK:   -5.55 KCAL/MOL
REMARK 923 INTER-LIGAND FREE ENERGY PREDICTED BY IDOCK:   -5.15 KCAL/MOL
REMARK 924 INTRA-LIGAND FREE ENERGY PREDICTED BY IDOCK:   -0.40 KCAL/MOL
REMARK 927      BINDING AFFINITY PREDICTED BY RF-SCORE:    0.00 PKD
ROOT
HETATM    1  C   UNL     1      -9.824  11.233  63.411  1.00  0.00    -0.416 C  
HETATM    2  C   UNL     1     -10.935  11.794  64.256  1.00  0.00    -0.419 C  
HETATM    3  C   UNL     1     -12.156  12.298  63.537  1.00  0.00    -0.649 C  
HETATM    4  C   UNL     1     -10.807  11.843  65.598  1.00  0.00    -0.333 C  
ENDROOT
BRANCH   4   5
HETATM    5  C   UNL     1     -11.852  12.323  66.571  1.00  0.00    -0.378 C  
BRANCH   5   6
HETATM    6  C   UNL     1     -11.335  13.450  67.473  1.00  0.00    -0.327 C  
BRANCH   6   7
HETATM    7  C   UNL     1     -10.694  14.591  66.704  1.00  0.00    -0.305 C  
HETATM    8  C   UNL     1      -9.356  15.075  67.198  1.00  0.00    -0.225 C  
HETATM    9  C   UNL     1     -11.326  15.167  65.662  1.00  0.00    -0.255 C  
BRANCH   9  10
HETATM   10  C   UNL     1     -10.847  16.326  64.848  1.00  0.00    -0.296 C  
HETATM   11  O   UNL     1     -11.754  16.522  63.775  1.00  0.00    -1.548 OA 
HETATM   12  H   UNL     1     -11.450  17.259  63.258  1.00  0.00     0.000 HD 
ENDBRANCH   9  10
ENDBRANCH   6   7
ENDBRANCH   5   6
ENDBRANCH   4   5
TORSDOF 4
ENDMDL
MODEL       12
REMARK 921   NORMALIZED FREE ENERGY PREDICTED BY IDOCK:   -4.23 KCAL/MOL
REMARK 922        TOTAL FREE ENERGY PREDICTED BY IDOCK:   -5.54 KCAL/MOL
REMARK 923 INTER-LIGAND FREE ENERGY PREDICTED BY IDOCK:   -5.38 KCAL/MOL
REMARK 924 INTRA-LIGAND FREE ENERGY PREDICTED BY IDOCK:   -0.15 KCAL/MOL
REMARK 927      BINDING AFFINITY PREDICTED BY RF-SCORE:    0.00 PKD
ROOT
HETATM    1  C   UNL     1     -12.733  10.263  71.528  1.00  0.00    -0.557 C  
HETATM    2  C   UNL     1     -11.831  10.511  70.350  1.00  0.00    -0.431 C  
HETATM    3  C   UNL     1     -10.496   9.819  70.350  1.00  0.00    -0.358 C  
HETATM    4  C   UNL     1     -12.226  11.334  69.357  1.00  0.00    -0.315 C  
ENDROOT
BRANCH   4   5
HETATM    5  C   UNL     1     -11.458  11.632  68.096  1.00  0.00    -0.382 C  
BRANCH   5   6
HETATM    6  C   UNL     1     -11.899  12.947  67.441  1.00  0.00    -0.418 C  
BRANCH   6   7
HETATM    7  C   UNL     1     -11.510  13.050  65.977  1.00  0.00    -0.374 C  
HETATM    8  C   UNL     1     -10.273  13.848  65.660  1.00  0.00    -0.344 C  
HETATM    9  C   UNL     1     -12.272  12.493  65.015  1.00  0.00    -0.519 C  
BRANCH   9  10
HETATM   10  C   UNL     1     -12.046  12.557  63.539  1.00  0.00    -0.562 C  
HETATM   11  O   UNL     1     -12.423  13.847  63.085  1.00  0.00    -1.121 OA 
HETATM   12  H   UNL     1     -12.280  13.887  62.147  1.00  0.00     0.000 HD 
ENDBRANCH   9  10
ENDBRANCH   6   7
ENDBRANCH   5   6
ENDBRANCH   4   5
TORSDOF 4
ENDMDL
MODEL       13
REMARK 921   NORMALIZED FREE ENERGY PREDICTED BY IDOCK:   -4.20 KCAL/MOL
REMARK 922        TOTAL FREE ENERGY PREDICTED BY IDOCK:   -5.50 KCAL/MOL
REMARK 923 INTER-LIGAND FREE ENERGY PREDICTED BY IDOCK:   -5.18 KCAL/MOL
REMARK 924 INTRA-LIGAND FREE ENERGY PREDICTED BY IDOCK:   -0.32 KCAL/MOL
REMARK 927      BINDING AFFINITY PREDICTED BY RF-SCORE:    0.00 PKD
ROOT
HETATM    1  C   UNL     1     -12.823  15.865  73.713  1.00  0.00    -0.708 C  
HETATM    2  C   UNL     1     -13.037  15.572  72.253  1.00  0.00    -0.517 C  
HETATM    3  C   UNL     1     -14.363  14.980  71.860  1.00  0.00    -0.677 C  
HETATM    4  C   UNL     1     -12.059  15.827  71.360  1.00  0.00    -0.494 C  
ENDROOT
BRANCH   4   5
HETATM    5  C   UNL     1     -12.151  15.639  69.868  1.00  0.00    -0.360 C  
BRANCH   5   6
HETATM    6  C   UNL     1     -10.946  14.877  69.302  1.00  0.00    -0.279 C  
BRANCH   6   7
HETATM    7  C   UNL     1     -11.334  13.636  68.519  1.00  0.00    -0.325 C  
HETATM    8  C   UNL     1     -11.955  13.856  67.164  1.00  0.00    -0.455 C  
HETATM    9  C   UNL     1     -11.172  12.405  69.043  1.00  0.00    -0.320 C  
BRANCH   9  10
HETATM   10  C   UNL     1     -11.553  11.102  68.416  1.00  0.00    -0.306 C  
HETATM   11  O   UNL     1     -12.601  10.529  69.182  1.00  0.00    -0.740 OA 
HETATM   12  H   UNL     1     -12.843   9.701  68.784  1.00  0.00     0.000 HD 
ENDBRANCH   9  10
ENDBRANCH   6   7
ENDBRANCH   5   6
ENDBRANCH   4   5
TORSDOF 4
ENDMDL
MODEL       14
REMARK 921   NORMALIZED FREE ENERGY PREDICTED BY IDOCK:   -4.19 KCAL/MOL
REMARK 922        TOTAL FREE ENERGY PREDICTED BY IDOCK:   -5.49 KCAL/MOL
REMARK 923 INTER-LIGAND FREE ENERGY PREDICTED BY IDOCK:   -5.26 KCAL/MOL
REMARK 924 INTRA-LIGAND FREE ENERGY PREDICTED BY IDOCK:   -0.22 KCAL/MOL
REMARK 927      BINDING AFFINITY PREDICTED BY RF-SCORE:    0.00 PKD
ROOT
HETATM    1  C   UNL     1     -12.768  10.010  71.194  1.00  0.00    -0.484 C  
HETATM    2  C   UNL     1     -12.533  11.423  70.733  1.00  0.00    -0.460 C  
HETATM    3  C   UNL     1     -13.117  12.524  71.574  1.00  0.00    -0.373 C  
HETATM    4  C   UNL     1     -11.838  11.659  69.602  1.00  0.00    -0.419 C  
ENDROOT
BRANCH   4   5
HETATM    5  C   UNL     1     -11.478  13.014  69.050  1.00  0.00    -0.353 C  
BRANCH   5   6
HETATM    6  C   UNL     1     -12.015  13.226  67.629  1.00  0.00    -0.366 C  
BRANCH   6   7
HETATM    7  C   UNL     1     -11.500  14.496  66.975  1.00  0.00    -0.383 C  
HETATM    8  C   UNL     1     -11.177  15.647  67.892  1.00  0.00    -0.328 C  
HETATM    9  C   UNL     1     -11.390  14.593  65.636  1.00  0.00    -0.338 C  
BRANCH   9  10
HETATM   10  C   UNL     1     -10.952  15.788  64.852  1.00  0.00    -0.427 C  
HETATM   11  O   UNL     1     -11.868  15.982  63.786  1.00  0.00    -1.334 OA 
HETATM   12  H   UNL     1     -11.589  16.742  63.288  1.00  0.00     0.000 HD 
ENDBRANCH   9  10
ENDBRANCH   6   7
ENDBRANCH   5   6
ENDBRANCH   4   5
TORSDOF 4
ENDMDL
MODEL       15
REMARK 921   NORMALIZED FREE ENERGY PREDICTED BY IDOCK:   -4.18 KCAL/MOL
REMARK 922        TOTAL FREE ENERGY PREDICTED BY IDOCK:   -5.47 KCAL/MOL
REMARK 923 INTER-LIGAND FREE ENERGY PREDICTED BY IDOCK:   -5.23 KCAL/MOL
REMARK 924 INTRA-LIGAND FREE ENERGY PREDICTED BY IDOCK:   -0.24 KCAL/MOL
REMARK 927      BINDING AFFINITY PREDICTED BY RF-SCORE:    0.00 PKD
ROOT
HETATM    1  C   UNL     1     -12.041  10.252  71.166  1.00  0.00    -0.494 C  
HETATM    2  C   UNL     1     -12.187  11.655  70.641  1.00  0.00    -0.461 C  
HETATM    3  C   UNL     1     -12.943  12.632  71.499  1.00  0.00    -0.380 C  
HETATM    4  C   UNL     1     -11.665  11.987  69.443  1.00  0.00    -0.402 C  
ENDROOT
BRANCH   4   5
HETATM    5  C   UNL     1     -11.684  13.358  68.818  1.00  0.00    -0.377 C  
BRANCH   5   6
HETATM    6  C   UNL     1     -10.684  13.485  67.662  1.00  0.00    -0.257 C  
BRANCH   6   7
HETATM    7  C   UNL     1     -11.346  13.538  66.297  1.00  0.00    -0.327 C  
HETATM    8  C   UNL     1     -11.783  12.224  65.705  1.00  0.00    -0.440 C  
HETATM    9  C   UNL     1     -11.485  14.705  65.637  1.00  0.00    -0.340 C  
BRANCH   9  10
HETATM   10  C   UNL     1     -12.065  14.904  64.274  1.00  0.00    -0.353 C  
HETATM   11  O   UNL     1     -11.670  16.183  63.804  1.00  0.00    -1.404 OA 
HETATM   12  H   UNL     1     -12.038  16.310  62.937  1.00  0.00     0.000 HD 
ENDBRANCH   9  10
ENDBRANCH   6   7
ENDBRANCH   5   6
ENDBRANCH   4   5
TORSDOF 4
ENDMDL
MODEL       16
REMARK 921   NORMALIZED FREE ENERGY PREDICTED BY IDOCK:   -4.15 KCAL/MOL
REMARK 922        TOTAL FREE ENERGY PREDICTED BY IDOCK:   -5.43 KCAL/MOL
REMARK 923 INTER-LIGAND FREE ENERGY PREDICTED BY IDOCK:   -5.17 KCAL/MOL
REMARK 924 INTRA-LIGAND FREE ENERGY PREDICTED BY IDOCK:   -0.27 KCAL/MOL
REMARK 927      BINDING AFFINITY PREDICTED BY RF-SCORE:    0.00 PKD
ROOT
HETATM    1  C   UNL     1     -12.202  12.717  65.322  1.00  0.00    -0.532 C  
HETATM    2  C   UNL     1     -11.340  12.666  66.553  1.00  0.00    -0.377 C  
HETATM    3  C   UNL     1     -10.007  13.359  66.485  1.00  0.00    -0.286 C  
HETATM    4  C   UNL     1     -11.765  12.007  67.651  1.00  0.00    -0.365 C  
ENDROOT
BRANCH   4   5
HETATM    5  C   UNL     1     -11.039  11.920  68.968  1.00  0.00    -0.300 C  
BRANCH   5   6
HETATM    6  C   UNL     1     -12.000  11.892  70.163  1.00  0.00    -0.413 C  
BRANCH   6   7
HETATM    7  C   UNL     1     -12.175  10.508  70.761  1.00  0.00    -0.468 C  
HETATM    8  C   UNL     1     -11.031   9.545  70.587  1.00  0.00    -0.370 C  
HETATM    9  C   UNL     1     -13.324  10.156  71.372  1.00  0.00    -0.413 C  
BRANCH   9  10
HETATM   10  C   UNL     1     -13.659   8.822  71.958  1.00  0.00    -0.427 C  
HETATM   11  O   UNL     1     -14.093   9.019  73.294  1.00  0.00    -1.218 OA 
HETATM   12  H   UNL     1     -14.306   8.171  73.666  1.00  0.00     0.000 HD 
ENDBRANCH   9  10
ENDBRANCH   6   7
ENDBRANCH   5   6
ENDBRANCH   4   5
TORSDOF 4
ENDMDL
MODEL       17
REMARK 921   NORMALIZED FREE ENERGY PREDICTED BY IDOCK:   -4.14 KCAL/MOL
REMARK 922        TOTAL FREE ENERGY PREDICTED BY IDOCK:   -5.43 KCAL/MOL
REMARK 923 INTER-LIGAND FREE ENERGY PREDICTED BY IDOCK:   -5.22 KCAL/MOL
REMARK 924 INTRA-LIGAND FREE ENERGY PREDICTED BY IDOCK:   -0.21 KCAL/MOL
REMARK 927      BINDING AFFINITY PREDICTED BY RF-SCORE:    0.00 PKD
ROOT
HETATM    1  C   UNL     1     -11.781  15.832  71.559  1.00  0.00    -0.523 C  
HETATM    2  C   UNL     1     -11.503  15.638  70.094  1.00  0.00    -0.358 C  
HETATM    3  C   UNL     1     -10.615  16.650  69.424  1.00  0.00    -0.333 C  
HETATM    4  C   UNL     1     -12.053  14.598  69.433  1.00  0.00    -0.317 C  
ENDROOT
BRANCH   4   5
HETATM    5  C   UNL     1     -11.821  14.246  67.987  1.00  0.00    -0.379 C  
BRANCH   5   6
HETATM    6  C   UNL     1     -11.774  12.731  67.756  1.00  0.00    -0.412 C  
BRANCH   6   7
HETATM    7  C   UNL     1     -11.612  12.350  66.295  1.00  0.00    -0.449 C  
HETATM    8  C   UNL     1     -10.604  11.275  65.984  1.00  0.00    -0.314 C  
HETATM    9  C   UNL     1     -12.307  12.984  65.331  1.00  0.00    -0.538 C  
BRANCH   9  10
HETATM   10  C   UNL     1     -12.214  12.755  63.856  1.00  0.00    -0.463 C  
HETATM   11  O   UNL     1     -12.468  13.986  63.197  1.00  0.00    -1.137 OA 
HETATM   12  H   UNL     1     -12.409  13.840  62.260  1.00  0.00     0.000 HD 
ENDBRANCH   9  10
ENDBRANCH   6   7
ENDBRANCH   5   6
ENDBRANCH   4   5
TORSDOF 4
ENDMDL
MODEL       18
REMARK 921   NORMALIZED FREE ENERGY PREDICTED BY IDOCK:   -4.14 KCAL/MOL
REMARK 922        TOTAL FREE ENERGY PREDICTED BY IDOCK:   -5.43 KCAL/MOL
REMARK 923 INTER-LIGAND FREE ENERGY PREDICTED BY IDOCK:   -5.17 KCAL/MOL
REMARK 924 INTRA-LIGAND FREE ENERGY PREDICTED BY IDOCK:   -0.25 KCAL/MOL
REMARK 927      BINDING AFFINITY PREDICTED BY RF-SCORE:    0.00 PKD
ROOT
HETATM    1  C   UNL     1     -11.792  14.479  67.465  1.00  0.00    -0.404 C  
HETATM    2  C   UNL     1     -11.711  12.977  67.462  1.00  0.00    -0.421 C  
HETATM    3  C   UNL     1     -11.585  12.300  66.125  1.00  0.00    -0.450 C  
HETATM    4  C   UNL     1     -11.765  12.293  68.624  1.00  0.00    -0.377 C  
ENDROOT
BRANCH   4   5
HETATM    5  C   UNL     1     -11.640  10.800  68.779  1.00  0.00    -0.350 C  
BRANCH   5   6
HETATM    6  C   UNL     1     -11.090  10.402  70.155  1.00  0.00    -0.383 C  
BRANCH   6   7
HETATM    7  C   UNL     1     -11.946   9.370  70.868  1.00  0.00    -0.351 C  
HETATM    8  C   UNL     1     -11.405   7.966  70.927  1.00  0.00    -0.290 C  
HETATM    9  C   UNL     1     -13.151   9.698  71.375  1.00  0.00    -0.471 C  
BRANCH   9  10
HETATM   10  C   UNL     1     -14.121   8.784  72.053  1.00  0.00    -0.441 C  
HETATM   11  O   UNL     1     -13.918   8.878  73.453  1.00  0.00    -1.236 OA 
HETATM   12  H   UNL     1     -14.535   8.297  73.884  1.00  0.00     0.000 HD 
ENDBRANCH   9  10
ENDBRANCH   6   7
ENDBRANCH   5   6
ENDBRANCH   4   5
TORSDOF 4
ENDMDL
MODEL       19
REMARK 921   NORMALIZED FREE ENERGY PREDICTED BY IDOCK:   -4.14 KCAL/MOL
REMARK 922        TOTAL FREE ENERGY PREDICTED BY IDOCK:   -5.42 KCAL/MOL
REMARK 923 INTER-LIGAND FREE ENERGY PREDICTED BY IDOCK:   -4.81 KCAL/MOL
REMARK 924 INTRA-LIGAND FREE ENERGY PREDICTED BY IDOCK:   -0.62 KCAL/MOL
REMARK 927      BINDING AFFINITY PREDICTED BY RF-SCORE:    0.00 PKD
ROOT
HETATM    1  C   UNL     1     -10.785   9.576  67.938  1.00  0.00    -0.285 C  
HETATM    2  C   UNL     1     -10.256  10.639  67.014  1.00  0.00    -0.267 C  
HETATM    3  C   UNL     1     -10.140  12.032  67.568  1.00  0.00    -0.205 C  
HETATM    4  C   UNL     1      -9.922  10.328  65.745  1.00  0.00    -0.337 C  
ENDROOT
BRANCH   4   5
HETATM    5  C   UNL     1      -9.330  11.269  64.729  1.00  0.00    -0.166 C  
BRANCH   5   6
HETATM    6  C   UNL     1     -10.262  11.496  63.533  1.00  0.00    -0.462 C  
BRANCH   6   7
HETATM    7  C   UNL     1     -11.388  12.472  63.824  1.00  0.00    -0.534 C  
HETATM    8  C   UNL     1     -12.784  12.015  63.488  1.00  0.00    -0.567 C  
HETATM    9  C   UNL     1     -11.133  13.701  64.312  1.00  0.00    -0.332 C  
BRANCH   9  10
HETATM   10  C   UNL     1     -12.128  14.781  64.597  1.00  0.00    -0.427 C  
HETATM   11  O   UNL     1     -11.855  15.876  63.737  1.00  0.00    -1.221 OA 
HETATM   12  H   UNL     1     -12.488  16.562  63.918  1.00  0.00     0.000 HD 
ENDBRANCH   9  10
ENDBRANCH   6   7
ENDBRANCH   5   6
ENDBRANCH   4   5
TORSDOF 4
ENDMDL
MODEL       20
REMARK 921   NORMALIZED FREE ENERGY PREDICTED BY IDOCK:   -4.13 KCAL/MOL
REMARK 922        TOTAL FREE ENERGY PREDICTED BY IDOCK:   -5.41 KCAL/MOL
REMARK 923 INTER-LIGAND FREE ENERGY PREDICTED BY IDOCK:   -4.97 KCAL/MOL
REMARK 924 INTRA-LIGAND FREE ENERGY PREDICTED BY IDOCK:   -0.44 KCAL/MOL
REMARK 927      BINDING AFFINITY PREDICTED BY RF-SCORE:    0.00 PKD
ROOT
HETATM    1  C   UNL     1     -10.791   7.404  73.298  1.00  0.00    -0.417 C  
HETATM    2  C   UNL     1     -11.229   8.468  72.329  1.00  0.00    -0.432 C  
HETATM    3  C   UNL     1     -10.169   9.072  71.450  1.00  0.00    -0.399 C  
HETATM    4  C   UNL     1     -12.521   8.853  72.283  1.00  0.00    -0.440 C  
ENDROOT
BRANCH   4   5
HETATM    5  C   UNL     1     -13.112   9.859  71.332  1.00  0.00    -0.500 C  
BRANCH   5   6
HETATM    6  C   UNL     1     -13.143  11.273  71.924  1.00  0.00    -0.510 C  
BRANCH   6   7
HETATM    7  C   UNL     1     -12.644  12.339  70.964  1.00  0.00    -0.352 C  
HETATM    8  C   UNL     1     -11.860  11.860  69.770  1.00  0.00    -0.411 C  
HETATM    9  C   UNL     1     -12.856  13.647  71.207  1.00  0.00    -0.424 C  
BRANCH   9  10
HETATM   10  C   UNL     1     -12.382  14.803  70.386  1.00  0.00    -0.344 C  
HETATM   11  O   UNL     1     -13.301  15.871  70.549  1.00  0.00    -0.739 OA 
HETATM   12  H   UNL     1     -13.000  16.606  70.027  1.00  0.00     0.000 HD 
ENDBRANCH   9  10
ENDBRANCH   6   7
ENDBRANCH   5   6
ENDBRANCH   4   5
TORSDOF 4
ENDMDL
MODEL       21
REMARK 921   NORMALIZED FREE ENERGY PREDICTED BY IDOCK:   -4.11 KCAL/MOL
REMARK 922        TOTAL FREE ENERGY PREDICTED BY IDOCK:   -5.39 KCAL/MOL
REMARK 923 INTER-LIGAND FREE ENERGY PREDICTED BY IDOCK:   -5.12 KCAL/MOL
REMARK 924 INTRA-LIGAND FREE ENERGY PREDICTED BY IDOCK:   -0.27 KCAL/MOL
REMARK 927      BINDING AFFINITY PREDICTED BY RF-SCORE:    0.00 PKD
ROOT
HETATM    1  C   UNL     1     -12.625  11.994  63.447  1.00  0.00    -0.592 C  
HETATM    2  C   UNL     1     -11.940  12.811  64.509  1.00  0.00    -0.454 C  
HETATM    3  C   UNL     1     -10.484  13.122  64.301  1.00  0.00    -0.410 C  
HETATM    4  C   UNL     1     -12.626  13.221  65.596  1.00  0.00    -0.469 C  
ENDROOT
BRANCH   4   5
HETATM    5  C   UNL     1     -12.091  14.087  66.706  1.00  0.00    -0.480 C  
BRANCH   5   6
HETATM    6  C   UNL     1     -11.392  13.268  67.798  1.00  0.00    -0.327 C  
BRANCH   6   7
HETATM    7  C   UNL     1     -11.868  13.605  69.200  1.00  0.00    -0.394 C  
HETATM    8  C   UNL     1     -12.160  12.444  70.113  1.00  0.00    -0.366 C  
HETATM    9  C   UNL     1     -12.063  14.884  69.578  1.00  0.00    -0.315 C  
BRANCH   9  10
HETATM   10  C   UNL     1     -12.575  15.363  70.899  1.00  0.00    -0.438 C  
HETATM   11  O   UNL     1     -13.976  15.555  70.790  1.00  0.00    -0.874 OA 
HETATM   12  H   UNL     1     -14.301  15.860  71.629  1.00  0.00     0.000 HD 
ENDBRANCH   9  10
ENDBRANCH   6   7
ENDBRANCH   5   6
ENDBRANCH   4   5
TORSDOF 4
ENDMDL
MODEL       22
REMARK 921   NORMALIZED FREE ENERGY PREDICTED BY IDOCK:   -4.11 KCAL/MOL
REMARK 922        TOTAL FREE ENERGY PREDICTED BY IDOCK:   -5.39 KCAL/MOL
REMARK 923 INTER-LIGAND FREE ENERGY PREDICTED BY IDOCK:   -5.17 KCAL/MOL
REMARK 924 INTRA-LIGAND FREE ENERGY PREDICTED BY IDOCK:   -0.22 KCAL/MOL
REMARK 927      BINDING AFFINITY PREDICTED BY RF-SCORE:    0.00 PKD
ROOT
HETATM    1  C   UNL     1     -11.244  11.973  65.370  1.00  0.00    -0.374 C  
HETATM    2  C   UNL     1     -11.598  12.519  66.727  1.00  0.00    -0.446 C  
HETATM    3  C   UNL     1     -12.193  13.899  66.776  1.00  0.00    -0.438 C  
HETATM    4  C   UNL     1     -11.366  11.785  67.834  1.00  0.00    -0.362 C  
ENDROOT
BRANCH   4   5
HETATM    5  C   UNL     1     -11.717  12.176  69.246  1.00  0.00    -0.386 C  
BRANCH   5   6
HETATM    6  C   UNL     1     -11.484  11.033  70.242  1.00  0.00    -0.363 C  
BRANCH   6   7
HETATM    7  C   UNL     1     -12.690  10.742  71.116  1.00  0.00    -0.532 C  
HETATM    8  C   UNL     1     -13.298  11.912  71.844  1.00  0.00    -0.405 C  
HETATM    9  C   UNL     1     -13.153   9.485  71.265  1.00  0.00    -0.402 C  
BRANCH   9  10
HETATM   10  C   UNL     1     -14.291   9.041  72.128  1.00  0.00    -0.267 C  
HETATM   11  O   UNL     1     -13.809   8.880  73.452  1.00  0.00    -1.192 OA 
HETATM   12  H   UNL     1     -14.532   8.597  74.000  1.00  0.00     0.000 HD 
ENDBRANCH   9  10
ENDBRANCH   6   7
ENDBRANCH   5   6
ENDBRANCH   4   5
TORSDOF 4
ENDMDL
MODEL       23
REMARK 921   NORMALIZED FREE ENERGY PREDICTED BY IDOCK:   -4.10 KCAL/MOL
REMARK 922        TOTAL FREE ENERGY PREDICTED BY IDOCK:   -5.37 KCAL/MOL
REMARK 923 INTER-LIGAND FREE ENERGY PREDICTED BY IDOCK:   -5.13 KCAL/MOL
REMARK 924 INTRA-LIGAND FREE ENERGY PREDICTED BY IDOCK:   -0.25 KCAL/MOL
REMARK 927      BINDING AFFINITY PREDICTED BY RF-SCORE:    0.00 PKD
ROOT
HETATM    1  C   UNL     1     -10.795   9.330  71.208  1.00  0.00    -0.417 C  
HETATM    2  C   UNL     1     -11.595  10.406  70.525  1.00  0.00    -0.433 C  
HETATM    3  C   UNL     1     -12.789  10.945  71.264  1.00  0.00    -0.536 C  
HETATM    4  C   UNL     1     -11.240  10.839  69.298  1.00  0.00    -0.333 C  
ENDROOT
BRANCH   4   5
HETATM    5  C   UNL     1     -11.907  11.942  68.521  1.00  0.00    -0.357 C  
BRANCH   5   6
HETATM    6  C   UNL     1     -10.951  12.619  67.530  1.00  0.00    -0.280 C  
BRANCH   6   7
HETATM    7  C   UNL     1     -11.179  12.196  66.090  1.00  0.00    -0.386 C  
HETATM    8  C   UNL     1     -10.427  10.982  65.614  1.00  0.00    -0.293 C  
HETATM    9  C   UNL     1     -11.979  12.911  65.275  1.00  0.00    -0.459 C  
BRANCH   9  10
HETATM   10  C   UNL     1     -12.256  12.649  63.829  1.00  0.00    -0.514 C  
HETATM   11  O   UNL     1     -12.456  13.895  63.181  1.00  0.00    -1.121 OA 
HETATM   12  H   UNL     1     -12.632  13.728  62.262  1.00  0.00     0.000 HD 
ENDBRANCH   9  10
ENDBRANCH   6   7
ENDBRANCH   5   6
ENDBRANCH   4   5
TORSDOF 4
ENDMDL
MODEL       24
REMARK 921   NORMALIZED FREE ENERGY PREDICTED BY IDOCK:   -4.10 KCAL/MOL
REMARK 922        TOTAL FREE ENERGY PREDICTED BY IDOCK:   -5.37 KCAL/MOL
REMARK 923 INTER-LIGAND FREE ENERGY PREDICTED BY IDOCK:   -4.90 KCAL/MOL
REMARK 924 INTRA-LIGAND FREE ENERGY PREDICTED BY IDOCK:   -0.47 KCAL/MOL
REMARK 927      BINDING AFFINITY PREDICTED BY RF-SCORE:    0.00 PKD
ROOT
HETATM    1  C   UNL     1     -11.088   8.909  71.731  1.00  0.00    -0.433 C  
HETATM    2  C   UNL     1     -11.777  10.012  70.976  1.00  0.00    -0.479 C  
HETATM    3  C   UNL     1     -12.965  10.656  71.637  1.00  0.00    -0.582 C  
HETATM    4  C   UNL     1     -11.335  10.377  69.755  1.00  0.00    -0.353 C  
ENDROOT
BRANCH   4   5
HETATM    5  C   UNL     1     -11.887  11.496  68.911  1.00  0.00    -0.406 C  
BRANCH   5   6
HETATM    6  C   UNL     1     -10.891  12.652  68.752  1.00  0.00    -0.267 C  
BRANCH   6   7
HETATM    7  C   UNL     1     -11.453  13.994  69.187  1.00  0.00    -0.340 C  
HETATM    8  C   UNL     1     -11.303  15.137  68.217  1.00  0.00    -0.338 C  
HETATM    9  C   UNL     1     -12.009  14.152  70.404  1.00  0.00    -0.400 C  
BRANCH   9  10
HETATM   10  C   UNL     1     -12.552  15.417  70.987  1.00  0.00    -0.431 C  
HETATM   11  O   UNL     1     -13.939  15.484  70.693  1.00  0.00    -0.868 OA 
HETATM   12  H   UNL     1     -14.284  16.288  71.064  1.00  0.00     0.000 HD 
ENDBRANCH   9  10
ENDBRANCH   6   7
ENDBRANCH   5   6
ENDBRANCH   4   5
TORSDOF 4
ENDMDL
MODEL       25
REMARK 921   NORMALIZED FREE ENERGY PREDICTED BY IDOCK:   -4.08 KCAL/MOL
REMARK 922        TOTAL FREE ENERGY PREDICTED BY IDOCK:   -5.35 KCAL/MOL
REMARK 923 INTER-LIGAND FREE ENERGY PREDICTED BY IDOCK:   -4.84 KCAL/MOL
REMARK 924 INTRA-LIGAND FREE ENERGY PREDICTED BY IDOCK:   -0.52 KCAL/MOL
REMARK 927      BINDING AFFINITY PREDICTED BY RF-SCORE:    0.00 PKD
ROOT
HETATM    1  C   UNL     1     -10.763  12.498  64.079  1.00  0.00    -0.449 C  
HETATM    2  C   UNL     1     -11.506  12.692  65.372  1.00  0.00    -0.373 C  
HETATM    3  C   UNL     1     -12.727  13.569  65.336  1.00  0.00    -0.495 C  
HETATM    4  C   UNL     1     -11.064  12.104  66.503  1.00  0.00    -0.352 C  
ENDROOT
BRANCH   4   5
HETATM    5  C   UNL     1     -11.732  12.162  67.851  1.00  0.00    -0.403 C  
BRANCH   5   6
HETATM    6  C   UNL     1     -10.938  13.001  68.860  1.00  0.00    -0.271 C  
BRANCH   6   7
HETATM    7  C   UNL     1     -11.662  14.263  69.295  1.00  0.00    -0.363 C  
HETATM    8  C   UNL     1     -11.587  15.443  68.363  1.00  0.00    -0.368 C  
HETATM    9  C   UNL     1     -12.295  14.325  70.483  1.00  0.00    -0.430 C  
BRANCH   9  10
HETATM   10  C   UNL     1     -13.001  15.507  71.066  1.00  0.00    -0.489 C  
HETATM   11  O   UNL     1     -14.391  15.357  70.829  1.00  0.00    -0.842 OA 
HETATM   12  H   UNL     1     -14.840  16.108  71.199  1.00  0.00     0.000 HD 
ENDBRANCH   9  10
ENDBRANCH   6   7
ENDBRANCH   5   6
ENDBRANCH   4   5
TORSDOF 4
ENDMDL
MODEL       26
REMARK 921   NORMALIZED FREE ENERGY PREDICTED BY IDOCK:   -4.05 KCAL/MOL
REMARK 922        TOTAL FREE ENERGY PREDICTED BY IDOCK:   -5.32 KCAL/MOL
REMARK 923 INTER-LIGAND FREE ENERGY PREDICTED BY IDOCK:   -4.71 KCAL/MOL
REMARK 924 INTRA-LIGAND FREE ENERGY PREDICTED BY IDOCK:   -0.61 KCAL/MOL
REMARK 927      BINDING AFFINITY PREDICTED BY RF-SCORE:    0.00 PKD
ROOT
HETATM    1  C   UNL     1      -9.520  10.523  63.016  1.00  0.00    -0.364 C  
HETATM    2  C   UNL     1     -10.470  11.192  63.972  1.00  0.00    -0.447 C  
HETATM    3  C   UNL     1     -10.148  11.097  65.437  1.00  0.00    -0.317 C  
HETATM    4  C   UNL     1     -11.563  11.830  63.505  1.00  0.00    -0.487 C  
ENDROOT
BRANCH   4   5
HETATM    5  C   UNL     1     -12.567  12.588  64.333  1.00  0.00    -0.497 C  
BRANCH   5   6
HETATM    6  C   UNL     1     -12.280  14.094  64.361  1.00  0.00    -0.466 C  
BRANCH   6   7
HETATM    7  C   UNL     1     -11.675  14.567  65.671  1.00  0.00    -0.335 C  
HETATM    8  C   UNL     1     -10.566  15.581  65.578  1.00  0.00    -0.413 C  
HETATM    9  C   UNL     1     -12.086  14.058  66.850  1.00  0.00    -0.465 C  
BRANCH   9  10
HETATM   10  C   UNL     1     -11.550  14.385  68.207  1.00  0.00    -0.328 C  
HETATM   11  O   UNL     1     -12.337  15.431  68.756  1.00  0.00    -0.593 OA 
HETATM   12  H   UNL     1     -11.997  15.638  69.618  1.00  0.00     0.000 HD 
ENDBRANCH   9  10
ENDBRANCH   6   7
ENDBRANCH   5   6
ENDBRANCH   4   5
TORSDOF 4
ENDMDL
MODEL       27
REMARK 921   NORMALIZED FREE ENERGY PREDICTED BY IDOCK:   -4.05 KCAL/MOL
REMARK 922        TOTAL FREE ENERGY PREDICTED BY IDOCK:   -5.32 KCAL/MOL
REMARK 923 INTER-LIGAND FREE ENERGY PREDICTED BY IDOCK:   -5.06 KCAL/MOL
REMARK 924 INTRA-LIGAND FREE ENERGY PREDICTED BY IDOCK:   -0.26 KCAL/MOL
REMARK 927      BINDING AFFINITY PREDICTED BY RF-SCORE:    0.00 PKD
ROOT
HETATM    1  C   UNL     1     -10.255  19.922  68.705  1.00  0.00    -0.451 C  
HETATM    2  C   UNL     1     -10.013  19.167  67.427  1.00  0.00    -0.432 C  
HETATM    3  C   UNL     1      -9.389  19.927  66.290  1.00  0.00    -0.474 C  
HETATM    4  C   UNL     1     -10.365  17.868  67.330  1.00  0.00    -0.383 C  
ENDROOT
BRANCH   4   5
HETATM    5  C   UNL     1     -10.134  16.975  66.140  1.00  0.00    -0.332 C  
BRANCH   5   6
HETATM    6  C   UNL     1      -9.850  15.523  66.547  1.00  0.00    -0.281 C  
BRANCH   6   7
HETATM    7  C   UNL     1     -10.784  14.522  65.892  1.00  0.00    -0.308 C  
HETATM    8  C   UNL     1     -11.940  14.029  66.723  1.00  0.00    -0.473 C  
HETATM    9  C   UNL     1     -10.551  14.066  64.645  1.00  0.00    -0.416 C  
BRANCH   9  10
HETATM   10  C   UNL     1     -11.347  13.047  63.895  1.00  0.00    -0.410 C  
HETATM   11  O   UNL     1     -12.361  13.721  63.168  1.00  0.00    -1.099 OA 
HETATM   12  H   UNL     1     -12.867  13.074  62.691  1.00  0.00     0.000 HD 
ENDBRANCH   9  10
ENDBRANCH   6   7
ENDBRANCH   5   6
ENDBRANCH   4   5
TORSDOF 4
ENDMDL
MODEL       28
REMARK 921   NORMALIZED FREE ENERGY PREDICTED BY IDOCK:   -4.05 KCAL/MOL
REMARK 922        TOTAL FREE ENERGY PREDICTED BY IDOCK:   -5.31 KCAL/MOL
REMARK 923 INTER-LIGAND FREE ENERGY PREDICTED BY IDOCK:   -4.99 KCAL/MOL
REMARK 924 INTRA-LIGAND FREE ENERGY PREDICTED BY IDOCK:   -0.32 KCAL/MOL
REMARK 927      BINDING AFFINITY PREDICTED BY RF-SCORE:    0.00 PKD
ROOT
HETATM    1  C   UNL     1     -10.910   6.088  68.108  1.00  0.00    -0.365 C  
HETATM    2  C   UNL     1     -10.911   5.872  69.596  1.00  0.00    -0.447 C  
HETATM    3  C   UNL     1      -9.952   4.850  70.141  1.00  0.00    -0.325 C  
HETATM    4  C   UNL     1     -11.757   6.570  70.381  1.00  0.00    -0.439 C  
ENDROOT
BRANCH   4   5
HETATM    5  C   UNL     1     -11.831   6.501  71.884  1.00  0.00    -0.381 C  
BRANCH   5   6
HETATM    6  C   UNL     1     -11.525   7.851  72.545  1.00  0.00    -0.455 C  
BRANCH   6   7
HETATM    7  C   UNL     1     -12.288   9.010  71.928  1.00  0.00    -0.455 C  
HETATM    8  C   UNL     1     -13.781   9.023  72.131  1.00  0.00    -0.536 C  
HETATM    9  C   UNL     1     -11.655   9.946  71.195  1.00  0.00    -0.468 C  
BRANCH   9  10
HETATM   10  C   UNL     1     -12.276  11.107  70.486  1.00  0.00    -0.384 C  
HETATM   11  O   UNL     1     -12.637  10.690  69.179  1.00  0.00    -0.734 OA 
HETATM   12  H   UNL     1     -13.032  11.428  68.729  1.00  0.00     0.000 HD 
ENDBRANCH   9  10
ENDBRANCH   6   7
ENDBRANCH   5   6
ENDBRANCH   4   5
TORSDOF 4
ENDMDL
MODEL       29
REMARK 921   NORMALIZED FREE ENERGY PREDICTED BY IDOCK:   -4.01 KCAL/MOL
REMARK 922        TOTAL FREE ENERGY PREDICTED BY IDOCK:   -5.26 KCAL/MOL
REMARK 923 INTER-LIGAND FREE ENERGY PREDICTED BY IDOCK:   -4.97 KCAL/MOL
REMARK 924 INTRA-LIGAND FREE ENERGY PREDICTED BY IDOCK:   -0.29 KCAL/MOL
REMARK 927      BINDING AFFINITY PREDICTED BY RF-SCORE:    0.00 PKD
ROOT
HETATM    1  C   UNL     1      -9.680  19.028  67.947  1.00  0.00    -0.385 C  
HETATM    2  C   UNL     1      -9.650  17.668  68.588  1.00  0.00    -0.307 C  
HETATM    3  C   UNL     1      -8.340  16.930  68.570  1.00  0.00    -0.257 C  
HETATM    4  C   UNL     1     -10.770  17.152  69.137  1.00  0.00    -0.184 C  
ENDROOT
BRANCH   4   5
HETATM    5  C   UNL     1     -10.876  15.835  69.859  1.00  0.00    -0.330 C  
BRANCH   5   6
HETATM    6  C   UNL     1     -12.326  15.348  69.971  1.00  0.00    -0.368 C  
BRANCH   6   7
HETATM    7  C   UNL     1     -12.881  15.430  71.382  1.00  0.00    -0.508 C  
HETATM    8  C   UNL     1     -14.333  15.069  71.560  1.00  0.00    -0.651 C  
HETATM    9  C   UNL     1     -12.116  15.854  72.406  1.00  0.00    -0.605 C  
BRANCH   9  10
HETATM   10  C   UNL     1     -12.536  16.036  73.829  1.00  0.00    -0.610 C  
HETATM   11  O   UNL     1     -12.199  14.860  74.547  1.00  0.00    -0.763 OA 
HETATM   12  H   UNL     1     -12.466  14.976  75.452  1.00  0.00     0.000 HD 
ENDBRANCH   9  10
ENDBRANCH   6   7
ENDBRANCH   5   6
ENDBRANCH   4   5
TORSDOF 4
ENDMDL
MODEL       30
REMARK 921   NORMALIZED FREE ENERGY PREDICTED BY IDOCK:   -4.00 KCAL/MOL
REMARK 922        TOTAL FREE ENERGY PREDICTED BY IDOCK:   -5.26 KCAL/MOL
REMARK 923 INTER-LIGAND FREE ENERGY PREDICTED BY IDOCK:   -4.74 KCAL/MOL
REMARK 924 INTRA-LIGAND FREE ENERGY PREDICTED BY IDOCK:   -0.52 KCAL/MOL
REMARK 927      BINDING AFFINITY PREDICTED BY RF-SCORE:    0.00 PKD
ROOT
HETATM    1  C   UNL     1      -9.957   8.957  66.440  1.00  0.00    -0.354 C  
HETATM    2  C   UNL     1      -9.961  10.305  67.109  1.00  0.00    -0.243 C  
HETATM    3  C   UNL     1      -8.644  11.024  67.208  1.00  0.00    -0.130 C  
HETATM    4  C   UNL     1     -11.109  10.814  67.601  1.00  0.00    -0.384 C  
ENDROOT
BRANCH   4   5
HETATM    5  C   UNL     1     -11.275  12.167  68.242  1.00  0.00    -0.319 C  
BRANCH   5   6
HETATM    6  C   UNL     1     -12.118  13.119  67.384  1.00  0.00    -0.316 C  
BRANCH   6   7
HETATM    7  C   UNL     1     -11.669  13.178  65.934  1.00  0.00    -0.427 C  
HETATM    8  C   UNL     1     -10.369  13.886  65.656  1.00  0.00    -0.337 C  
HETATM    9  C   UNL     1     -12.431  12.662  64.950  1.00  0.00    -0.564 C  
BRANCH   9  10
HETATM   10  C   UNL     1     -12.147  12.693  63.482  1.00  0.00    -0.561 C  
HETATM   11  O   UNL     1     -12.465  13.986  62.994  1.00  0.00    -1.101 OA 
HETATM   12  H   UNL     1     -12.284  14.006  62.061  1.00  0.00     0.000 HD 
ENDBRANCH   9  10
ENDBRANCH   6   7
ENDBRANCH   5   6
ENDBRANCH   4   5
TORSDOF 4
ENDMDL
MODEL       31
REMARK 921   NORMALIZED FREE ENERGY PREDICTED BY IDOCK:   -4.00 KCAL/MOL
REMARK 922        TOTAL FREE ENERGY PREDICTED BY IDOCK:   -5.25 KCAL/MOL
REMARK 923 INTER-LIGAND FREE ENERGY PREDICTED BY IDOCK:   -4.80 KCAL/MOL
REMARK 924 INTRA-LIGAND FREE ENERGY PREDICTED BY IDOCK:   -0.45 KCAL/MOL
REMARK 927      BINDING AFFINITY PREDICTED BY RF-SCORE:    0.00 PKD
ROOT
HETATM    1  C   UNL     1      -9.078  11.008  62.493  1.00  0.00    -0.362 C  
HETATM    2  C   UNL     1     -10.096  11.155  63.591  1.00  0.00    -0.432 C  
HETATM    3  C   UNL     1      -9.952  10.253  64.785  1.00  0.00    -0.392 C  
HETATM    4  C   UNL     1     -11.093  12.056  63.473  1.00  0.00    -0.519 C  
ENDROOT
BRANCH   4   5
HETATM    5  C   UNL     1     -12.146  12.352  64.509  1.00  0.00    -0.492 C  
BRANCH   5   6
HETATM    6  C   UNL     1     -11.811  13.597  65.341  1.00  0.00    -0.370 C  
BRANCH   6   7
HETATM    7  C   UNL     1     -11.789  13.333  66.836  1.00  0.00    -0.446 C  
HETATM    8  C   UNL     1     -11.788  14.541  67.736  1.00  0.00    -0.390 C  
HETATM    9  C   UNL     1     -11.722  12.077  67.319  1.00  0.00    -0.339 C  
BRANCH   9  10
HETATM   10  C   UNL     1     -11.640  11.668  68.755  1.00  0.00    -0.313 C  
HETATM   11  O   UNL     1     -12.561  10.610  68.969  1.00  0.00    -0.746 OA 
HETATM   12  H   UNL     1     -12.509  10.350  69.882  1.00  0.00     0.000 HD 
ENDBRANCH   9  10
ENDBRANCH   6   7
ENDBRANCH   5   6
ENDBRANCH   4   5
TORSDOF 4
ENDMDL
MODEL       32
REMARK 921   NORMALIZED FREE ENERGY PREDICTED BY IDOCK:   -3.99 KCAL/MOL
REMARK 922        TOTAL FREE ENERGY PREDICTED BY IDOCK:   -5.24 KCAL/MOL
REMARK 923 INTER-LIGAND FREE ENERGY PREDICTED BY IDOCK:   -4.65 KCAL/MOL
REMARK 924 INTRA-LIGAND FREE ENERGY PREDICTED BY IDOCK:   -0.59 KCAL/MOL
REMARK 927      BINDING AFFINITY PREDICTED BY RF-SCORE:    0.00 PKD
ROOT
HETATM    1  C   UNL     1      -8.579  15.922  66.478  1.00  0.00    -0.345 C  
HETATM    2  C   UNL     1      -9.995  15.433  66.335  1.00  0.00    -0.295 C  
HETATM    3  C   UNL     1     -10.663  15.648  65.005  1.00  0.00    -0.458 C  
HETATM    4  C   UNL     1     -10.617  14.844  67.377  1.00  0.00    -0.263 C  
ENDROOT
BRANCH   4   5
HETATM    5  C   UNL     1     -12.004  14.258  67.364  1.00  0.00    -0.426 C  
BRANCH   5   6
HETATM    6  C   UNL     1     -11.991  12.731  67.227  1.00  0.00    -0.345 C  
BRANCH   6   7
HETATM    7  C   UNL     1     -11.532  12.254  65.860  1.00  0.00    -0.428 C  
HETATM    8  C   UNL     1     -10.211  11.533  65.803  1.00  0.00    -0.293 C  
HETATM    9  C   UNL     1     -12.257  12.514  64.754  1.00  0.00    -0.532 C  
BRANCH   9  10
HETATM   10  C   UNL     1     -11.909  12.157  63.345  1.00  0.00    -0.461 C  
HETATM   11  O   UNL     1     -12.886  11.250  62.861  1.00  0.00    -0.799 OA 
HETATM   12  H   UNL     1     -12.665  11.023  61.965  1.00  0.00     0.000 HD 
ENDBRANCH   9  10
ENDBRANCH   6   7
ENDBRANCH   5   6
ENDBRANCH   4   5
TORSDOF 4
ENDMDL
MODEL       33
REMARK 921   NORMALIZED FREE ENERGY PREDICTED BY IDOCK:   -3.96 KCAL/MOL
REMARK 922        TOTAL FREE ENERGY PREDICTED BY IDOCK:   -5.20 KCAL/MOL
REMARK 923 INTER-LIGAND FREE ENERGY PREDICTED BY IDOCK:   -4.76 KCAL/MOL
REMARK 924 INTRA-LIGAND FREE ENERGY PREDICTED BY IDOCK:   -0.45 KCAL/MOL
REMARK 927      BINDING AFFINITY PREDICTED BY RF-SCORE:    0.00 PKD
ROOT
HETATM    1  C   UNL     1      -9.743   4.501  70.534  1.00  0.00    -0.290 C  
HETATM    2  C   UNL     1     -10.763   5.605  70.473  1.00  0.00    -0.344 C  
HETATM    3  C   UNL     1     -11.136   6.120  69.110  1.00  0.00    -0.448 C  
HETATM    4  C   UNL     1     -11.293   6.101  71.610  1.00  0.00    -0.341 C  
ENDROOT
BRANCH   4   5
HETATM    5  C   UNL     1     -12.359   7.161  71.702  1.00  0.00    -0.398 C  
BRANCH   5   6
HETATM    6  C   UNL     1     -11.836   8.462  72.324  1.00  0.00    -0.456 C  
BRANCH   6   7
HETATM    7  C   UNL     1     -12.051   9.679  71.442  1.00  0.00    -0.472 C  
HETATM    8  C   UNL     1     -13.247  10.540  71.756  1.00  0.00    -0.522 C  
HETATM    9  C   UNL     1     -11.233   9.938  70.403  1.00  0.00    -0.379 C  
BRANCH   9  10
HETATM   10  C   UNL     1     -11.351  11.061  69.423  1.00  0.00    -0.284 C  
HETATM   11  O   UNL     1     -12.251  10.667  68.400  1.00  0.00    -0.822 OA 
HETATM   12  H   UNL     1     -12.325  11.381  67.777  1.00  0.00     0.000 HD 
ENDBRANCH   9  10
ENDBRANCH   6   7
ENDBRANCH   5   6
ENDBRANCH   4   5
TORSDOF 4
ENDMDL
MODEL       34
REMARK 921   NORMALIZED FREE ENERGY PREDICTED BY IDOCK:   -3.94 KCAL/MOL
REMARK 922        TOTAL FREE ENERGY PREDICTED BY IDOCK:   -5.18 KCAL/MOL
REMARK 923 INTER-LIGAND FREE ENERGY PREDICTED BY IDOCK:   -4.52 KCAL/MOL
REMARK 924 INTRA-LIGAND FREE ENERGY PREDICTED BY IDOCK:   -0.66 KCAL/MOL
REMARK 927      BINDING AFFINITY PREDICTED BY RF-SCORE:    0.00 PKD
ROOT
HETATM    1  C   UNL     1      -9.831   4.687  69.931  1.00  0.00    -0.296 C  
HETATM    2  C   UNL     1     -10.826   5.803  70.095  1.00  0.00    -0.383 C  
HETATM    3  C   UNL     1     -11.215   6.562  68.856  1.00  0.00    -0.341 C  
HETATM    4  C   UNL     1     -11.320   6.098  71.315  1.00  0.00    -0.335 C  
ENDROOT
BRANCH   4   5
HETATM    5  C   UNL     1     -12.358   7.145  71.622  1.00  0.00    -0.398 C  
BRANCH   5   6
HETATM    6  C   UNL     1     -11.745   8.414  72.227  1.00  0.00    -0.453 C  
BRANCH   6   7
HETATM    7  C   UNL     1     -11.330   9.437  71.184  1.00  0.00    -0.422 C  
HETATM    8  C   UNL     1      -9.867   9.487  70.830  1.00  0.00    -0.309 C  
HETATM    9  C   UNL     1     -12.228  10.286  70.648  1.00  0.00    -0.422 C  
BRANCH   9  10
HETATM   10  C   UNL     1     -11.960  11.373  69.657  1.00  0.00    -0.348 C  
HETATM   11  O   UNL     1     -12.177  10.853  68.355  1.00  0.00    -0.813 OA 
HETATM   12  H   UNL     1     -12.006  11.544  67.726  1.00  0.00     0.000 HD 
ENDBRANCH   9  10
ENDBRANCH   6   7
ENDBRANCH   5   6
ENDBRANCH   4   5
TORSDOF 4
ENDMDL
MODEL       35
REMARK 921   NORMALIZED FREE ENERGY PREDICTED BY IDOCK:   -3.94 KCAL/MOL
REMARK 922        TOTAL FREE ENERGY PREDICTED BY IDOCK:   -5.17 KCAL/MOL
REMARK 923 INTER-LIGAND FREE ENERGY PREDICTED BY IDOCK:   -4.96 KCAL/MOL
REMARK 924 INTRA-LIGAND FREE ENERGY PREDICTED BY IDOCK:   -0.21 KCAL/MOL
REMARK 927      BINDING AFFINITY PREDICTED BY RF-SCORE:    0.00 PKD
ROOT
HETATM    1  C   UNL     1     -11.318  11.840  65.260  1.00  0.00    -0.284 C  
HETATM    2  C   UNL     1     -11.830  12.910  66.185  1.00  0.00    -0.487 C  
HETATM    3  C   UNL     1     -12.622  14.029  65.566  1.00  0.00    -0.543 C  
HETATM    4  C   UNL     1     -11.562  12.849  67.506  1.00  0.00    -0.409 C  
ENDROOT
BRANCH   4   5
HETATM    5  C   UNL     1     -12.053  13.813  68.554  1.00  0.00    -0.327 C  
BRANCH   5   6
HETATM    6  C   UNL     1     -11.707  13.353  69.976  1.00  0.00    -0.297 C  
BRANCH   6   7
HETATM    7  C   UNL     1     -12.763  13.724  71.002  1.00  0.00    -0.416 C  
HETATM    8  C   UNL     1     -13.236  12.624  71.914  1.00  0.00    -0.504 C  
HETATM    9  C   UNL     1     -13.279  14.968  71.049  1.00  0.00    -0.483 C  
BRANCH   9  10
HETATM   10  C   UNL     1     -14.354  15.463  71.963  1.00  0.00    -0.550 C  
HETATM   11  O   UNL     1     -13.764  15.784  73.212  1.00  0.00    -0.662 OA 
HETATM   12  H   UNL     1     -14.447  16.099  73.793  1.00  0.00     0.000 HD 
ENDBRANCH   9  10
ENDBRANCH   6   7
ENDBRANCH   5   6
ENDBRANCH   4   5
TORSDOF 4
ENDMDL
MODEL       36
REMARK 921   NORMALIZED FREE ENERGY PREDICTED BY IDOCK:   -3.93 KCAL/MOL
REMARK 922        TOTAL FREE ENERGY PREDICTED BY IDOCK:   -5.17 KCAL/MOL
REMARK 923 INTER-LIGAND FREE ENERGY PREDICTED BY IDOCK:   -5.02 KCAL/MOL
REMARK 924 INTRA-LIGAND FREE ENERGY PREDICTED BY IDOCK:   -0.15 KCAL/MOL
REMARK 927      BINDING AFFINITY PREDICTED BY RF-SCORE:    0.00 PKD
ROOT
HETATM    1  C   UNL     1     -11.162  10.044  69.738  1.00  0.00    -0.307 C  
HETATM    2  C   UNL     1     -11.526  11.372  69.132  1.00  0.00    -0.365 C  
HETATM    3  C   UNL     1     -11.499  11.471  67.632  1.00  0.00    -0.357 C  
HETATM    4  C   UNL     1     -11.843  12.415  69.926  1.00  0.00    -0.376 C  
ENDROOT
BRANCH   4   5
HETATM    5  C   UNL     1     -12.279  13.780  69.463  1.00  0.00    -0.344 C  
BRANCH   5   6
HETATM    6  C   UNL     1     -11.800  14.894  70.402  1.00  0.00    -0.352 C  
BRANCH   6   7
HETATM    7  C   UNL     1     -12.438  14.837  71.779  1.00  0.00    -0.410 C  
HETATM    8  C   UNL     1     -13.837  14.282  71.854  1.00  0.00    -0.545 C  
HETATM    9  C   UNL     1     -11.793  15.308  72.864  1.00  0.00    -0.510 C  
BRANCH   9  10
HETATM   10  C   UNL     1     -12.312  15.366  74.265  1.00  0.00    -0.664 C  
HETATM   11  O   UNL     1     -12.664  16.709  74.555  1.00  0.00    -0.791 OA 
HETATM   12  H   UNL     1     -12.993  16.746  75.445  1.00  0.00     0.000 HD 
ENDBRANCH   9  10
ENDBRANCH   6   7
ENDBRANCH   5   6
ENDBRANCH   4   5
TORSDOF 4
ENDMDL
MODEL       37
REMARK 921   NORMALIZED FREE ENERGY PREDICTED BY IDOCK:   -3.88 KCAL/MOL
REMARK 922        TOTAL FREE ENERGY PREDICTED BY IDOCK:   -5.11 KCAL/MOL
REMARK 923 INTER-LIGAND FREE ENERGY PREDICTED BY IDOCK:   -4.64 KCAL/MOL
REMARK 924 INTRA-LIGAND FREE ENERGY PREDICTED BY IDOCK:   -0.47 KCAL/MOL
REMARK 927      BINDING AFFINITY PREDICTED BY RF-SCORE:    0.00 PKD
ROOT
HETATM    1  C   UNL     1     -10.766   7.220  73.191  1.00  0.00    -0.411 C  
HETATM    2  C   UNL     1     -11.278   8.199  72.170  1.00  0.00    -0.393 C  
HETATM    3  C   UNL     1     -10.380   8.503  71.003  1.00  0.00    -0.261 C  
HETATM    4  C   UNL     1     -12.488   8.774  72.329  1.00  0.00    -0.455 C  
ENDROOT
BRANCH   4   5
HETATM    5  C   UNL     1     -13.150   9.723  71.365  1.00  0.00    -0.489 C  
BRANCH   5   6
HETATM    6  C   UNL     1     -13.043  11.184  71.820  1.00  0.00    -0.536 C  
BRANCH   6   7
HETATM    7  C   UNL     1     -12.506  12.111  70.743  1.00  0.00    -0.362 C  
HETATM    8  C   UNL     1     -12.617  13.590  71.007  1.00  0.00    -0.438 C  
HETATM    9  C   UNL     1     -12.005  11.622  69.592  1.00  0.00    -0.390 C  
BRANCH   9  10
HETATM   10  C   UNL     1     -11.493  12.407  68.428  1.00  0.00    -0.310 C  
HETATM   11  O   UNL     1     -11.861  11.730  67.237  1.00  0.00    -0.596 OA 
HETATM   12  H   UNL     1     -11.535  12.229  66.497  1.00  0.00     0.000 HD 
ENDBRANCH   9  10
ENDBRANCH   6   7
ENDBRANCH   5   6
ENDBRANCH   4   5
TORSDOF 4
ENDMDL
MODEL       38
REMARK 921   NORMALIZED FREE ENERGY PREDICTED BY IDOCK:   -3.86 KCAL/MOL
REMARK 922        TOTAL FREE ENERGY PREDICTED BY IDOCK:   -5.08 KCAL/MOL
REMARK 923 INTER-LIGAND FREE ENERGY PREDICTED BY IDOCK:   -4.46 KCAL/MOL
REMARK 924 INTRA-LIGAND FREE ENERGY PREDICTED BY IDOCK:   -0.62 KCAL/MOL
REMARK 927      BINDING AFFINITY PREDICTED BY RF-SCORE:    0.00 PKD
ROOT
HETATM    1  C   UNL     1      -9.718  17.559  66.320  1.00  0.00    -0.271 C  
HETATM    2  C   UNL     1      -9.955  16.137  65.888  1.00  0.00    -0.384 C  
HETATM    3  C   UNL     1      -8.977  15.102  66.373  1.00  0.00    -0.314 C  
HETATM    4  C   UNL     1     -11.000  15.837  65.090  1.00  0.00    -0.394 C  
ENDROOT
BRANCH   4   5
HETATM    5  C   UNL     1     -11.392  14.459  64.626  1.00  0.00    -0.373 C  
BRANCH   5   6
HETATM    6  C   UNL     1     -12.424  13.804  65.554  1.00  0.00    -0.548 C  
BRANCH   6   7
HETATM    7  C   UNL     1     -11.822  12.766  66.485  1.00  0.00    -0.471 C  
HETATM    8  C   UNL     1     -11.039  11.652  65.841  1.00  0.00    -0.320 C  
HETATM    9  C   UNL     1     -12.029  12.824  67.815  1.00  0.00    -0.316 C  
BRANCH   9  10
HETATM   10  C   UNL     1     -11.547  11.851  68.844  1.00  0.00    -0.311 C  
HETATM   11  O   UNL     1     -12.508  10.813  68.959  1.00  0.00    -0.757 OA 
HETATM   12  H   UNL     1     -12.202  10.195  69.612  1.00  0.00     0.000 HD 
ENDBRANCH   9  10
ENDBRANCH   6   7
ENDBRANCH   5   6
ENDBRANCH   4   5
TORSDOF 4
ENDMDL
MODEL       39
REMARK 921   NORMALIZED FREE ENERGY PREDICTED BY IDOCK:   -3.85 KCAL/MOL
REMARK 922        TOTAL FREE ENERGY PREDICTED BY IDOCK:   -5.07 KCAL/MOL
REMARK 923 INTER-LIGAND FREE ENERGY PREDICTED BY IDOCK:   -4.52 KCAL/MOL
REMARK 924 INTRA-LIGAND FREE ENERGY PREDICTED BY IDOCK:   -0.55 KCAL/MOL
REMARK 927      BINDING AFFINITY PREDICTED BY RF-SCORE:    0.00 PKD
ROOT
HETATM    1  C   UNL     1     -12.372  12.240  63.512  1.00  0.00    -0.670 C  
HETATM    2  C   UNL     1     -12.197  13.241  64.621  1.00  0.00    -0.460 C  
HETATM    3  C   UNL     1     -12.199  14.696  64.238  1.00  0.00    -0.432 C  
HETATM    4  C   UNL     1     -12.034  12.822  65.892  1.00  0.00    -0.506 C  
ENDROOT
BRANCH   4   5
HETATM    5  C   UNL     1     -11.905  13.705  67.106  1.00  0.00    -0.435 C  
BRANCH   5   6
HETATM    6  C   UNL     1     -10.449  14.090  67.394  1.00  0.00    -0.263 C  
BRANCH   6   7
HETATM    7  C   UNL     1     -10.148  15.552  67.118  1.00  0.00    -0.254 C  
HETATM    8  C   UNL     1      -9.084  15.842  66.092  1.00  0.00    -0.385 C  
HETATM    9  C   UNL     1     -10.773  16.531  67.801  1.00  0.00    -0.329 C  
BRANCH   9  10
HETATM   10  C   UNL     1     -10.543  18.004  67.676  1.00  0.00    -0.399 C  
HETATM   11  O   UNL     1     -10.016  18.478  68.905  1.00  0.00    -0.384 OA 
HETATM   12  H   UNL     1      -9.871  19.414  68.826  1.00  0.00     0.000 HD 
ENDBRANCH   9  10
ENDBRANCH   6   7
ENDBRANCH   5   6
ENDBRANCH   4   5
TORSDOF 4
ENDMDL
MODEL       40
REMARK 921   NORMALIZED FREE ENERGY PREDICTED BY IDOCK:   -3.84 KCAL/MOL
REMARK 922        TOTAL FREE ENERGY PREDICTED BY IDOCK:   -5.06 KCAL/MOL
REMARK 923 INTER-LIGAND FREE ENERGY PREDICTED BY IDOCK:   -4.82 KCAL/MOL
REMARK 924 INTRA-LIGAND FREE ENERGY PREDICTED BY IDOCK:   -0.23 KCAL/MOL
REMARK 927      BINDING AFFINITY PREDICTED BY RF-SCORE:    0.00 PKD
ROOT
HETATM    1  C   UNL     1     -11.014   8.194  72.506  1.00  0.00    -0.439 C  
HETATM    2  C   UNL     1     -11.796   9.273  71.809  1.00  0.00    -0.454 C  
HETATM    3  C   UNL     1     -13.238   9.438  72.204  1.00  0.00    -0.541 C  
HETATM    4  C   UNL     1     -11.207  10.035  70.865  1.00  0.00    -0.415 C  
ENDROOT
BRANCH   4   5
HETATM    5  C   UNL     1     -11.846  11.182  70.127  1.00  0.00    -0.449 C  
BRANCH   5   6
HETATM    6  C   UNL     1     -11.704  11.049  68.606  1.00  0.00    -0.367 C  
BRANCH   6   7
HETATM    7  C   UNL     1     -11.696  12.384  67.883  1.00  0.00    -0.421 C  
HETATM    8  C   UNL     1     -11.588  12.340  66.381  1.00  0.00    -0.445 C  
HETATM    9  C   UNL     1     -11.733  13.544  68.566  1.00  0.00    -0.392 C  
BRANCH   9  10
HETATM   10  C   UNL     1     -11.679  14.926  67.998  1.00  0.00    -0.320 C  
HETATM   11  O   UNL     1     -12.264  15.816  68.935  1.00  0.00    -0.581 OA 
HETATM   12  H   UNL     1     -12.230  16.694  68.574  1.00  0.00     0.000 HD 
ENDBRANCH   9  10
ENDBRANCH   6   7
ENDBRANCH   5   6
ENDBRANCH   4   5
TORSDOF 4
ENDMDL
MODEL       41
REMARK 921   NORMALIZED FREE ENERGY PREDICTED BY IDOCK:   -3.84 KCAL/MOL
REMARK 922        TOTAL FREE ENERGY PREDICTED BY IDOCK:   -5.05 KCAL/MOL
REMARK 923 INTER-LIGAND FREE ENERGY PREDICTED BY IDOCK:   -4.78 KCAL/MOL
REMARK 924 INTRA-LIGAND FREE ENERGY PREDICTED BY IDOCK:   -0.27 KCAL/MOL
REMARK 927      BINDING AFFINITY PREDICTED BY RF-SCORE:    0.00 PKD
ROOT
HETATM    1  C   UNL     1      -8.202  18.937  66.374  1.00  0.00    -0.306 C  
HETATM    2  C   UNL     1      -9.396  18.047  66.589  1.00  0.00    -0.297 C  
HETATM    3  C   UNL     1     -10.618  18.675  67.200  1.00  0.00    -0.468 C  
HETATM    4  C   UNL     1      -9.337  16.743  66.251  1.00  0.00    -0.310 C  
ENDROOT
BRANCH   4   5
HETATM    5  C   UNL     1     -10.465  15.750  66.355  1.00  0.00    -0.307 C  
BRANCH   5   6
HETATM    6  C   UNL     1     -11.123  15.470  64.998  1.00  0.00    -0.411 C  
BRANCH   6   7
HETATM    7  C   UNL     1     -11.755  14.093  64.909  1.00  0.00    -0.395 C  
HETATM    8  C   UNL     1     -12.203  13.468  66.204  1.00  0.00    -0.484 C  
HETATM    9  C   UNL     1     -11.859  13.451  63.729  1.00  0.00    -0.483 C  
BRANCH   9  10
HETATM   10  C   UNL     1     -12.406  12.080  63.494  1.00  0.00    -0.551 C  
HETATM   11  O   UNL     1     -11.320  11.203  63.243  1.00  0.00    -0.771 OA 
HETATM   12  H   UNL     1     -11.667  10.332  63.095  1.00  0.00     0.000 HD 
ENDBRANCH   9  10
ENDBRANCH   6   7
ENDBRANCH   5   6
ENDBRANCH   4   5
TORSDOF 4
ENDMDL
MODEL       42
REMARK 921   NORMALIZED FREE ENERGY PREDICTED BY IDOCK:   -3.83 KCAL/MOL
REMARK 922        TOTAL FREE ENERGY PREDICTED BY IDOCK:   -5.04 KCAL/MOL
REMARK 923 INTER-LIGAND FREE ENERGY PREDICTED BY IDOCK:   -4.85 KCAL/MOL
REMARK 924 INTRA-LIGAND FREE ENERGY PREDICTED BY IDOCK:   -0.20 KCAL/MOL
REMARK 927      BINDING AFFINITY PREDICTED BY RF-SCORE:    0.00 PKD
ROOT
HETATM    1  C   UNL     1     -10.999  14.882  65.523  1.00  0.00    -0.355 C  
HETATM    2  C   UNL     1     -11.605  13.623  66.081  1.00  0.00    -0.369 C  
HETATM    3  C   UNL     1     -12.574  12.881  65.203  1.00  0.00    -0.536 C  
HETATM    4  C   UNL     1     -11.284  13.210  67.324  1.00  0.00    -0.319 C  
ENDROOT
BRANCH   4   5
HETATM    5  C   UNL     1     -11.766  11.948  67.990  1.00  0.00    -0.382 C  
BRANCH   5   6
HETATM    6  C   UNL     1     -11.912  12.109  69.508  1.00  0.00    -0.338 C  
BRANCH   6   7
HETATM    7  C   UNL     1     -11.949  10.787  70.253  1.00  0.00    -0.438 C  
HETATM    8  C   UNL     1     -11.026   9.704  69.756  1.00  0.00    -0.266 C  
HETATM    9  C   UNL     1     -12.805  10.588  71.274  1.00  0.00    -0.532 C  
BRANCH   9  10
HETATM   10  C   UNL     1     -12.990   9.330  72.062  1.00  0.00    -0.425 C  
HETATM   11  O   UNL     1     -14.166   9.464  72.844  1.00  0.00    -0.889 OA 
HETATM   12  H   UNL     1     -14.284   8.665  73.345  1.00  0.00     0.000 HD 
ENDBRANCH   9  10
ENDBRANCH   6   7
ENDBRANCH   5   6
ENDBRANCH   4   5
TORSDOF 4
ENDMDL
MODEL       43
REMARK 921   NORMALIZED FREE ENERGY PREDICTED BY IDOCK:   -3.82 KCAL/MOL
REMARK 922        TOTAL FREE ENERGY PREDICTED BY IDOCK:   -5.03 KCAL/MOL
REMARK 923 INTER-LIGAND FREE ENERGY PREDICTED BY IDOCK:   -4.75 KCAL/MOL
REMARK 924 INTRA-LIGAND FREE ENERGY PREDICTED BY IDOCK:   -0.27 KCAL/MOL
REMARK 927      BINDING AFFINITY PREDICTED BY RF-SCORE:    0.00 PKD
ROOT
HETATM    1  C   UNL     1     -13.114  15.519  71.247  1.00  0.00    -0.581 C  
HETATM    2  C   UNL     1     -12.207  15.224  70.084  1.00  0.00    -0.402 C  
HETATM    3  C   UNL     1     -11.124  16.226  69.788  1.00  0.00    -0.337 C  
HETATM    4  C   UNL     1     -12.389  14.109  69.348  1.00  0.00    -0.246 C  
ENDROOT
BRANCH   4   5
HETATM    5  C   UNL     1     -11.529  13.657  68.197  1.00  0.00    -0.348 C  
BRANCH   5   6
HETATM    6  C   UNL     1     -12.144  14.008  66.837  1.00  0.00    -0.465 C  
BRANCH   6   7
HETATM    7  C   UNL     1     -11.341  13.485  65.660  1.00  0.00    -0.312 C  
HETATM    8  C   UNL     1     -10.583  14.504  64.850  1.00  0.00    -0.450 C  
HETATM    9  C   UNL     1     -11.354  12.177  65.337  1.00  0.00    -0.388 C  
BRANCH   9  10
HETATM   10  C   UNL     1     -10.659  11.527  64.183  1.00  0.00    -0.363 C  
HETATM   11  O   UNL     1     -11.588  11.401  63.118  1.00  0.00    -0.862 OA 
HETATM   12  H   UNL     1     -11.146  10.989  62.385  1.00  0.00     0.000 HD 
ENDBRANCH   9  10
ENDBRANCH   6   7
ENDBRANCH   5   6
ENDBRANCH   4   5
TORSDOF 4
ENDMDL
MODEL       44
REMARK 921   NORMALIZED FREE ENERGY PREDICTED BY IDOCK:   -3.81 KCAL/MOL
REMARK 922        TOTAL FREE ENERGY PREDICTED BY IDOCK:   -5.02 KCAL/MOL
REMARK 923 INTER-LIGAND FREE ENERGY PREDICTED BY IDOCK:   -4.73 KCAL/MOL
REMARK 924 INTRA-LIGAND FREE ENERGY PREDICTED BY IDOCK:   -0.29 KCAL/MOL
REMARK 927      BINDING AFFINITY PREDICTED BY RF-SCORE:    0.00 PKD
ROOT
HETATM    1  C   UNL     1     -11.942   8.135  72.308  1.00  0.00    -0.434 C  
HETATM    2  C   UNL     1     -11.938   9.430  71.542  1.00  0.00    -0.456 C  
HETATM    3  C   UNL     1     -10.893   9.590  70.472  1.00  0.00    -0.352 C  
HETATM    4  C   UNL     1     -12.836  10.393  71.834  1.00  0.00    -0.519 C  
ENDROOT
BRANCH   4   5
HETATM    5  C   UNL     1     -12.987  11.710  71.118  1.00  0.00    -0.308 C  
BRANCH   5   6
HETATM    6  C   UNL     1     -13.295  12.864  72.080  1.00  0.00    -0.615 C  
BRANCH   6   7
HETATM    7  C   UNL     1     -12.665  14.180  71.661  1.00  0.00    -0.430 C  
HETATM    8  C   UNL     1     -13.114  15.412  72.403  1.00  0.00    -0.501 C  
HETATM    9  C   UNL     1     -11.788  14.237  70.640  1.00  0.00    -0.349 C  
BRANCH   9  10
HETATM   10  C   UNL     1     -11.131  15.460  70.084  1.00  0.00    -0.307 C  
HETATM   11  O   UNL     1      -9.727  15.260  70.106  1.00  0.00    -0.460 OA 
HETATM   12  H   UNL     1      -9.309  16.037  69.752  1.00  0.00     0.000 HD 
ENDBRANCH   9  10
ENDBRANCH   6   7
ENDBRANCH   5   6
ENDBRANCH   4   5
TORSDOF 4
ENDMDL
MODEL       45
REMARK 921   NORMALIZED FREE ENERGY PREDICTED BY IDOCK:   -3.80 KCAL/MOL
REMARK 922        TOTAL FREE ENERGY PREDICTED BY IDOCK:   -5.01 KCAL/MOL
REMARK 923 INTER-LIGAND FREE ENERGY PREDICTED BY IDOCK:   -4.72 KCAL/MOL
REMARK 924 INTRA-LIGAND FREE ENERGY PREDICTED BY IDOCK:   -0.29 KCAL/MOL
REMARK 927      BINDING AFFINITY PREDICTED BY RF-SCORE:    0.00 PKD
ROOT
HETATM    1  C   UNL     1     -12.496  12.151  63.361  1.00  0.00    -0.625 C  
HETATM    2  C   UNL     1     -11.900  12.346  64.729  1.00  0.00    -0.442 C  
HETATM    3  C   UNL     1     -10.687  11.526  65.072  1.00  0.00    -0.350 C  
HETATM    4  C   UNL     1     -12.461  13.216  65.594  1.00  0.00    -0.485 C  
ENDROOT
BRANCH   4   5
HETATM    5  C   UNL     1     -11.945  13.556  66.967  1.00  0.00    -0.440 C  
BRANCH   5   6
HETATM    6  C   UNL     1     -11.231  14.913  67.003  1.00  0.00    -0.344 C  
BRANCH   6   7
HETATM    7  C   UNL     1     -11.323  15.606  68.350  1.00  0.00    -0.365 C  
HETATM    8  C   UNL     1     -10.709  16.978  68.449  1.00  0.00    -0.361 C  
HETATM    9  C   UNL     1     -11.884  14.992  69.410  1.00  0.00    -0.358 C  
BRANCH   9  10
HETATM   10  C   UNL     1     -11.998  15.525  70.803  1.00  0.00    -0.378 C  
HETATM   11  O   UNL     1     -10.937  14.986  71.575  1.00  0.00    -0.571 OA 
HETATM   12  H   UNL     1     -11.010  15.325  72.459  1.00  0.00     0.000 HD 
ENDBRANCH   9  10
ENDBRANCH   6   7
ENDBRANCH   5   6
ENDBRANCH   4   5
TORSDOF 4
ENDMDL
MODEL       46
REMARK 921   NORMALIZED FREE ENERGY PREDICTED BY IDOCK:   -3.80 KCAL/MOL
REMARK 922        TOTAL FREE ENERGY PREDICTED BY IDOCK:   -5.01 KCAL/MOL
REMARK 923 INTER-LIGAND FREE ENERGY PREDICTED BY IDOCK:   -4.35 KCAL/MOL
REMARK 924 INTRA-LIGAND FREE ENERGY PREDICTED BY IDOCK:   -0.65 KCAL/MOL
REMARK 927      BINDING AFFINITY PREDICTED BY RF-SCORE:    0.00 PKD
ROOT
HETATM    1  C   UNL     1      -8.943  10.278  64.283  1.00  0.00    -0.261 C  
HETATM    2  C   UNL     1     -10.242  10.939  64.656  1.00  0.00    -0.411 C  
HETATM    3  C   UNL     1     -10.671  10.845  66.094  1.00  0.00    -0.225 C  
HETATM    4  C   UNL     1     -10.975  11.570  63.716  1.00  0.00    -0.485 C  
ENDROOT
BRANCH   4   5
HETATM    5  C   UNL     1     -12.260  12.320  63.951  1.00  0.00    -0.608 C  
BRANCH   5   6
HETATM    6  C   UNL     1     -12.066  13.841  63.891  1.00  0.00    -0.423 C  
BRANCH   6   7
HETATM    7  C   UNL     1     -11.339  14.402  65.100  1.00  0.00    -0.359 C  
HETATM    8  C   UNL     1     -12.003  14.212  66.438  1.00  0.00    -0.457 C  
HETATM    9  C   UNL     1     -10.182  15.079  64.962  1.00  0.00    -0.349 C  
BRANCH   9  10
HETATM   10  C   UNL     1      -9.385  15.730  66.046  1.00  0.00    -0.349 C  
HETATM   11  O   UNL     1      -8.453  14.784  66.544  1.00  0.00    -0.424 OA 
HETATM   12  H   UNL     1      -7.947  15.197  67.233  1.00  0.00     0.000 HD 
ENDBRANCH   9  10
ENDBRANCH   6   7
ENDBRANCH   5   6
ENDBRANCH   4   5
TORSDOF 4
ENDMDL
MODEL       47
REMARK 921   NORMALIZED FREE ENERGY PREDICTED BY IDOCK:   -3.80 KCAL/MOL
REMARK 922        TOTAL FREE ENERGY PREDICTED BY IDOCK:   -5.00 KCAL/MOL
REMARK 923 INTER-LIGAND FREE ENERGY PREDICTED BY IDOCK:   -4.71 KCAL/MOL
REMARK 924 INTRA-LIGAND FREE ENERGY PREDICTED BY IDOCK:   -0.29 KCAL/MOL
REMARK 927      BINDING AFFINITY PREDICTED BY RF-SCORE:    0.00 PKD
ROOT
HETATM    1  C   UNL     1      -9.745  11.488  63.137  1.00  0.00    -0.412 C  
HETATM    2  C   UNL     1     -10.817  12.191  63.924  1.00  0.00    -0.461 C  
HETATM    3  C   UNL     1     -12.230  12.055  63.430  1.00  0.00    -0.627 C  
HETATM    4  C   UNL     1     -10.492  12.917  65.014  1.00  0.00    -0.337 C  
ENDROOT
BRANCH   4   5
HETATM    5  C   UNL     1     -11.458  13.625  65.927  1.00  0.00    -0.329 C  
BRANCH   5   6
HETATM    6  C   UNL     1     -11.939  12.729  67.074  1.00  0.00    -0.364 C  
BRANCH   6   7
HETATM    7  C   UNL     1     -11.908  13.415  68.428  1.00  0.00    -0.401 C  
HETATM    8  C   UNL     1     -11.824  12.522  69.638  1.00  0.00    -0.382 C  
HETATM    9  C   UNL     1     -12.001  14.755  68.529  1.00  0.00    -0.284 C  
BRANCH   9  10
HETATM   10  C   UNL     1     -12.037  15.563  69.787  1.00  0.00    -0.349 C  
HETATM   11  O   UNL     1     -13.383  15.645  70.226  1.00  0.00    -0.761 OA 
HETATM   12  H   UNL     1     -13.406  16.158  71.025  1.00  0.00     0.000 HD 
ENDBRANCH   9  10
ENDBRANCH   6   7
ENDBRANCH   5   6
ENDBRANCH   4   5
TORSDOF 4
ENDMDL
MODEL       48
REMARK 921   NORMALIZED FREE ENERGY PREDICTED BY IDOCK:   -3.79 KCAL/MOL
REMARK 922        TOTAL FREE ENERGY PREDICTED BY IDOCK:   -4.99 KCAL/MOL
REMARK 923 INTER-LIGAND FREE ENERGY PREDICTED BY IDOCK:   -4.79 KCAL/MOL
REMARK 924 INTRA-LIGAND FREE ENERGY PREDICTED BY IDOCK:   -0.20 KCAL/MOL
REMARK 927      BINDING AFFINITY PREDICTED BY RF-SCORE:    0.00 PKD
ROOT
HETATM    1  C   UNL     1     -10.520   7.692  67.215  1.00  0.00    -0.396 C  
HETATM    2  C   UNL     1     -10.409   9.188  67.329  1.00  0.00    -0.338 C  
HETATM    3  C   UNL     1     -10.238   9.759  68.709  1.00  0.00    -0.210 C  
HETATM    4  C   UNL     1     -10.477   9.958  66.223  1.00  0.00    -0.171 C  
ENDROOT
BRANCH   4   5
HETATM    5  C   UNL     1     -10.325  11.455  66.177  1.00  0.00    -0.294 C  
BRANCH   5   6
HETATM    6  C   UNL     1     -11.064  12.079  64.986  1.00  0.00    -0.368 C  
BRANCH   6   7
HETATM    7  C   UNL     1     -11.410  13.543  65.193  1.00  0.00    -0.315 C  
HETATM    8  C   UNL     1     -12.698  13.839  65.915  1.00  0.00    -0.452 C  
HETATM    9  C   UNL     1     -10.619  14.519  64.706  1.00  0.00    -0.401 C  
BRANCH   9  10
HETATM   10  C   UNL     1     -10.856  15.993  64.785  1.00  0.00    -0.294 C  
HETATM   11  O   UNL     1     -11.757  16.356  63.751  1.00  0.00    -1.553 OA 
HETATM   12  H   UNL     1     -11.907  17.293  63.801  1.00  0.00     0.000 HD 
ENDBRANCH   9  10
ENDBRANCH   6   7
ENDBRANCH   5   6
ENDBRANCH   4   5
TORSDOF 4
ENDMDL
MODEL       49
REMARK 921   NORMALIZED FREE ENERGY PREDICTED BY IDOCK:   -3.78 KCAL/MOL
REMARK 922        TOTAL FREE ENERGY PREDICTED BY IDOCK:   -4.98 KCAL/MOL
REMARK 923 INTER-LIGAND FREE ENERGY PREDICTED BY IDOCK:   -4.37 KCAL/MOL
REMARK 924 INTRA-LIGAND FREE ENERGY PREDICTED BY IDOCK:   -0.61 KCAL/MOL
REMARK 927      BINDING AFFINITY PREDICTED BY RF-SCORE:    0.00 PKD
ROOT
HETATM    1  C   UNL     1     -10.732  15.524  64.952  1.00  0.00    -0.415 C  
HETATM    2  C   UNL     1     -11.295  14.131  64.871  1.00  0.00    -0.365 C  
HETATM    3  C   UNL     1     -12.553  13.855  65.647  1.00  0.00    -0.553 C  
HETATM    4  C   UNL     1     -10.668  13.189  64.137  1.00  0.00    -0.399 C  
ENDROOT
BRANCH   4   5
HETATM    5  C   UNL     1     -11.142  11.776  63.920  1.00  0.00    -0.482 C  
BRANCH   5   6
HETATM    6  C   UNL     1     -10.211  10.742  64.566  1.00  0.00    -0.428 C  
BRANCH   6   7
HETATM    7  C   UNL     1     -10.041  10.938  66.062  1.00  0.00    -0.303 C  
HETATM    8  C   UNL     1      -8.669  11.332  66.541  1.00  0.00    -0.178 C  
HETATM    9  C   UNL     1     -11.063  10.718  66.911  1.00  0.00    -0.204 C  
BRANCH   9  10
HETATM   10  C   UNL     1     -11.032  10.818  68.403  1.00  0.00    -0.248 C  
HETATM   11  O   UNL     1     -12.353  10.648  68.889  1.00  0.00    -0.800 OA 
HETATM   12  H   UNL     1     -12.333  10.712  69.837  1.00  0.00     0.000 HD 
ENDBRANCH   9  10
ENDBRANCH   6   7
ENDBRANCH   5   6
ENDBRANCH   4   5
TORSDOF 4
ENDMDL
MODEL       50
REMARK 921   NORMALIZED FREE ENERGY PREDICTED BY IDOCK:   -3.78 KCAL/MOL
REMARK 922        TOTAL FREE ENERGY PREDICTED BY IDOCK:   -4.98 KCAL/MOL
REMARK 923 INTER-LIGAND FREE ENERGY PREDICTED BY IDOCK:   -4.70 KCAL/MOL
REMARK 924 INTRA-LIGAND FREE ENERGY PREDICTED BY IDOCK:   -0.28 KCAL/MOL
REMARK 927      BINDING AFFINITY PREDICTED BY RF-SCORE:    0.00 PKD
ROOT
HETATM    1  C   UNL     1     -10.372  17.210  68.301  1.00  0.00    -0.354 C  
HETATM    2  C   UNL     1     -11.108  15.900  68.233  1.00  0.00    -0.345 C  
HETATM    3  C   UNL     1     -11.848  15.464  69.467  1.00  0.00    -0.370 C  
HETATM    4  C   UNL     1     -11.075  15.163  67.104  1.00  0.00    -0.335 C  
ENDROOT
BRANCH   4   5
HETATM    5  C   UNL     1     -11.804  13.866  66.871  1.00  0.00    -0.453 C  
BRANCH   5   6
HETATM    6  C   UNL     1     -12.433  13.794  65.474  1.00  0.00    -0.548 C  
BRANCH   6   7
HETATM    7  C   UNL     1     -11.779  12.761  64.573  1.00  0.00    -0.420 C  
HETATM    8  C   UNL     1     -12.625  12.201  63.459  1.00  0.00    -0.621 C  
HETATM    9  C   UNL     1     -10.520  12.339  64.800  1.00  0.00    -0.328 C  
BRANCH   9  10
HETATM   10  C   UNL     1      -9.768  11.297  64.035  1.00  0.00    -0.265 C  
HETATM   11  O   UNL     1      -9.063  11.938  62.985  1.00  0.00    -0.658 OA 
HETATM   12  H   UNL     1      -8.585  11.276  62.498  1.00  0.00     0.000 HD 
ENDBRANCH   9  10
ENDBRANCH   6   7
ENDBRANCH   5   6
ENDBRANCH   4   5
TORSDOF 4
ENDMDL
MODEL       51
REMARK 921   NORMALIZED FREE ENERGY PREDICTED BY IDOCK:   -3.77 KCAL/MOL
REMARK 922        TOTAL FREE ENERGY PREDICTED BY IDOCK:   -4.97 KCAL/MOL
REMARK 923 INTER-LIGAND FREE ENERGY PREDICTED BY IDOCK:   -4.65 KCAL/MOL
REMARK 924 INTRA-LIGAND FREE ENERGY PREDICTED BY IDOCK:   -0.33 KCAL/MOL
REMARK 927      BINDING AFFINITY PREDICTED BY RF-SCORE:    0.00 PKD
ROOT
HETATM    1  C   UNL     1      -9.847   4.551  71.260  1.00  0.00    -0.260 C  
HETATM    2  C   UNL     1     -10.937   5.388  71.872  1.00  0.00    -0.219 C  
HETATM    3  C   UNL     1     -11.309   5.091  73.299  1.00  0.00    -0.393 C  
HETATM    4  C   UNL     1     -11.545   6.346  71.144  1.00  0.00    -0.378 C  
ENDROOT
BRANCH   4   5
HETATM    5  C   UNL     1     -12.607   7.294  71.637  1.00  0.00    -0.403 C  
BRANCH   5   6
HETATM    6  C   UNL     1     -12.011   8.541  72.302  1.00  0.00    -0.454 C  
BRANCH   6   7
HETATM    7  C   UNL     1     -12.141   9.794  71.455  1.00  0.00    -0.493 C  
HETATM    8  C   UNL     1     -13.212  10.775  71.857  1.00  0.00    -0.524 C  
HETATM    9  C   UNL     1     -11.364   9.983  70.371  1.00  0.00    -0.392 C  
BRANCH   9  10
HETATM   10  C   UNL     1     -11.413  11.135  69.418  1.00  0.00    -0.298 C  
HETATM   11  O   UNL     1     -12.250  10.777  68.330  1.00  0.00    -0.832 OA 
HETATM   12  H   UNL     1     -12.282  11.508  67.724  1.00  0.00     0.000 HD 
ENDBRANCH   9  10
ENDBRANCH   6   7
ENDBRANCH   5   6
ENDBRANCH   4   5
TORSDOF 4
ENDMDL
MODEL       52
REMARK 921   NORMALIZED FREE ENERGY PREDICTED BY IDOCK:   -3.76 KCAL/MOL
REMARK 922        TOTAL FREE ENERGY PREDICTED BY IDOCK:   -4.96 KCAL/MOL
REMARK 923 INTER-LIGAND FREE ENERGY PREDICTED BY IDOCK:   -4.74 KCAL/MOL
REMARK 924 INTRA-LIGAND FREE ENERGY PREDICTED BY IDOCK:   -0.22 KCAL/MOL
REMARK 927      BINDING AFFINITY PREDICTED BY RF-SCORE:    0.00 PKD
ROOT
HETATM    1  C   UNL     1     -12.500  11.993  63.354  1.00  0.00    -0.625 C  
HETATM    2  C   UNL     1     -11.814  12.653  64.519  1.00  0.00    -0.441 C  
HETATM    3  C   UNL     1     -10.337  12.903  64.392  1.00  0.00    -0.393 C  
HETATM    4  C   UNL     1     -12.517  12.980  65.623  1.00  0.00    -0.452 C  
ENDROOT
BRANCH   4   5
HETATM    5  C   UNL     1     -11.979  13.691  66.837  1.00  0.00    -0.454 C  
BRANCH   5   6
HETATM    6  C   UNL     1     -11.172  12.758  67.749  1.00  0.00    -0.317 C  
BRANCH   6   7
HETATM    7  C   UNL     1     -11.864  12.461  69.067  1.00  0.00    -0.349 C  
HETATM    8  C   UNL     1     -12.316  13.648  69.877  1.00  0.00    -0.310 C  
HETATM    9  C   UNL     1     -12.013  11.195  69.504  1.00  0.00    -0.425 C  
BRANCH   9  10
HETATM   10  C   UNL     1     -12.621  10.754  70.796  1.00  0.00    -0.383 C  
HETATM   11  O   UNL     1     -13.610   9.777  70.513  1.00  0.00    -0.591 OA 
HETATM   12  H   UNL     1     -13.997   9.497  71.335  1.00  0.00     0.000 HD 
ENDBRANCH   9  10
ENDBRANCH   6   7
ENDBRANCH   5   6
ENDBRANCH   4   5
TORSDOF 4
ENDMDL
MODEL       53
REMARK 921   NORMALIZED FREE ENERGY PREDICTED BY IDOCK:   -3.75 KCAL/MOL
REMARK 922        TOTAL FREE ENERGY PREDICTED BY IDOCK:   -4.94 KCAL/MOL
REMARK 923 INTER-LIGAND FREE ENERGY PREDICTED BY IDOCK:   -4.48 KCAL/MOL
REMARK 924 INTRA-LIGAND FREE ENERGY PREDICTED BY IDOCK:   -0.46 KCAL/MOL
REMARK 927      BINDING AFFINITY PREDICTED BY RF-SCORE:    0.00 PKD
ROOT
HETATM    1  C   UNL     1     -12.863  14.130  71.130  1.00  0.00    -0.431 C  
HETATM    2  C   UNL     1     -11.982  13.497  70.088  1.00  0.00    -0.399 C  
HETATM    3  C   UNL     1     -12.000  11.996  69.995  1.00  0.00    -0.400 C  
HETATM    4  C   UNL     1     -11.209  14.268  69.295  1.00  0.00    -0.309 C  
ENDROOT
BRANCH   4   5
HETATM    5  C   UNL     1     -10.325  13.782  68.177  1.00  0.00    -0.252 C  
BRANCH   5   6
HETATM    6  C   UNL     1     -10.944  14.025  66.796  1.00  0.00    -0.298 C  
BRANCH   6   7
HETATM    7  C   UNL     1     -10.876  12.812  65.884  1.00  0.00    -0.295 C  
HETATM    8  C   UNL     1     -10.893  11.462  66.551  1.00  0.00    -0.334 C  
HETATM    9  C   UNL     1     -10.755  12.953  64.550  1.00  0.00    -0.392 C  
BRANCH   9  10
HETATM   10  C   UNL     1     -10.625  11.860  63.538  1.00  0.00    -0.453 C  
HETATM   11  O   UNL     1     -11.918  11.555  63.041  1.00  0.00    -0.917 OA 
HETATM   12  H   UNL     1     -11.835  10.860  62.398  1.00  0.00     0.000 HD 
ENDBRANCH   9  10
ENDBRANCH   6   7
ENDBRANCH   5   6
ENDBRANCH   4   5
TORSDOF 4
ENDMDL
MODEL       54
REMARK 921   NORMALIZED FREE ENERGY PREDICTED BY IDOCK:   -3.75 KCAL/MOL
REMARK 922        TOTAL FREE ENERGY PREDICTED BY IDOCK:   -4.94 KCAL/MOL
REMARK 923 INTER-LIGAND FREE ENERGY PREDICTED BY IDOCK:   -4.67 KCAL/MOL
REMARK 924 INTRA-LIGAND FREE ENERGY PREDICTED BY IDOCK:   -0.27 KCAL/MOL
REMARK 927      BINDING AFFINITY PREDICTED BY RF-SCORE:    0.00 PKD
ROOT
HETATM    1  C   UNL     1      -9.623  16.457  66.966  1.00  0.00    -0.244 C  
HETATM    2  C   UNL     1     -10.802  15.718  67.538  1.00  0.00    -0.315 C  
HETATM    3  C   UNL     1     -11.415  14.641  66.686  1.00  0.00    -0.363 C  
HETATM    4  C   UNL     1     -11.275  16.039  68.760  1.00  0.00    -0.360 C  
ENDROOT
BRANCH   4   5
HETATM    5  C   UNL     1     -12.406  15.353  69.480  1.00  0.00    -0.207 C  
BRANCH   5   6
HETATM    6  C   UNL     1     -11.914  14.500  70.657  1.00  0.00    -0.387 C  
BRANCH   6   7
HETATM    7  C   UNL     1     -12.616  14.819  71.965  1.00  0.00    -0.401 C  
HETATM    8  C   UNL     1     -14.117  14.696  71.975  1.00  0.00    -0.603 C  
HETATM    9  C   UNL     1     -11.922  15.238  73.041  1.00  0.00    -0.517 C  
BRANCH   9  10
HETATM   10  C   UNL     1     -12.477  15.637  74.371  1.00  0.00    -0.634 C  
HETATM   11  O   UNL     1     -12.318  17.039  74.518  1.00  0.00    -0.634 OA 
HETATM   12  H   UNL     1     -12.671  17.292  75.363  1.00  0.00     0.000 HD 
ENDBRANCH   9  10
ENDBRANCH   6   7
ENDBRANCH   5   6
ENDBRANCH   4   5
TORSDOF 4
ENDMDL
MODEL       55
REMARK 921   NORMALIZED FREE ENERGY PREDICTED BY IDOCK:   -3.75 KCAL/MOL
REMARK 922        TOTAL FREE ENERGY PREDICTED BY IDOCK:   -4.94 KCAL/MOL
REMARK 923 INTER-LIGAND FREE ENERGY PREDICTED BY IDOCK:   -4.49 KCAL/MOL
REMARK 924 INTRA-LIGAND FREE ENERGY PREDICTED BY IDOCK:   -0.45 KCAL/MOL
REMARK 927      BINDING AFFINITY PREDICTED BY RF-SCORE:    0.00 PKD
ROOT
HETATM    1  C   UNL     1     -14.310  15.209  72.148  1.00  0.00    -0.647 C  
HETATM    2  C   UNL     1     -12.966  15.180  71.473  1.00  0.00    -0.458 C  
HETATM    3  C   UNL     1     -11.903  16.090  72.023  1.00  0.00    -0.623 C  
HETATM    4  C   UNL     1     -12.757  14.372  70.413  1.00  0.00    -0.362 C  
ENDROOT
BRANCH   4   5
HETATM    5  C   UNL     1     -11.456  14.195  69.676  1.00  0.00    -0.329 C  
BRANCH   5   6
HETATM    6  C   UNL     1     -11.513  14.756  68.250  1.00  0.00    -0.338 C  
BRANCH   6   7
HETATM    7  C   UNL     1     -10.546  15.903  68.015  1.00  0.00    -0.287 C  
HETATM    8  C   UNL     1      -9.673  16.301  69.176  1.00  0.00    -0.265 C  
HETATM    9  C   UNL     1     -10.516  16.556  66.837  1.00  0.00    -0.282 C  
BRANCH   9  10
HETATM   10  C   UNL     1      -9.661  17.729  66.479  1.00  0.00    -0.308 C  
HETATM   11  O   UNL     1     -10.396  18.565  65.600  1.00  0.00    -0.594 OA 
HETATM   12  H   UNL     1      -9.853  19.310  65.373  1.00  0.00     0.000 HD 
ENDBRANCH   9  10
ENDBRANCH   6   7
ENDBRANCH   5   6
ENDBRANCH   4   5
TORSDOF 4
ENDMDL
MODEL       56
REMARK 921   NORMALIZED FREE ENERGY PREDICTED BY IDOCK:   -3.73 KCAL/MOL
REMARK 922        TOTAL FREE ENERGY PREDICTED BY IDOCK:   -4.92 KCAL/MOL
REMARK 923 INTER-LIGAND FREE ENERGY PREDICTED BY IDOCK:   -4.58 KCAL/MOL
REMARK 924 INTRA-LIGAND FREE ENERGY PREDICTED BY IDOCK:   -0.34 KCAL/MOL
REMARK 927      BINDING AFFINITY PREDICTED BY RF-SCORE:    0.00 PKD
ROOT
HETATM    1  C   UNL     1     -12.169  13.549  65.684  1.00  0.00    -0.500 C  
HETATM    2  C   UNL     1     -11.515  13.521  67.039  1.00  0.00    -0.369 C  
HETATM    3  C   UNL     1     -10.418  12.515  67.250  1.00  0.00    -0.232 C  
HETATM    4  C   UNL     1     -11.926  14.367  68.006  1.00  0.00    -0.326 C  
ENDROOT
BRANCH   4   5
HETATM    5  C   UNL     1     -11.330  14.492  69.384  1.00  0.00    -0.314 C  
BRANCH   5   6
HETATM    6  C   UNL     1     -12.391  14.782  70.453  1.00  0.00    -0.402 C  
BRANCH   6   7
HETATM    7  C   UNL     1     -12.906  13.532  71.145  1.00  0.00    -0.387 C  
HETATM    8  C   UNL     1     -13.883  13.737  72.273  1.00  0.00    -0.679 C  
HETATM    9  C   UNL     1     -12.465  12.310  70.790  1.00  0.00    -0.356 C  
BRANCH   9  10
HETATM   10  C   UNL     1     -12.838  11.002  71.411  1.00  0.00    -0.443 C  
HETATM   11  O   UNL     1     -13.370  10.164  70.397  1.00  0.00    -0.573 OA 
HETATM   12  H   UNL     1     -13.608   9.333  70.792  1.00  0.00     0.000 HD 
ENDBRANCH   9  10
ENDBRANCH   6   7
ENDBRANCH   5   6
ENDBRANCH   4   5
TORSDOF 4
ENDMDL
MODEL       57
REMARK 921   NORMALIZED FREE ENERGY PREDICTED BY IDOCK:   -3.73 KCAL/MOL
REMARK 922        TOTAL FREE ENERGY PREDICTED BY IDOCK:   -4.92 KCAL/MOL
REMARK 923 INTER-LIGAND FREE ENERGY PREDICTED BY IDOCK:   -4.55 KCAL/MOL
REMARK 924 INTRA-LIGAND FREE ENERGY PREDICTED BY IDOCK:   -0.36 KCAL/MOL
REMARK 927      BINDING AFFINITY PREDICTED BY RF-SCORE:    0.00 PKD
ROOT
HETATM    1  C   UNL     1     -12.031  11.265  70.339  1.00  0.00    -0.471 C  
HETATM    2  C   UNL     1     -12.034   9.905  70.981  1.00  0.00    -0.456 C  
HETATM    3  C   UNL     1     -13.121   9.622  71.981  1.00  0.00    -0.537 C  
HETATM    4  C   UNL     1     -11.081   9.004  70.664  1.00  0.00    -0.314 C  
ENDROOT
BRANCH   4   5
HETATM    5  C   UNL     1     -10.990   7.592  71.181  1.00  0.00    -0.263 C  
BRANCH   5   6
HETATM    6  C   UNL     1     -11.781   6.603  70.317  1.00  0.00    -0.432 C  
BRANCH   6   7
HETATM    7  C   UNL     1     -10.974   6.032  69.164  1.00  0.00    -0.429 C  
HETATM    8  C   UNL     1     -10.034   4.902  69.490  1.00  0.00    -0.295 C  
HETATM    9  C   UNL     1     -11.067   6.555  67.926  1.00  0.00    -0.352 C  
BRANCH   9  10
HETATM   10  C   UNL     1     -10.301   6.135  66.712  1.00  0.00    -0.231 C  
HETATM   11  O   UNL     1     -11.134   5.298  65.927  1.00  0.00    -0.773 OA 
HETATM   12  H   UNL     1     -10.648   5.031  65.156  1.00  0.00     0.000 HD 
ENDBRANCH   9  10
ENDBRANCH   6   7
ENDBRANCH   5   6
ENDBRANCH   4   5
TORSDOF 4
ENDMDL
MODEL       58
REMARK 921   NORMALIZED FREE ENERGY PREDICTED BY IDOCK:   -3.72 KCAL/MOL
REMARK 922        TOTAL FREE ENERGY PREDICTED BY IDOCK:   -4.91 KCAL/MOL
REMARK 923 INTER-LIGAND FREE ENERGY PREDICTED BY IDOCK:   -4.57 KCAL/MOL
REMARK 924 INTRA-LIGAND FREE ENERGY PREDICTED BY IDOCK:   -0.34 KCAL/MOL
REMARK 927      BINDING AFFINITY PREDICTED BY RF-SCORE:    0.00 PKD
ROOT
HETATM    1  C   UNL     1      -8.331   9.167  65.029  1.00  0.00    -0.165 C  
HETATM    2  C   UNL     1      -9.058  10.132  64.133  1.00  0.00    -0.287 C  
HETATM    3  C   UNL     1      -8.308  10.660  62.941  1.00  0.00    -0.158 C  
HETATM    4  C   UNL     1     -10.323  10.501  64.420  1.00  0.00    -0.244 C  
ENDROOT
BRANCH   4   5
HETATM    5  C   UNL     1     -11.191  11.410  63.590  1.00  0.00    -0.366 C  
BRANCH   5   6
HETATM    6  C   UNL     1     -12.272  12.107  64.425  1.00  0.00    -0.435 C  
BRANCH   6   7
HETATM    7  C   UNL     1     -11.776  13.357  65.128  1.00  0.00    -0.345 C  
HETATM    8  C   UNL     1     -11.587  13.266  66.620  1.00  0.00    -0.408 C  
HETATM    9  C   UNL     1     -11.567  14.501  64.447  1.00  0.00    -0.325 C  
BRANCH   9  10
HETATM   10  C   UNL     1     -11.134  15.817  65.009  1.00  0.00    -0.370 C  
HETATM   11  O   UNL     1     -11.375  16.819  64.034  1.00  0.00    -1.471 OA 
HETATM   12  H   UNL     1     -11.100  17.655  64.391  1.00  0.00     0.000 HD 
ENDBRANCH   9  10
ENDBRANCH   6   7
ENDBRANCH   5   6
ENDBRANCH   4   5
TORSDOF 4
ENDMDL
MODEL       59
REMARK 921   NORMALIZED FREE ENERGY PREDICTED BY IDOCK:   -3.72 KCAL/MOL
REMARK 922        TOTAL FREE ENERGY PREDICTED BY IDOCK:   -4.90 KCAL/MOL
REMARK 923 INTER-LIGAND FREE ENERGY PREDICTED BY IDOCK:   -4.46 KCAL/MOL
REMARK 924 INTRA-LIGAND FREE ENERGY PREDICTED BY IDOCK:   -0.44 KCAL/MOL
REMARK 927      BINDING AFFINITY PREDICTED BY RF-SCORE:    0.00 PKD
ROOT
HETATM    1  C   UNL     1     -14.209  14.711  71.810  1.00  0.00    -0.616 C  
HETATM    2  C   UNL     1     -12.871  14.876  71.144  1.00  0.00    -0.426 C  
HETATM    3  C   UNL     1     -11.950  15.923  71.706  1.00  0.00    -0.573 C  
HETATM    4  C   UNL     1     -12.545  14.113  70.080  1.00  0.00    -0.325 C  
ENDROOT
BRANCH   4   5
HETATM    5  C   UNL     1     -11.227  14.128  69.351  1.00  0.00    -0.298 C  
BRANCH   5   6
HETATM    6  C   UNL     1     -11.389  14.461  67.862  1.00  0.00    -0.322 C  
BRANCH   6   7
HETATM    7  C   UNL     1     -10.731  15.771  67.464  1.00  0.00    -0.317 C  
HETATM    8  C   UNL     1      -9.945  15.770  66.180  1.00  0.00    -0.334 C  
HETATM    9  C   UNL     1     -10.813  16.858  68.256  1.00  0.00    -0.357 C  
BRANCH   9  10
HETATM   10  C   UNL     1     -10.178  18.191  68.023  1.00  0.00    -0.380 C  
HETATM   11  O   UNL     1     -10.254  18.937  69.227  1.00  0.00    -0.510 OA 
HETATM   12  H   UNL     1      -9.850  19.785  69.079  1.00  0.00     0.000 HD 
ENDBRANCH   9  10
ENDBRANCH   6   7
ENDBRANCH   5   6
ENDBRANCH   4   5
TORSDOF 4
ENDMDL
MODEL       60
REMARK 921   NORMALIZED FREE ENERGY PREDICTED BY IDOCK:   -3.71 KCAL/MOL
REMARK 922        TOTAL FREE ENERGY PREDICTED BY IDOCK:   -4.89 KCAL/MOL
REMARK 923 INTER-LIGAND FREE ENERGY PREDICTED BY IDOCK:   -4.47 KCAL/MOL
REMARK 924 INTRA-LIGAND FREE ENERGY PREDICTED BY IDOCK:   -0.42 KCAL/MOL
REMARK 927      BINDING AFFINITY PREDICTED BY RF-SCORE:    0.00 PKD
ROOT
HETATM    1  C   UNL     1     -10.995   6.182  69.084  1.00  0.00    -0.450 C  
HETATM    2  C   UNL     1     -11.065   7.341  70.040  1.00  0.00    -0.262 C  
HETATM    3  C   UNL     1     -11.469   7.037  71.457  1.00  0.00    -0.306 C  
HETATM    4  C   UNL     1     -10.785   8.590  69.614  1.00  0.00    -0.200 C  
ENDROOT
BRANCH   4   5
HETATM    5  C   UNL     1     -10.759   9.832  70.465  1.00  0.00    -0.381 C  
BRANCH   5   6
HETATM    6  C   UNL     1     -11.762  10.888  69.986  1.00  0.00    -0.427 C  
BRANCH   6   7
HETATM    7  C   UNL     1     -12.637  11.436  71.100  1.00  0.00    -0.490 C  
HETATM    8  C   UNL     1     -13.264  10.427  72.027  1.00  0.00    -0.497 C  
HETATM    9  C   UNL     1     -12.872  12.757  71.212  1.00  0.00    -0.355 C  
BRANCH   9  10
HETATM   10  C   UNL     1     -13.748  13.434  72.218  1.00  0.00    -0.607 C  
HETATM   11  O   UNL     1     -12.945  14.315  72.987  1.00  0.00    -0.494 OA 
HETATM   12  H   UNL     1     -13.501  14.745  73.626  1.00  0.00     0.000 HD 
ENDBRANCH   9  10
ENDBRANCH   6   7
ENDBRANCH   5   6
ENDBRANCH   4   5
TORSDOF 4
ENDMDL
MODEL       61
REMARK 921   NORMALIZED FREE ENERGY PREDICTED BY IDOCK:   -3.70 KCAL/MOL
REMARK 922        TOTAL FREE ENERGY PREDICTED BY IDOCK:   -4.88 KCAL/MOL
REMARK 923 INTER-LIGAND FREE ENERGY PREDICTED BY IDOCK:   -4.46 KCAL/MOL
REMARK 924 INTRA-LIGAND FREE ENERGY PREDICTED BY IDOCK:   -0.42 KCAL/MOL
REMARK 927      BINDING AFFINITY PREDICTED BY RF-SCORE:    0.00 PKD
ROOT
HETATM    1  C   UNL     1      -8.724   8.960  69.235  1.00  0.00    -0.138 C  
HETATM    2  C   UNL     1      -9.965   9.399  68.507  1.00  0.00    -0.190 C  
HETATM    3  C   UNL     1     -10.504   8.473  67.451  1.00  0.00    -0.351 C  
HETATM    4  C   UNL     1     -10.540  10.583  68.800  1.00  0.00    -0.233 C  
ENDROOT
BRANCH   4   5
HETATM    5  C   UNL     1     -11.810  11.125  68.197  1.00  0.00    -0.238 C  
BRANCH   5   6
HETATM    6  C   UNL     1     -11.573  12.415  67.402  1.00  0.00    -0.433 C  
BRANCH   6   7
HETATM    7  C   UNL     1     -11.423  12.182  65.909  1.00  0.00    -0.418 C  
HETATM    8  C   UNL     1     -10.157  11.504  65.454  1.00  0.00    -0.304 C  
HETATM    9  C   UNL     1     -12.360  12.612  65.042  1.00  0.00    -0.561 C  
BRANCH   9  10
HETATM   10  C   UNL     1     -12.323  12.502  63.551  1.00  0.00    -0.525 C  
HETATM   11  O   UNL     1     -12.457  13.805  63.005  1.00  0.00    -1.068 OA 
HETATM   12  H   UNL     1     -12.434  13.735  62.058  1.00  0.00     0.000 HD 
ENDBRANCH   9  10
ENDBRANCH   6   7
ENDBRANCH   5   6
ENDBRANCH   4   5
TORSDOF 4
ENDMDL
MODEL       62
REMARK 921   NORMALIZED FREE ENERGY PREDICTED BY IDOCK:   -3.68 KCAL/MOL
REMARK 922        TOTAL FREE ENERGY PREDICTED BY IDOCK:   -4.86 KCAL/MOL
REMARK 923 INTER-LIGAND FREE ENERGY PREDICTED BY IDOCK:   -4.61 KCAL/MOL
REMARK 924 INTRA-LIGAND FREE ENERGY PREDICTED BY IDOCK:   -0.25 KCAL/MOL
REMARK 927      BINDING AFFINITY PREDICTED BY RF-SCORE:    0.00 PKD
ROOT
HETATM    1  C   UNL     1     -10.236  19.887  66.181  1.00  0.00    -0.611 C  
HETATM    2  C   UNL     1     -10.224  19.081  67.451  1.00  0.00    -0.473 C  
HETATM    3  C   UNL     1     -10.046  19.835  68.739  1.00  0.00    -0.523 C  
HETATM    4  C   UNL     1     -10.354  17.739  67.403  1.00  0.00    -0.370 C  
ENDROOT
BRANCH   4   5
HETATM    5  C   UNL     1     -10.416  16.812  68.588  1.00  0.00    -0.333 C  
BRANCH   5   6
HETATM    6  C   UNL     1     -11.424  15.674  68.387  1.00  0.00    -0.374 C  
BRANCH   6   7
HETATM    7  C   UNL     1     -11.855  15.016  69.685  1.00  0.00    -0.358 C  
HETATM    8  C   UNL     1     -11.746  13.515  69.752  1.00  0.00    -0.363 C  
HETATM    9  C   UNL     1     -12.355  15.745  70.702  1.00  0.00    -0.412 C  
BRANCH   9  10
HETATM   10  C   UNL     1     -12.865  15.234  72.011  1.00  0.00    -0.358 C  
HETATM   11  O   UNL     1     -11.905  15.532  73.011  1.00  0.00    -0.436 OA 
HETATM   12  H   UNL     1     -12.229  15.207  73.843  1.00  0.00     0.000 HD 
ENDBRANCH   9  10
ENDBRANCH   6   7
ENDBRANCH   5   6
ENDBRANCH   4   5
TORSDOF 4
ENDMDL
MODEL       63
REMARK 921   NORMALIZED FREE ENERGY PREDICTED BY IDOCK:   -3.67 KCAL/MOL
REMARK 922        TOTAL FREE ENERGY PREDICTED BY IDOCK:   -4.84 KCAL/MOL
REMARK 923 INTER-LIGAND FREE ENERGY PREDICTED BY IDOCK:   -4.59 KCAL/MOL
REMARK 924 INTRA-LIGAND FREE ENERGY PREDICTED BY IDOCK:   -0.26 KCAL/MOL
REMARK 927      BINDING AFFINITY PREDICTED BY RF-SCORE:    0.00 PKD
ROOT
HETATM    1  C   UNL     1     -11.428   5.754  72.487  1.00  0.00    -0.349 C  
HETATM    2  C   UNL     1     -11.543   6.930  71.555  1.00  0.00    -0.329 C  
HETATM    3  C   UNL     1     -11.629   6.632  70.083  1.00  0.00    -0.446 C  
HETATM    4  C   UNL     1     -11.551   8.186  72.046  1.00  0.00    -0.389 C  
ENDROOT
BRANCH   4   5
HETATM    5  C   UNL     1     -11.716   9.450  71.244  1.00  0.00    -0.432 C  
BRANCH   5   6
HETATM    6  C   UNL     1     -12.928  10.273  71.697  1.00  0.00    -0.570 C  
BRANCH   6   7
HETATM    7  C   UNL     1     -12.814  11.748  71.356  1.00  0.00    -0.440 C  
HETATM    8  C   UNL     1     -13.521  12.712  72.273  1.00  0.00    -0.541 C  
HETATM    9  C   UNL     1     -12.152  12.158  70.256  1.00  0.00    -0.385 C  
BRANCH   9  10
HETATM   10  C   UNL     1     -12.002  13.563  69.768  1.00  0.00    -0.340 C  
HETATM   11  O   UNL     1     -10.843  14.121  70.366  1.00  0.00    -0.366 OA 
HETATM   12  H   UNL     1     -10.747  15.014  70.055  1.00  0.00     0.000 HD 
ENDBRANCH   9  10
ENDBRANCH   6   7
ENDBRANCH   5   6
ENDBRANCH   4   5
TORSDOF 4
ENDMDL
MODEL       64
REMARK 921   NORMALIZED FREE ENERGY PREDICTED BY IDOCK:   -3.64 KCAL/MOL
REMARK 922        TOTAL FREE ENERGY PREDICTED BY IDOCK:   -4.81 KCAL/MOL
REMARK 923 INTER-LIGAND FREE ENERGY PREDICTED BY IDOCK:   -4.56 KCAL/MOL
REMARK 924 INTRA-LIGAND FREE ENERGY PREDICTED BY IDOCK:   -0.25 KCAL/MOL
REMARK 927      BINDING AFFINITY PREDICTED BY RF-SCORE:    0.00 PKD
ROOT
HETATM    1  C   UNL     1     -11.995  12.884  63.443  1.00  0.00    -0.612 C  
HETATM    2  C   UNL     1     -11.515  13.313  64.803  1.00  0.00    -0.355 C  
HETATM    3  C   UNL     1     -12.036  12.546  65.986  1.00  0.00    -0.456 C  
HETATM    4  C   UNL     1     -10.666  14.354  64.924  1.00  0.00    -0.444 C  
ENDROOT
BRANCH   4   5
HETATM    5  C   UNL     1     -10.060  14.858  66.208  1.00  0.00    -0.298 C  
BRANCH   5   6
HETATM    6  C   UNL     1      -9.164  16.083  65.988  1.00  0.00    -0.375 C  
BRANCH   6   7
HETATM    7  C   UNL     1      -9.608  17.302  66.778  1.00  0.00    -0.279 C  
HETATM    8  C   UNL     1      -9.368  17.270  68.264  1.00  0.00    -0.272 C  
HETATM    9  C   UNL     1     -10.230  18.332  66.172  1.00  0.00    -0.393 C  
BRANCH   9  10
HETATM   10  C   UNL     1     -10.767  19.567  66.823  1.00  0.00    -0.460 C  
HETATM   11  O   UNL     1      -9.844  20.622  66.606  1.00  0.00    -0.616 OA 
HETATM   12  H   UNL     1     -10.186  21.407  67.020  1.00  0.00     0.000 HD 
ENDBRANCH   9  10
ENDBRANCH   6   7
ENDBRANCH   5   6
ENDBRANCH   4   5
TORSDOF 4
ENDMDL
MODEL       65
REMARK 921   NORMALIZED FREE ENERGY PREDICTED BY IDOCK:   -3.62 KCAL/MOL
REMARK 922        TOTAL FREE ENERGY PREDICTED BY IDOCK:   -4.79 KCAL/MOL
REMARK 923 INTER-LIGAND FREE ENERGY PREDICTED BY IDOCK:   -4.16 KCAL/MOL
REMARK 924 INTRA-LIGAND FREE ENERGY PREDICTED BY IDOCK:   -0.63 KCAL/MOL
REMARK 927      BINDING AFFINITY PREDICTED BY RF-SCORE:    0.00 PKD
ROOT
HETATM    1  C   UNL     1      -7.773  17.375  68.578  1.00  0.00    -0.267 C  
HETATM    2  C   UNL     1      -8.623  16.134  68.552  1.00  0.00    -0.202 C  
HETATM    3  C   UNL     1     -10.079  16.293  68.896  1.00  0.00    -0.251 C  
HETATM    4  C   UNL     1      -8.073  14.942  68.244  1.00  0.00    -0.132 C  
ENDROOT
BRANCH   4   5
HETATM    5  C   UNL     1      -8.806  13.632  68.124  1.00  0.00    -0.189 C  
BRANCH   5   6
HETATM    6  C   UNL     1      -9.184  13.306  66.674  1.00  0.00    -0.222 C  
BRANCH   6   7
HETATM    7  C   UNL     1     -10.525  13.884  66.257  1.00  0.00    -0.287 C  
HETATM    8  C   UNL     1     -11.743  13.339  66.955  1.00  0.00    -0.439 C  
HETATM    9  C   UNL     1     -10.610  14.802  65.275  1.00  0.00    -0.414 C  
BRANCH   9  10
HETATM   10  C   UNL     1     -11.857  15.418  64.725  1.00  0.00    -0.169 C  
HETATM   11  O   UNL     1     -11.486  16.365  63.735  1.00  0.00    -1.590 OA 
HETATM   12  H   UNL     1     -12.278  16.757  63.386  1.00  0.00     0.000 HD 
ENDBRANCH   9  10
ENDBRANCH   6   7
ENDBRANCH   5   6
ENDBRANCH   4   5
TORSDOF 4
ENDMDL
MODEL       66
REMARK 921   NORMALIZED FREE ENERGY PREDICTED BY IDOCK:   -3.61 KCAL/MOL
REMARK 922        TOTAL FREE ENERGY PREDICTED BY IDOCK:   -4.77 KCAL/MOL
REMARK 923 INTER-LIGAND FREE ENERGY PREDICTED BY IDOCK:   -4.41 KCAL/MOL
REMARK 924 INTRA-LIGAND FREE ENERGY PREDICTED BY IDOCK:   -0.36 KCAL/MOL
REMARK 927      BINDING AFFINITY PREDICTED BY RF-SCORE:    0.00 PKD
ROOT
HETATM    1  C   UNL     1     -12.215  12.312  63.502  1.00  0.00    -0.669 C  
HETATM    2  C   UNL     1     -12.129  13.251  64.674  1.00  0.00    -0.458 C  
HETATM    3  C   UNL     1     -12.141  14.724  64.373  1.00  0.00    -0.457 C  
HETATM    4  C   UNL     1     -12.032  12.763  65.927  1.00  0.00    -0.506 C  
ENDROOT
BRANCH   4   5
HETATM    5  C   UNL     1     -11.995  13.577  67.194  1.00  0.00    -0.426 C  
BRANCH   5   6
HETATM    6  C   UNL     1     -10.687  13.387  67.971  1.00  0.00    -0.261 C  
BRANCH   6   7
HETATM    7  C   UNL     1     -10.626  12.076  68.735  1.00  0.00    -0.237 C  
HETATM    8  C   UNL     1      -9.558  11.099  68.319  1.00  0.00    -0.185 C  
HETATM    9  C   UNL     1     -11.521  11.794  69.702  1.00  0.00    -0.341 C  
BRANCH   9  10
HETATM   10  C   UNL     1     -11.618  10.532  70.499  1.00  0.00    -0.350 C  
HETATM   11  O   UNL     1     -12.838   9.888  70.166  1.00  0.00    -0.522 OA 
HETATM   12  H   UNL     1     -12.899   9.086  70.673  1.00  0.00     0.000 HD 
ENDBRANCH   9  10
ENDBRANCH   6   7
ENDBRANCH   5   6
ENDBRANCH   4   5
TORSDOF 4
ENDMDL
MODEL       67
REMARK 921   NORMALIZED FREE ENERGY PREDICTED BY IDOCK:   -3.61 KCAL/MOL
REMARK 922        TOTAL FREE ENERGY PREDICTED BY IDOCK:   -4.77 KCAL/MOL
REMARK 923 INTER-LIGAND FREE ENERGY PREDICTED BY IDOCK:   -4.45 KCAL/MOL
REMARK 924 INTRA-LIGAND FREE ENERGY PREDICTED BY IDOCK:   -0.31 KCAL/MOL
REMARK 927      BINDING AFFINITY PREDICTED BY RF-SCORE:    0.00 PKD
ROOT
HETATM    1  C   UNL     1     -10.407   5.904  67.526  1.00  0.00    -0.269 C  
HETATM    2  C   UNL     1     -10.329   7.379  67.812  1.00  0.00    -0.273 C  
HETATM    3  C   UNL     1     -10.244   8.303  66.629  1.00  0.00    -0.333 C  
HETATM    4  C   UNL     1     -10.323   7.822  69.086  1.00  0.00    -0.219 C  
ENDROOT
BRANCH   4   5
HETATM    5  C   UNL     1     -10.306   9.264  69.521  1.00  0.00    -0.223 C  
BRANCH   5   6
HETATM    6  C   UNL     1     -10.281   9.411  71.048  1.00  0.00    -0.369 C  
BRANCH   6   7
HETATM    7  C   UNL     1     -11.447   8.727  71.738  1.00  0.00    -0.413 C  
HETATM    8  C   UNL     1     -11.106   7.681  72.766  1.00  0.00    -0.437 C  
HETATM    9  C   UNL     1     -12.720   9.015  71.401  1.00  0.00    -0.361 C  
BRANCH   9  10
HETATM   10  C   UNL     1     -13.961   8.389  71.952  1.00  0.00    -0.421 C  
HETATM   11  O   UNL     1     -14.326   9.087  73.131  1.00  0.00    -1.136 OA 
HETATM   12  H   UNL     1     -15.115   8.689  73.481  1.00  0.00     0.000 HD 
ENDBRANCH   9  10
ENDBRANCH   6   7
ENDBRANCH   5   6
ENDBRANCH   4   5
TORSDOF 4
ENDMDL
MODEL       68
REMARK 921   NORMALIZED FREE ENERGY PREDICTED BY IDOCK:   -3.61 KCAL/MOL
REMARK 922        TOTAL FREE ENERGY PREDICTED BY IDOCK:   -4.77 KCAL/MOL
REMARK 923 INTER-LIGAND FREE ENERGY PREDICTED BY IDOCK:   -4.38 KCAL/MOL
REMARK 924 INTRA-LIGAND FREE ENERGY PREDICTED BY IDOCK:   -0.39 KCAL/MOL
REMARK 927      BINDING AFFINITY PREDICTED BY RF-SCORE:    0.00 PKD
ROOT
HETATM    1  C   UNL     1      -8.207  16.768  68.728  1.00  0.00    -0.250 C  
HETATM    2  C   UNL     1      -9.596  16.473  68.232  1.00  0.00    -0.223 C  
HETATM    3  C   UNL     1      -9.933  16.913  66.834  1.00  0.00    -0.279 C  
HETATM    4  C   UNL     1     -10.484  15.851  69.035  1.00  0.00    -0.234 C  
ENDROOT
BRANCH   4   5
HETATM    5  C   UNL     1     -11.884  15.442  68.658  1.00  0.00    -0.317 C  
BRANCH   5   6
HETATM    6  C   UNL     1     -11.970  13.966  68.253  1.00  0.00    -0.392 C  
BRANCH   6   7
HETATM    7  C   UNL     1     -11.955  13.752  66.749  1.00  0.00    -0.465 C  
HETATM    8  C   UNL     1     -11.556  12.383  66.264  1.00  0.00    -0.449 C  
HETATM    9  C   UNL     1     -12.237  14.761  65.902  1.00  0.00    -0.049 C  
BRANCH   9  10
HETATM   10  C   UNL     1     -12.210  14.715  64.407  1.00  0.00    -0.452 C  
HETATM   11  O   UNL     1     -11.992  16.031  63.925  1.00  0.00    -1.267 OA 
HETATM   12  H   UNL     1     -11.975  16.002  62.976  1.00  0.00     0.000 HD 
ENDBRANCH   9  10
ENDBRANCH   6   7
ENDBRANCH   5   6
ENDBRANCH   4   5
TORSDOF 4
ENDMDL
MODEL       69
REMARK 921   NORMALIZED FREE ENERGY PREDICTED BY IDOCK:   -3.60 KCAL/MOL
REMARK 922        TOTAL FREE ENERGY PREDICTED BY IDOCK:   -4.76 KCAL/MOL
REMARK 923 INTER-LIGAND FREE ENERGY PREDICTED BY IDOCK:   -4.17 KCAL/MOL
REMARK 924 INTRA-LIGAND FREE ENERGY PREDICTED BY IDOCK:   -0.59 KCAL/MOL
REMARK 927      BINDING AFFINITY PREDICTED BY RF-SCORE:    0.00 PKD
ROOT
HETATM    1  C   UNL     1     -12.211  12.178  63.501  1.00  0.00    -0.670 C  
HETATM    2  C   UNL     1     -12.070  13.039  64.726  1.00  0.00    -0.465 C  
HETATM    3  C   UNL     1     -12.212  14.524  64.540  1.00  0.00    -0.483 C  
HETATM    4  C   UNL     1     -11.813  12.475  65.924  1.00  0.00    -0.489 C  
ENDROOT
BRANCH   4   5
HETATM    5  C   UNL     1     -11.703  13.201  67.239  1.00  0.00    -0.425 C  
BRANCH   5   6
HETATM    6  C   UNL     1     -10.246  13.468  67.638  1.00  0.00    -0.239 C  
BRANCH   6   7
HETATM    7  C   UNL     1      -9.799  14.893  67.367  1.00  0.00    -0.221 C  
HETATM    8  C   UNL     1     -10.788  15.984  67.686  1.00  0.00    -0.311 C  
HETATM    9  C   UNL     1      -8.595  15.152  66.822  1.00  0.00    -0.297 C  
BRANCH   9  10
HETATM   10  C   UNL     1      -8.043  16.492  66.453  1.00  0.00    -0.327 C  
HETATM   11  O   UNL     1      -6.629  16.434  66.550  1.00  0.00    -0.245 OA 
HETATM   12  H   UNL     1      -6.278  17.285  66.316  1.00  0.00     0.000 HD 
ENDBRANCH   9  10
ENDBRANCH   6   7
ENDBRANCH   5   6
ENDBRANCH   4   5
TORSDOF 4
ENDMDL
MODEL       70
REMARK 921   NORMALIZED FREE ENERGY PREDICTED BY IDOCK:   -3.59 KCAL/MOL
REMARK 922        TOTAL FREE ENERGY PREDICTED BY IDOCK:   -4.75 KCAL/MOL
REMARK 923 INTER-LIGAND FREE ENERGY PREDICTED BY IDOCK:   -4.31 KCAL/MOL
REMARK 924 INTRA-LIGAND FREE ENERGY PREDICTED BY IDOCK:   -0.44 KCAL/MOL
REMARK 927      BINDING AFFINITY PREDICTED BY RF-SCORE:    0.00 PKD
ROOT
HETATM    1  C   UNL     1     -14.405  15.190  71.479  1.00  0.00    -0.660 C  
HETATM    2  C   UNL     1     -12.998  14.831  71.085  1.00  0.00    -0.422 C  
HETATM    3  C   UNL     1     -12.625  13.375  71.129  1.00  0.00    -0.430 C  
HETATM    4  C   UNL     1     -12.128  15.797  70.725  1.00  0.00    -0.448 C  
ENDROOT
BRANCH   4   5
HETATM    5  C   UNL     1     -10.713  15.583  70.255  1.00  0.00    -0.352 C  
BRANCH   5   6
HETATM    6  C   UNL     1     -10.478  16.139  68.845  1.00  0.00    -0.258 C  
BRANCH   6   7
HETATM    7  C   UNL     1     -10.279  15.059  67.798  1.00  0.00    -0.236 C  
HETATM    8  C   UNL     1      -8.871  14.841  67.308  1.00  0.00    -0.218 C  
HETATM    9  C   UNL     1     -11.326  14.370  67.303  1.00  0.00    -0.357 C  
BRANCH   9  10
HETATM   10  C   UNL     1     -11.290  13.321  66.237  1.00  0.00    -0.309 C  
HETATM   11  O   UNL     1     -12.060  12.214  66.677  1.00  0.00    -0.622 OA 
HETATM   12  H   UNL     1     -12.038  11.547  66.000  1.00  0.00     0.000 HD 
ENDBRANCH   9  10
ENDBRANCH   6   7
ENDBRANCH   5   6
ENDBRANCH   4   5
TORSDOF 4
ENDMDL
MODEL       71
REMARK 921   NORMALIZED FREE ENERGY PREDICTED BY IDOCK:   -3.59 KCAL/MOL
REMARK 922        TOTAL FREE ENERGY PREDICTED BY IDOCK:   -4.75 KCAL/MOL
REMARK 923 INTER-LIGAND FREE ENERGY PREDICTED BY IDOCK:   -4.50 KCAL/MOL
REMARK 924 INTRA-LIGAND FREE ENERGY PREDICTED BY IDOCK:   -0.25 KCAL/MOL
REMARK 927      BINDING AFFINITY PREDICTED BY RF-SCORE:    0.00 PKD
ROOT
HETATM    1  C   UNL     1      -7.813  19.670  66.787  1.00  0.00    -0.305 C  
HETATM    2  C   UNL     1      -9.191  19.109  67.006  1.00  0.00    -0.336 C  
HETATM    3  C   UNL     1     -10.353  19.955  66.563  1.00  0.00    -0.608 C  
HETATM    4  C   UNL     1      -9.347  17.904  67.590  1.00  0.00    -0.258 C  
ENDROOT
BRANCH   4   5
HETATM    5  C   UNL     1     -10.656  17.195  67.822  1.00  0.00    -0.360 C  
BRANCH   5   6
HETATM    6  C   UNL     1     -10.482  15.676  67.945  1.00  0.00    -0.267 C  
BRANCH   6   7
HETATM    7  C   UNL     1     -11.411  15.045  68.967  1.00  0.00    -0.322 C  
HETATM    8  C   UNL     1     -11.940  13.672  68.644  1.00  0.00    -0.395 C  
HETATM    9  C   UNL     1     -11.777  15.712  70.079  1.00  0.00    -0.369 C  
BRANCH   9  10
HETATM   10  C   UNL     1     -12.720  15.244  71.141  1.00  0.00    -0.410 C  
HETATM   11  O   UNL     1     -14.041  15.563  70.735  1.00  0.00    -0.871 OA 
HETATM   12  H   UNL     1     -14.640  15.265  71.410  1.00  0.00     0.000 HD 
ENDBRANCH   9  10
ENDBRANCH   6   7
ENDBRANCH   5   6
ENDBRANCH   4   5
TORSDOF 4
ENDMDL
MODEL       72
REMARK 921   NORMALIZED FREE ENERGY PREDICTED BY IDOCK:   -3.58 KCAL/MOL
REMARK 922        TOTAL FREE ENERGY PREDICTED BY IDOCK:   -4.73 KCAL/MOL
REMARK 923 INTER-LIGAND FREE ENERGY PREDICTED BY IDOCK:   -4.35 KCAL/MOL
REMARK 924 INTRA-LIGAND FREE ENERGY PREDICTED BY IDOCK:   -0.38 KCAL/MOL
REMARK 927      BINDING AFFINITY PREDICTED BY RF-SCORE:    0.00 PKD
ROOT
HETATM    1  C   UNL     1     -10.072   9.579  66.621  1.00  0.00    -0.321 C  
HETATM    2  C   UNL     1     -10.804  10.709  67.293  1.00  0.00    -0.345 C  
HETATM    3  C   UNL     1     -11.183  10.518  68.735  1.00  0.00    -0.317 C  
HETATM    4  C   UNL     1     -11.105  11.827  66.601  1.00  0.00    -0.364 C  
ENDROOT
BRANCH   4   5
HETATM    5  C   UNL     1     -11.780  13.055  67.153  1.00  0.00    -0.439 C  
BRANCH   5   6
HETATM    6  C   UNL     1     -10.787  14.016  67.819  1.00  0.00    -0.257 C  
BRANCH   6   7
HETATM    7  C   UNL     1     -11.424  14.904  68.873  1.00  0.00    -0.320 C  
HETATM    8  C   UNL     1     -11.274  16.391  68.687  1.00  0.00    -0.332 C  
HETATM    9  C   UNL     1     -12.047  14.374  69.944  1.00  0.00    -0.398 C  
BRANCH   9  10
HETATM   10  C   UNL     1     -12.671  15.117  71.082  1.00  0.00    -0.385 C  
HETATM   11  O   UNL     1     -13.989  15.481  70.707  1.00  0.00    -0.874 OA 
HETATM   12  H   UNL     1     -14.386  15.953  71.430  1.00  0.00     0.000 HD 
ENDBRANCH   9  10
ENDBRANCH   6   7
ENDBRANCH   5   6
ENDBRANCH   4   5
TORSDOF 4
ENDMDL
MODEL       73
REMARK 921   NORMALIZED FREE ENERGY PREDICTED BY IDOCK:   -3.58 KCAL/MOL
REMARK 922        TOTAL FREE ENERGY PREDICTED BY IDOCK:   -4.73 KCAL/MOL
REMARK 923 INTER-LIGAND FREE ENERGY PREDICTED BY IDOCK:   -4.25 KCAL/MOL
REMARK 924 INTRA-LIGAND FREE ENERGY PREDICTED BY IDOCK:   -0.49 KCAL/MOL
REMARK 927      BINDING AFFINITY PREDICTED BY RF-SCORE:    0.00 PKD
ROOT
HETATM    1  C   UNL     1     -13.204  10.142  71.894  1.00  0.00    -0.557 C  
HETATM    2  C   UNL     1     -12.584  11.234  71.066  1.00  0.00    -0.495 C  
HETATM    3  C   UNL     1     -12.947  12.650  71.417  1.00  0.00    -0.353 C  
HETATM    4  C   UNL     1     -11.752  10.924  70.051  1.00  0.00    -0.427 C  
ENDROOT
BRANCH   4   5
HETATM    5  C   UNL     1     -11.017  11.907  69.177  1.00  0.00    -0.251 C  
BRANCH   5   6
HETATM    6  C   UNL     1     -11.814  12.279  67.921  1.00  0.00    -0.358 C  
BRANCH   6   7
HETATM    7  C   UNL     1     -11.860  13.774  67.659  1.00  0.00    -0.413 C  
HETATM    8  C   UNL     1     -12.197  14.205  66.256  1.00  0.00    -0.474 C  
HETATM    9  C   UNL     1     -11.562  14.659  68.630  1.00  0.00    -0.343 C  
BRANCH   9  10
HETATM   10  C   UNL     1     -11.514  16.148  68.507  1.00  0.00    -0.324 C  
HETATM   11  O   UNL     1     -10.198  16.522  68.134  1.00  0.00    -0.251 OA 
HETATM   12  H   UNL     1     -10.167  17.469  68.056  1.00  0.00     0.000 HD 
ENDBRANCH   9  10
ENDBRANCH   6   7
ENDBRANCH   5   6
ENDBRANCH   4   5
TORSDOF 4
ENDMDL
MODEL       74
REMARK 921   NORMALIZED FREE ENERGY PREDICTED BY IDOCK:   -3.56 KCAL/MOL
REMARK 922        TOTAL FREE ENERGY PREDICTED BY IDOCK:   -4.71 KCAL/MOL
REMARK 923 INTER-LIGAND FREE ENERGY PREDICTED BY IDOCK:   -4.47 KCAL/MOL
REMARK 924 INTRA-LIGAND FREE ENERGY PREDICTED BY IDOCK:   -0.24 KCAL/MOL
REMARK 927      BINDING AFFINITY PREDICTED BY RF-SCORE:    0.00 PKD
ROOT
HETATM    1  C   UNL     1     -10.289  17.340  68.999  1.00  0.00    -0.330 C  
HETATM    2  C   UNL     1     -10.522  15.862  68.850  1.00  0.00    -0.233 C  
HETATM    3  C   UNL     1      -9.491  15.079  68.086  1.00  0.00    -0.196 C  
HETATM    4  C   UNL     1     -11.625  15.293  69.379  1.00  0.00    -0.347 C  
ENDROOT
BRANCH   4   5
HETATM    5  C   UNL     1     -11.961  13.825  69.359  1.00  0.00    -0.397 C  
BRANCH   5   6
HETATM    6  C   UNL     1     -12.372  13.302  70.741  1.00  0.00    -0.425 C  
BRANCH   6   7
HETATM    7  C   UNL     1     -12.362  11.787  70.838  1.00  0.00    -0.420 C  
HETATM    8  C   UNL     1     -11.882  11.034  69.624  1.00  0.00    -0.414 C  
HETATM    9  C   UNL     1     -12.809  11.158  71.942  1.00  0.00    -0.400 C  
BRANCH   9  10
HETATM   10  C   UNL     1     -12.908   9.682  72.161  1.00  0.00    -0.375 C  
HETATM   11  O   UNL     1     -14.039   9.428  72.978  1.00  0.00    -0.936 OA 
HETATM   12  H   UNL     1     -14.102   8.490  73.117  1.00  0.00     0.000 HD 
ENDBRANCH   9  10
ENDBRANCH   6   7
ENDBRANCH   5   6
ENDBRANCH   4   5
TORSDOF 4
ENDMDL
MODEL       75
REMARK 921   NORMALIZED FREE ENERGY PREDICTED BY IDOCK:   -3.56 KCAL/MOL
REMARK 922        TOTAL FREE ENERGY PREDICTED BY IDOCK:   -4.71 KCAL/MOL
REMARK 923 INTER-LIGAND FREE ENERGY PREDICTED BY IDOCK:   -4.50 KCAL/MOL
REMARK 924 INTRA-LIGAND FREE ENERGY PREDICTED BY IDOCK:   -0.20 KCAL/MOL
REMARK 927      BINDING AFFINITY PREDICTED BY RF-SCORE:    0.00 PKD
ROOT
HETATM    1  C   UNL     1     -10.085  19.890  68.186  1.00  0.00    -0.569 C  
HETATM    2  C   UNL     1     -10.412  18.552  67.581  1.00  0.00    -0.452 C  
HETATM    3  C   UNL     1     -10.526  18.487  66.083  1.00  0.00    -0.447 C  
HETATM    4  C   UNL     1     -10.602  17.478  68.374  1.00  0.00    -0.339 C  
ENDROOT
BRANCH   4   5
HETATM    5  C   UNL     1     -10.879  16.072  67.910  1.00  0.00    -0.333 C  
BRANCH   5   6
HETATM    6  C   UNL     1     -11.754  15.293  68.900  1.00  0.00    -0.362 C  
BRANCH   6   7
HETATM    7  C   UNL     1     -11.767  13.797  68.642  1.00  0.00    -0.391 C  
HETATM    8  C   UNL     1     -11.696  13.357  67.203  1.00  0.00    -0.424 C  
HETATM    9  C   UNL     1     -11.887  12.919  69.657  1.00  0.00    -0.387 C  
BRANCH   9  10
HETATM   10  C   UNL     1     -11.968  11.429  69.553  1.00  0.00    -0.341 C  
HETATM   11  O   UNL     1     -10.841  10.875  70.213  1.00  0.00    -0.459 OA 
HETATM   12  H   UNL     1     -10.892   9.929  70.148  1.00  0.00     0.000 HD 
ENDBRANCH   9  10
ENDBRANCH   6   7
ENDBRANCH   5   6
ENDBRANCH   4   5
TORSDOF 4
ENDMDL
MODEL       76
REMARK 921   NORMALIZED FREE ENERGY PREDICTED BY IDOCK:   -3.55 KCAL/MOL
REMARK 922        TOTAL FREE ENERGY PREDICTED BY IDOCK:   -4.69 KCAL/MOL
REMARK 923 INTER-LIGAND FREE ENERGY PREDICTED BY IDOCK:   -4.02 KCAL/MOL
REMARK 924 INTRA-LIGAND FREE ENERGY PREDICTED BY IDOCK:   -0.67 KCAL/MOL
REMARK 927      BINDING AFFINITY PREDICTED BY RF-SCORE:    0.00 PKD
ROOT
HETATM    1  C   UNL     1     -11.512  12.350  63.738  1.00  0.00    -0.544 C  
HETATM    2  C   UNL     1     -11.578  13.580  64.602  1.00  0.00    -0.395 C  
HETATM    3  C   UNL     1     -12.822  13.774  65.424  1.00  0.00    -0.455 C  
HETATM    4  C   UNL     1     -10.555  14.460  64.607  1.00  0.00    -0.331 C  
ENDROOT
BRANCH   4   5
HETATM    5  C   UNL     1     -10.457  15.699  65.458  1.00  0.00    -0.426 C  
BRANCH   5   6
HETATM    6  C   UNL     1      -9.573  15.488  66.694  1.00  0.00    -0.273 C  
BRANCH   6   7
HETATM    7  C   UNL     1     -10.347  15.026  67.916  1.00  0.00    -0.241 C  
HETATM    8  C   UNL     1      -9.973  13.683  68.487  1.00  0.00    -0.208 C  
HETATM    9  C   UNL     1     -11.351  15.768  68.424  1.00  0.00    -0.372 C  
BRANCH   9  10
HETATM   10  C   UNL     1     -12.230  15.420  69.582  1.00  0.00    -0.282 C  
HETATM   11  O   UNL     1     -11.889  16.265  70.669  1.00  0.00    -0.493 OA 
HETATM   12  H   UNL     1     -12.448  16.044  71.405  1.00  0.00     0.000 HD 
ENDBRANCH   9  10
ENDBRANCH   6   7
ENDBRANCH   5   6
ENDBRANCH   4   5
TORSDOF 4
ENDMDL
MODEL       77
REMARK 921   NORMALIZED FREE ENERGY PREDICTED BY IDOCK:   -3.54 KCAL/MOL
REMARK 922        TOTAL FREE ENERGY PREDICTED BY IDOCK:   -4.68 KCAL/MOL
REMARK 923 INTER-LIGAND FREE ENERGY PREDICTED BY IDOCK:   -4.22 KCAL/MOL
REMARK 924 INTRA-LIGAND FREE ENERGY PREDICTED BY IDOCK:   -0.46 KCAL/MOL
REMARK 927      BINDING AFFINITY PREDICTED BY RF-SCORE:    0.00 PKD
ROOT
HETATM    1  C   UNL     1     -10.510   5.151  72.086  1.00  0.00    -0.281 C  
HETATM    2  C   UNL     1     -11.185   6.255  71.318  1.00  0.00    -0.355 C  
HETATM    3  C   UNL     1     -11.207   6.132  69.819  1.00  0.00    -0.494 C  
HETATM    4  C   UNL     1     -11.725   7.304  71.972  1.00  0.00    -0.329 C  
ENDROOT
BRANCH   4   5
HETATM    5  C   UNL     1     -12.476   8.448  71.344  1.00  0.00    -0.313 C  
BRANCH   5   6
HETATM    6  C   UNL     1     -11.778   9.795  71.565  1.00  0.00    -0.450 C  
BRANCH   6   7
HETATM    7  C   UNL     1     -11.275  10.429  70.280  1.00  0.00    -0.395 C  
HETATM    8  C   UNL     1     -10.089   9.775  69.621  1.00  0.00    -0.250 C  
HETATM    9  C   UNL     1     -11.839  11.551  69.792  1.00  0.00    -0.429 C  
BRANCH   9  10
HETATM   10  C   UNL     1     -11.420  12.314  68.576  1.00  0.00    -0.303 C  
HETATM   11  O   UNL     1     -11.925  11.642  67.433  1.00  0.00    -0.621 OA 
HETATM   12  H   UNL     1     -11.659  12.126  66.660  1.00  0.00     0.000 HD 
ENDBRANCH   9  10
ENDBRANCH   6   7
ENDBRANCH   5   6
ENDBRANCH   4   5
TORSDOF 4
ENDMDL
MODEL       78
REMARK 921   NORMALIZED FREE ENERGY PREDICTED BY IDOCK:   -3.53 KCAL/MOL
REMARK 922        TOTAL FREE ENERGY PREDICTED BY IDOCK:   -4.67 KCAL/MOL
REMARK 923 INTER-LIGAND FREE ENERGY PREDICTED BY IDOCK:   -4.25 KCAL/MOL
REMARK 924 INTRA-LIGAND FREE ENERGY PREDICTED BY IDOCK:   -0.42 KCAL/MOL
REMARK 927      BINDING AFFINITY PREDICTED BY RF-SCORE:    0.00 PKD
ROOT
HETATM    1  C   UNL     1      -8.057  17.001  66.852  1.00  0.00    -0.252 C  
HETATM    2  C   UNL     1      -9.312  16.504  66.186  1.00  0.00    -0.339 C  
HETATM    3  C   UNL     1     -10.374  17.523  65.878  1.00  0.00    -0.265 C  
HETATM    4  C   UNL     1      -9.454  15.193  65.903  1.00  0.00    -0.334 C  
ENDROOT
BRANCH   4   5
HETATM    5  C   UNL     1     -10.623  14.563  65.192  1.00  0.00    -0.429 C  
BRANCH   5   6
HETATM    6  C   UNL     1     -11.860  14.448  66.092  1.00  0.00    -0.391 C  
BRANCH   6   7
HETATM    7  C   UNL     1     -11.661  13.509  67.269  1.00  0.00    -0.423 C  
HETATM    8  C   UNL     1     -11.741  14.121  68.643  1.00  0.00    -0.385 C  
HETATM    9  C   UNL     1     -11.379  12.206  67.079  1.00  0.00    -0.398 C  
BRANCH   9  10
HETATM   10  C   UNL     1     -11.108  11.180  68.133  1.00  0.00    -0.264 C  
HETATM   11  O   UNL     1     -12.336  10.558  68.475  1.00  0.00    -0.765 OA 
HETATM   12  H   UNL     1     -12.163   9.906  69.145  1.00  0.00     0.000 HD 
ENDBRANCH   9  10
ENDBRANCH   6   7
ENDBRANCH   5   6
ENDBRANCH   4   5
TORSDOF 4
ENDMDL
MODEL       79
REMARK 921   NORMALIZED FREE ENERGY PREDICTED BY IDOCK:   -3.50 KCAL/MOL
REMARK 922        TOTAL FREE ENERGY PREDICTED BY IDOCK:   -4.64 KCAL/MOL
REMARK 923 INTER-LIGAND FREE ENERGY PREDICTED BY IDOCK:   -4.58 KCAL/MOL
REMARK 924 INTRA-LIGAND FREE ENERGY PREDICTED BY IDOCK:   -0.06 KCAL/MOL
REMARK 927      BINDING AFFINITY PREDICTED BY RF-SCORE:    0.00 PKD
ROOT
HETATM    1  C   UNL     1      -9.474  20.297  67.031  1.00  0.00    -0.546 C  
HETATM    2  C   UNL     1      -8.422  19.224  67.107  1.00  0.00    -0.310 C  
HETATM    3  C   UNL     1      -7.012  19.622  66.771  1.00  0.00    -0.216 C  
HETATM    4  C   UNL     1      -8.762  17.965  67.451  1.00  0.00    -0.237 C  
ENDROOT
BRANCH   4   5
HETATM    5  C   UNL     1      -7.815  16.807  67.622  1.00  0.00    -0.189 C  
BRANCH   5   6
HETATM    6  C   UNL     1      -8.531  15.452  67.552  1.00  0.00    -0.188 C  
BRANCH   6   7
HETATM    7  C   UNL     1      -9.899  15.529  66.899  1.00  0.00    -0.245 C  
HETATM    8  C   UNL     1     -11.080  15.697  67.819  1.00  0.00    -0.311 C  
HETATM    9  C   UNL     1     -10.041  15.400  65.565  1.00  0.00    -0.405 C  
BRANCH   9  10
HETATM   10  C   UNL     1     -11.320  15.402  64.791  1.00  0.00    -0.376 C  
HETATM   11  O   UNL     1     -11.309  16.517  63.914  1.00  0.00    -1.557 OA 
HETATM   12  H   UNL     1     -12.122  16.518  63.422  1.00  0.00     0.000 HD 
ENDBRANCH   9  10
ENDBRANCH   6   7
ENDBRANCH   5   6
ENDBRANCH   4   5
TORSDOF 4
ENDMDL
MODEL       80
REMARK 921   NORMALIZED FREE ENERGY PREDICTED BY IDOCK:   -3.50 KCAL/MOL
REMARK 922        TOTAL FREE ENERGY PREDICTED BY IDOCK:   -4.64 KCAL/MOL
REMARK 923 INTER-LIGAND FREE ENERGY PREDICTED BY IDOCK:   -4.42 KCAL/MOL
REMARK 924 INTRA-LIGAND FREE ENERGY PREDICTED BY IDOCK:   -0.22 KCAL/MOL
REMARK 927      BINDING AFFINITY PREDICTED BY RF-SCORE:    0.00 PKD
ROOT
HETATM    1  C   UNL     1     -11.032   6.443  67.198  1.00  0.00    -0.476 C  
HETATM    2  C   UNL     1     -10.326   7.727  67.536  1.00  0.00    -0.333 C  
HETATM    3  C   UNL     1      -9.439   7.723  68.750  1.00  0.00    -0.149 C  
HETATM    4  C   UNL     1     -10.511   8.823  66.771  1.00  0.00    -0.283 C  
ENDROOT
BRANCH   4   5
HETATM    5  C   UNL     1      -9.831  10.155  66.953  1.00  0.00    -0.244 C  
BRANCH   5   6
HETATM    6  C   UNL     1     -10.830  11.286  67.227  1.00  0.00    -0.317 C  
BRANCH   6   7
HETATM    7  C   UNL     1     -11.239  12.044  65.976  1.00  0.00    -0.385 C  
HETATM    8  C   UNL     1     -12.087  13.272  66.176  1.00  0.00    -0.477 C  
HETATM    9  C   UNL     1     -10.895  11.599  64.752  1.00  0.00    -0.367 C  
BRANCH   9  10
HETATM   10  C   UNL     1     -11.268  12.206  63.436  1.00  0.00    -0.414 C  
HETATM   11  O   UNL     1     -12.468  11.596  62.989  1.00  0.00    -0.972 OA 
HETATM   12  H   UNL     1     -12.705  11.982  62.153  1.00  0.00     0.000 HD 
ENDBRANCH   9  10
ENDBRANCH   6   7
ENDBRANCH   5   6
ENDBRANCH   4   5
TORSDOF 4
ENDMDL
MODEL       81
REMARK 921   NORMALIZED FREE ENERGY PREDICTED BY IDOCK:   -3.50 KCAL/MOL
REMARK 922        TOTAL FREE ENERGY PREDICTED BY IDOCK:   -4.64 KCAL/MOL
REMARK 923 INTER-LIGAND FREE ENERGY PREDICTED BY IDOCK:   -4.37 KCAL/MOL
REMARK 924 INTRA-LIGAND FREE ENERGY PREDICTED BY IDOCK:   -0.27 KCAL/MOL
REMARK 927      BINDING AFFINITY PREDICTED BY RF-SCORE:    0.00 PKD
ROOT
HETATM    1  C   UNL     1      -8.868  16.249  66.083  1.00  0.00    -0.362 C  
HETATM    2  C   UNL     1     -10.160  15.480  66.130  1.00  0.00    -0.329 C  
HETATM    3  C   UNL     1     -10.892  15.290  64.831  1.00  0.00    -0.444 C  
HETATM    4  C   UNL     1     -10.623  15.006  67.305  1.00  0.00    -0.279 C  
ENDROOT
BRANCH   4   5
HETATM    5  C   UNL     1     -11.864  14.176  67.497  1.00  0.00    -0.437 C  
BRANCH   5   6
HETATM    6  C   UNL     1     -11.542  12.714  67.830  1.00  0.00    -0.403 C  
BRANCH   6   7
HETATM    7  C   UNL     1     -11.920  12.322  69.247  1.00  0.00    -0.308 C  
HETATM    8  C   UNL     1     -12.150  13.447  70.222  1.00  0.00    -0.419 C  
HETATM    9  C   UNL     1     -11.995  11.027  69.613  1.00  0.00    -0.424 C  
BRANCH   9  10
HETATM   10  C   UNL     1     -12.302  10.493  70.976  1.00  0.00    -0.399 C  
HETATM   11  O   UNL     1     -13.508   9.751  70.902  1.00  0.00    -0.567 OA 
HETATM   12  H   UNL     1     -13.703   9.411  71.768  1.00  0.00     0.000 HD 
ENDBRANCH   9  10
ENDBRANCH   6   7
ENDBRANCH   5   6
ENDBRANCH   4   5
TORSDOF 4
ENDMDL
MODEL       82
REMARK 921   NORMALIZED FREE ENERGY PREDICTED BY IDOCK:   -3.50 KCAL/MOL
REMARK 922        TOTAL FREE ENERGY PREDICTED BY IDOCK:   -4.63 KCAL/MOL
REMARK 923 INTER-LIGAND FREE ENERGY PREDICTED BY IDOCK:   -4.42 KCAL/MOL
REMARK 924 INTRA-LIGAND FREE ENERGY PREDICTED BY IDOCK:   -0.21 KCAL/MOL
REMARK 927      BINDING AFFINITY PREDICTED BY RF-SCORE:    0.00 PKD
ROOT
HETATM    1  C   UNL     1     -11.849  12.719  65.865  1.00  0.00    -0.490 C  
HETATM    2  C   UNL     1     -11.360  11.781  66.934  1.00  0.00    -0.386 C  
HETATM    3  C   UNL     1     -10.427  10.682  66.508  1.00  0.00    -0.285 C  
HETATM    4  C   UNL     1     -11.769  11.936  68.210  1.00  0.00    -0.385 C  
ENDROOT
BRANCH   4   5
HETATM    5  C   UNL     1     -11.323  11.113  69.390  1.00  0.00    -0.352 C  
BRANCH   5   6
HETATM    6  C   UNL     1     -12.362  11.099  70.518  1.00  0.00    -0.454 C  
BRANCH   6   7
HETATM    7  C   UNL     1     -12.267   9.872  71.407  1.00  0.00    -0.499 C  
HETATM    8  C   UNL     1     -13.510   9.491  72.169  1.00  0.00    -0.535 C  
HETATM    9  C   UNL     1     -11.109   9.196  71.538  1.00  0.00    -0.436 C  
BRANCH   9  10
HETATM   10  C   UNL     1     -10.853   8.010  72.411  1.00  0.00    -0.327 C  
HETATM   11  O   UNL     1      -9.573   8.161  73.004  1.00  0.00    -0.272 OA 
HETATM   12  H   UNL     1      -9.410   7.408  73.559  1.00  0.00     0.000 HD 
ENDBRANCH   9  10
ENDBRANCH   6   7
ENDBRANCH   5   6
ENDBRANCH   4   5
TORSDOF 4
ENDMDL
MODEL       83
REMARK 921   NORMALIZED FREE ENERGY PREDICTED BY IDOCK:   -3.49 KCAL/MOL
REMARK 922        TOTAL FREE ENERGY PREDICTED BY IDOCK:   -4.62 KCAL/MOL
REMARK 923 INTER-LIGAND FREE ENERGY PREDICTED BY IDOCK:   -4.35 KCAL/MOL
REMARK 924 INTRA-LIGAND FREE ENERGY PREDICTED BY IDOCK:   -0.27 KCAL/MOL
REMARK 927      BINDING AFFINITY PREDICTED BY RF-SCORE:    0.00 PKD
ROOT
HETATM    1  C   UNL     1     -10.084  11.258  63.277  1.00  0.00    -0.428 C  
HETATM    2  C   UNL     1     -11.051  12.306  63.759  1.00  0.00    -0.507 C  
HETATM    3  C   UNL     1     -12.509  12.077  63.472  1.00  0.00    -0.654 C  
HETATM    4  C   UNL     1     -10.597  13.399  64.406  1.00  0.00    -0.423 C  
ENDROOT
BRANCH   4   5
HETATM    5  C   UNL     1     -11.446  14.496  64.992  1.00  0.00    -0.382 C  
BRANCH   5   6
HETATM    6  C   UNL     1     -10.682  15.821  65.113  1.00  0.00    -0.455 C  
BRANCH   6   7
HETATM    7  C   UNL     1     -10.357  16.199  66.547  1.00  0.00    -0.311 C  
HETATM    8  C   UNL     1      -9.825  17.589  66.777  1.00  0.00    -0.306 C  
HETATM    9  C   UNL     1     -10.496  15.308  67.549  1.00  0.00    -0.265 C  
BRANCH   9  10
HETATM   10  C   UNL     1     -10.168  15.518  68.992  1.00  0.00    -0.229 C  
HETATM   11  O   UNL     1      -9.093  14.658  69.335  1.00  0.00    -0.393 OA 
HETATM   12  H   UNL     1      -8.885  14.791  70.252  1.00  0.00     0.000 HD 
ENDBRANCH   9  10
ENDBRANCH   6   7
ENDBRANCH   5   6
ENDBRANCH   4   5
TORSDOF 4
ENDMDL
MODEL       84
REMARK 921   NORMALIZED FREE ENERGY PREDICTED BY IDOCK:   -3.48 KCAL/MOL
REMARK 922        TOTAL FREE ENERGY PREDICTED BY IDOCK:   -4.61 KCAL/MOL
REMARK 923 INTER-LIGAND FREE ENERGY PREDICTED BY IDOCK:   -4.21 KCAL/MOL
REMARK 924 INTRA-LIGAND FREE ENERGY PREDICTED BY IDOCK:   -0.40 KCAL/MOL
REMARK 927      BINDING AFFINITY PREDICTED BY RF-SCORE:    0.00 PKD
ROOT
HETATM    1  C   UNL     1     -13.197  12.678  71.731  1.00  0.00    -0.457 C  
HETATM    2  C   UNL     1     -12.879  11.292  71.238  1.00  0.00    -0.491 C  
HETATM    3  C   UNL     1     -12.118  11.182  69.946  1.00  0.00    -0.418 C  
HETATM    4  C   UNL     1     -13.284  10.214  71.940  1.00  0.00    -0.557 C  
ENDROOT
BRANCH   4   5
HETATM    5  C   UNL     1     -12.992   8.776  71.602  1.00  0.00    -0.390 C  
BRANCH   5   6
HETATM    6  C   UNL     1     -11.792   8.226  72.383  1.00  0.00    -0.461 C  
BRANCH   6   7
HETATM    7  C   UNL     1     -10.550   8.047  71.528  1.00  0.00    -0.273 C  
HETATM    8  C   UNL     1     -10.217   6.640  71.103  1.00  0.00    -0.216 C  
HETATM    9  C   UNL     1      -9.765   9.096  71.215  1.00  0.00    -0.351 C  
BRANCH   9  10
HETATM   10  C   UNL     1      -8.491   9.066  70.433  1.00  0.00    -0.182 C  
HETATM   11  O   UNL     1      -7.779  10.264  70.695  1.00  0.00    -0.412 OA 
HETATM   12  H   UNL     1      -6.969  10.245  70.197  1.00  0.00     0.000 HD 
ENDBRANCH   9  10
ENDBRANCH   6   7
ENDBRANCH   5   6
ENDBRANCH   4   5
TORSDOF 4
ENDMDL
MODEL       85
REMARK 921   NORMALIZED FREE ENERGY PREDICTED BY IDOCK:   -3.46 KCAL/MOL
REMARK 922        TOTAL FREE ENERGY PREDICTED BY IDOCK:   -4.59 KCAL/MOL
REMARK 923 INTER-LIGAND FREE ENERGY PREDICTED BY IDOCK:   -4.14 KCAL/MOL
REMARK 924 INTRA-LIGAND FREE ENERGY PREDICTED BY IDOCK:   -0.45 KCAL/MOL
REMARK 927      BINDING AFFINITY PREDICTED BY RF-SCORE:    0.00 PKD
ROOT
HETATM    1  C   UNL     1     -12.950  13.073  71.742  1.00  0.00    -0.420 C  
HETATM    2  C   UNL     1     -12.711  11.682  71.222  1.00  0.00    -0.444 C  
HETATM    3  C   UNL     1     -11.836  11.545  70.007  1.00  0.00    -0.435 C  
HETATM    4  C   UNL     1     -13.283  10.623  71.832  1.00  0.00    -0.528 C  
ENDROOT
BRANCH   4   5
HETATM    5  C   UNL     1     -13.090   9.177  71.460  1.00  0.00    -0.409 C  
BRANCH   5   6
HETATM    6  C   UNL     1     -11.911   8.536  72.203  1.00  0.00    -0.451 C  
BRANCH   6   7
HETATM    7  C   UNL     1     -11.039   7.670  71.313  1.00  0.00    -0.268 C  
HETATM    8  C   UNL     1      -9.732   8.265  70.860  1.00  0.00    -0.204 C  
HETATM    9  C   UNL     1     -11.448   6.450  70.914  1.00  0.00    -0.406 C  
BRANCH   9  10
HETATM   10  C   UNL     1     -10.726   5.511  70.001  1.00  0.00    -0.286 C  
HETATM   11  O   UNL     1     -11.032   5.868  68.663  1.00  0.00    -0.287 OA 
HETATM   12  H   UNL     1     -10.572   5.271  68.083  1.00  0.00     0.000 HD 
ENDBRANCH   9  10
ENDBRANCH   6   7
ENDBRANCH   5   6
ENDBRANCH   4   5
TORSDOF 4
ENDMDL
MODEL       86
REMARK 921   NORMALIZED FREE ENERGY PREDICTED BY IDOCK:   -3.46 KCAL/MOL
REMARK 922        TOTAL FREE ENERGY PREDICTED BY IDOCK:   -4.58 KCAL/MOL
REMARK 923 INTER-LIGAND FREE ENERGY PREDICTED BY IDOCK:   -3.96 KCAL/MOL
REMARK 924 INTRA-LIGAND FREE ENERGY PREDICTED BY IDOCK:   -0.62 KCAL/MOL
REMARK 927      BINDING AFFINITY PREDICTED BY RF-SCORE:    0.00 PKD
ROOT
HETATM    1  C   UNL     1     -12.106  11.428  70.415  1.00  0.00    -0.473 C  
HETATM    2  C   UNL     1     -12.133  12.851  69.927  1.00  0.00    -0.335 C  
HETATM    3  C   UNL     1     -11.821  13.083  68.474  1.00  0.00    -0.360 C  
HETATM    4  C   UNL     1     -12.414  13.855  70.783  1.00  0.00    -0.445 C  
ENDROOT
BRANCH   4   5
HETATM    5  C   UNL     1     -12.532  15.314  70.427  1.00  0.00    -0.426 C  
BRANCH   5   6
HETATM    6  C   UNL     1     -11.227  16.081  70.674  1.00  0.00    -0.395 C  
BRANCH   6   7
HETATM    7  C   UNL     1     -10.366  16.219  69.431  1.00  0.00    -0.278 C  
HETATM    8  C   UNL     1      -9.051  15.483  69.433  1.00  0.00    -0.280 C  
HETATM    9  C   UNL     1     -10.748  17.003  68.405  1.00  0.00    -0.361 C  
BRANCH   9  10
HETATM   10  C   UNL     1      -9.986  17.276  67.147  1.00  0.00    -0.282 C  
HETATM   11  O   UNL     1     -10.525  16.466  66.115  1.00  0.00    -0.324 OA 
HETATM   12  H   UNL     1     -10.040  16.639  65.316  1.00  0.00     0.000 HD 
ENDBRANCH   9  10
ENDBRANCH   6   7
ENDBRANCH   5   6
ENDBRANCH   4   5
TORSDOF 4
ENDMDL
MODEL       87
REMARK 921   NORMALIZED FREE ENERGY PREDICTED BY IDOCK:   -3.46 KCAL/MOL
REMARK 922        TOTAL FREE ENERGY PREDICTED BY IDOCK:   -4.58 KCAL/MOL
REMARK 923 INTER-LIGAND FREE ENERGY PREDICTED BY IDOCK:   -4.31 KCAL/MOL
REMARK 924 INTRA-LIGAND FREE ENERGY PREDICTED BY IDOCK:   -0.27 KCAL/MOL
REMARK 927      BINDING AFFINITY PREDICTED BY RF-SCORE:    0.00 PKD
ROOT
HETATM    1  C   UNL     1      -7.979  15.932  67.038  1.00  0.00    -0.270 C  
HETATM    2  C   UNL     1      -9.377  15.739  67.557  1.00  0.00    -0.210 C  
HETATM    3  C   UNL     1     -10.504  16.218  66.683  1.00  0.00    -0.290 C  
HETATM    4  C   UNL     1      -9.580  15.172  68.763  1.00  0.00    -0.219 C  
ENDROOT
BRANCH   4   5
HETATM    5  C   UNL     1     -10.918  14.866  69.384  1.00  0.00    -0.284 C  
BRANCH   5   6
HETATM    6  C   UNL     1     -11.363  15.950  70.374  1.00  0.00    -0.399 C  
BRANCH   6   7
HETATM    7  C   UNL     1     -12.261  15.423  71.479  1.00  0.00    -0.433 C  
HETATM    8  C   UNL     1     -12.265  16.193  72.773  1.00  0.00    -0.628 C  
HETATM    9  C   UNL     1     -12.977  14.294  71.313  1.00  0.00    -0.422 C  
BRANCH   9  10
HETATM   10  C   UNL     1     -13.858  13.630  72.322  1.00  0.00    -0.590 C  
HETATM   11  O   UNL     1     -13.367  12.318  72.549  1.00  0.00    -0.562 OA 
HETATM   12  H   UNL     1     -13.928  11.897  73.190  1.00  0.00     0.000 HD 
ENDBRANCH   9  10
ENDBRANCH   6   7
ENDBRANCH   5   6
ENDBRANCH   4   5
TORSDOF 4
ENDMDL
MODEL       88
REMARK 921   NORMALIZED FREE ENERGY PREDICTED BY IDOCK:   -3.45 KCAL/MOL
REMARK 922        TOTAL FREE ENERGY PREDICTED BY IDOCK:   -4.57 KCAL/MOL
REMARK 923 INTER-LIGAND FREE ENERGY PREDICTED BY IDOCK:   -4.16 KCAL/MOL
REMARK 924 INTRA-LIGAND FREE ENERGY PREDICTED BY IDOCK:   -0.41 KCAL/MOL
REMARK 927      BINDING AFFINITY PREDICTED BY RF-SCORE:    0.00 PKD
ROOT
HETATM    1  C   UNL     1     -11.745  15.076  68.589  1.00  0.00    -0.363 C  
HETATM    2  C   UNL     1     -11.807  13.802  67.791  1.00  0.00    -0.404 C  
HETATM    3  C   UNL     1     -12.247  13.913  66.357  1.00  0.00    -0.487 C  
HETATM    4  C   UNL     1     -11.489  12.625  68.368  1.00  0.00    -0.350 C  
ENDROOT
BRANCH   4   5
HETATM    5  C   UNL     1     -11.450  11.285  67.682  1.00  0.00    -0.341 C  
BRANCH   5   6
HETATM    6  C   UNL     1     -10.019  10.831  67.370  1.00  0.00    -0.214 C  
BRANCH   6   7
HETATM    7  C   UNL     1      -9.692  10.849  65.887  1.00  0.00    -0.269 C  
HETATM    8  C   UNL     1      -8.280  10.493  65.501  1.00  0.00    -0.162 C  
HETATM    9  C   UNL     1     -10.615  11.217  64.977  1.00  0.00    -0.340 C  
BRANCH   9  10
HETATM   10  C   UNL     1     -10.424  11.333  63.499  1.00  0.00    -0.395 C  
HETATM   11  O   UNL     1     -11.696  11.524  62.899  1.00  0.00    -0.834 OA 
HETATM   12  H   UNL     1     -11.575  11.598  61.960  1.00  0.00     0.000 HD 
ENDBRANCH   9  10
ENDBRANCH   6   7
ENDBRANCH   5   6
ENDBRANCH   4   5
TORSDOF 4
ENDMDL
MODEL       89
REMARK 921   NORMALIZED FREE ENERGY PREDICTED BY IDOCK:   -3.44 KCAL/MOL
REMARK 922        TOTAL FREE ENERGY PREDICTED BY IDOCK:   -4.57 KCAL/MOL
REMARK 923 INTER-LIGAND FREE ENERGY PREDICTED BY IDOCK:   -4.17 KCAL/MOL
REMARK 924 INTRA-LIGAND FREE ENERGY PREDICTED BY IDOCK:   -0.39 KCAL/MOL
REMARK 927      BINDING AFFINITY PREDICTED BY RF-SCORE:    0.00 PKD
ROOT
HETATM    1  C   UNL     1      -9.858  19.503  69.069  1.00  0.00    -0.491 C  
HETATM    2  C   UNL     1      -9.932  18.860  67.712  1.00  0.00    -0.411 C  
HETATM    3  C   UNL     1     -10.860  19.484  66.707  1.00  0.00    -0.500 C  
HETATM    4  C   UNL     1      -9.196  17.762  67.441  1.00  0.00    -0.248 C  
ENDROOT
BRANCH   4   5
HETATM    5  C   UNL     1      -9.126  17.047  66.118  1.00  0.00    -0.239 C  
BRANCH   5   6
HETATM    6  C   UNL     1      -8.858  15.546  66.280  1.00  0.00    -0.338 C  
BRANCH   6   7
HETATM    7  C   UNL     1     -10.078  14.762  66.732  1.00  0.00    -0.258 C  
HETATM    8  C   UNL     1      -9.960  14.021  68.038  1.00  0.00    -0.235 C  
HETATM    9  C   UNL     1     -11.186  14.702  65.969  1.00  0.00    -0.342 C  
BRANCH   9  10
HETATM   10  C   UNL     1     -12.436  13.933  66.257  1.00  0.00    -0.409 C  
HETATM   11  O   UNL     1     -13.316  14.084  65.155  1.00  0.00    -0.703 OA 
HETATM   12  H   UNL     1     -14.111  13.596  65.338  1.00  0.00     0.000 HD 
ENDBRANCH   9  10
ENDBRANCH   6   7
ENDBRANCH   5   6
ENDBRANCH   4   5
TORSDOF 4
ENDMDL
MODEL       90
REMARK 921   NORMALIZED FREE ENERGY PREDICTED BY IDOCK:   -3.43 KCAL/MOL
REMARK 922        TOTAL FREE ENERGY PREDICTED BY IDOCK:   -4.55 KCAL/MOL
REMARK 923 INTER-LIGAND FREE ENERGY PREDICTED BY IDOCK:   -4.14 KCAL/MOL
REMARK 924 INTRA-LIGAND FREE ENERGY PREDICTED BY IDOCK:   -0.41 KCAL/MOL
REMARK 927      BINDING AFFINITY PREDICTED BY RF-SCORE:    0.00 PKD
ROOT
HETATM    1  C   UNL     1      -7.685  19.310  68.686  1.00  0.00    -0.394 C  
HETATM    2  C   UNL     1      -8.428  18.064  68.288  1.00  0.00    -0.293 C  
HETATM    3  C   UNL     1      -7.726  16.751  68.498  1.00  0.00    -0.223 C  
HETATM    4  C   UNL     1      -9.664  18.153  67.754  1.00  0.00    -0.294 C  
ENDROOT
BRANCH   4   5
HETATM    5  C   UNL     1     -10.545  16.995  67.363  1.00  0.00    -0.289 C  
BRANCH   5   6
HETATM    6  C   UNL     1     -10.492  16.706  65.857  1.00  0.00    -0.324 C  
BRANCH   6   7
HETATM    7  C   UNL     1     -10.732  15.246  65.517  1.00  0.00    -0.385 C  
HETATM    8  C   UNL     1      -9.790  14.244  66.130  1.00  0.00    -0.335 C  
HETATM    9  C   UNL     1     -11.712  14.883  64.666  1.00  0.00    -0.406 C  
BRANCH   9  10
HETATM   10  C   UNL     1     -12.032  13.500  64.199  1.00  0.00    -0.448 C  
HETATM   11  O   UNL     1     -13.150  13.028  64.934  1.00  0.00    -0.745 OA 
HETATM   12  H   UNL     1     -13.353  12.149  64.637  1.00  0.00     0.000 HD 
ENDBRANCH   9  10
ENDBRANCH   6   7
ENDBRANCH   5   6
ENDBRANCH   4   5
TORSDOF 4
ENDMDL
MODEL       91
REMARK 921   NORMALIZED FREE ENERGY PREDICTED BY IDOCK:   -3.42 KCAL/MOL
REMARK 922        TOTAL FREE ENERGY PREDICTED BY IDOCK:   -4.54 KCAL/MOL
REMARK 923 INTER-LIGAND FREE ENERGY PREDICTED BY IDOCK:   -3.93 KCAL/MOL
REMARK 924 INTRA-LIGAND FREE ENERGY PREDICTED BY IDOCK:   -0.61 KCAL/MOL
REMARK 927      BINDING AFFINITY PREDICTED BY RF-SCORE:    0.00 PKD
ROOT
HETATM    1  C   UNL     1      -7.905  10.707  66.146  1.00  0.00    -0.152 C  
HETATM    2  C   UNL     1      -9.345  11.137  66.069  1.00  0.00    -0.228 C  
HETATM    3  C   UNL     1      -9.918  11.372  64.699  1.00  0.00    -0.315 C  
HETATM    4  C   UNL     1     -10.061  11.309  67.199  1.00  0.00    -0.223 C  
ENDROOT
BRANCH   4   5
HETATM    5  C   UNL     1     -11.519  11.679  67.276  1.00  0.00    -0.350 C  
BRANCH   5   6
HETATM    6  C   UNL     1     -11.726  13.167  67.585  1.00  0.00    -0.414 C  
BRANCH   6   7
HETATM    7  C   UNL     1     -11.802  14.035  66.342  1.00  0.00    -0.437 C  
HETATM    8  C   UNL     1     -12.757  13.592  65.264  1.00  0.00    -0.478 C  
HETATM    9  C   UNL     1     -11.012  15.117  66.200  1.00  0.00    -0.331 C  
BRANCH   9  10
HETATM   10  C   UNL     1     -10.937  16.029  65.018  1.00  0.00    -0.380 C  
HETATM   11  O   UNL     1     -10.364  17.257  65.439  1.00  0.00    -0.626 OA 
HETATM   12  H   UNL     1     -10.317  17.837  64.687  1.00  0.00     0.000 HD 
ENDBRANCH   9  10
ENDBRANCH   6   7
ENDBRANCH   5   6
ENDBRANCH   4   5
TORSDOF 4
ENDMDL
MODEL       92
REMARK 921   NORMALIZED FREE ENERGY PREDICTED BY IDOCK:   -3.41 KCAL/MOL
REMARK 922        TOTAL FREE ENERGY PREDICTED BY IDOCK:   -4.52 KCAL/MOL
REMARK 923 INTER-LIGAND FREE ENERGY PREDICTED BY IDOCK:   -4.32 KCAL/MOL
REMARK 924 INTRA-LIGAND FREE ENERGY PREDICTED BY IDOCK:   -0.20 KCAL/MOL
REMARK 927      BINDING AFFINITY PREDICTED BY RF-SCORE:    0.00 PKD
ROOT
HETATM    1  C   UNL     1      -8.947   8.947  69.231  1.00  0.00    -0.144 C  
HETATM    2  C   UNL     1     -10.063   9.936  69.037  1.00  0.00    -0.199 C  
HETATM    3  C   UNL     1     -10.024  10.778  67.791  1.00  0.00    -0.195 C  
HETATM    4  C   UNL     1     -11.036  10.051  69.965  1.00  0.00    -0.352 C  
ENDROOT
BRANCH   4   5
HETATM    5  C   UNL     1     -12.239  10.953  69.879  1.00  0.00    -0.408 C  
BRANCH   5   6
HETATM    6  C   UNL     1     -12.745  11.383  71.261  1.00  0.00    -0.498 C  
BRANCH   6   7
HETATM    7  C   UNL     1     -12.857  12.888  71.419  1.00  0.00    -0.377 C  
HETATM    8  C   UNL     1     -13.866  13.391  72.419  1.00  0.00    -0.665 C  
HETATM    9  C   UNL     1     -12.121  13.723  70.661  1.00  0.00    -0.405 C  
BRANCH   9  10
HETATM   10  C   UNL     1     -12.161  15.218  70.667  1.00  0.00    -0.364 C  
HETATM   11  O   UNL     1     -13.410  15.632  70.136  1.00  0.00    -0.710 OA 
HETATM   12  H   UNL     1     -13.436  16.582  70.140  1.00  0.00     0.000 HD 
ENDBRANCH   9  10
ENDBRANCH   6   7
ENDBRANCH   5   6
ENDBRANCH   4   5
TORSDOF 4
ENDMDL
MODEL       93
REMARK 921   NORMALIZED FREE ENERGY PREDICTED BY IDOCK:   -3.39 KCAL/MOL
REMARK 922        TOTAL FREE ENERGY PREDICTED BY IDOCK:   -4.50 KCAL/MOL
REMARK 923 INTER-LIGAND FREE ENERGY PREDICTED BY IDOCK:   -4.18 KCAL/MOL
REMARK 924 INTRA-LIGAND FREE ENERGY PREDICTED BY IDOCK:   -0.32 KCAL/MOL
REMARK 927      BINDING AFFINITY PREDICTED BY RF-SCORE:    0.00 PKD
ROOT
HETATM    1  C   UNL     1      -9.008   4.166  72.441  1.00  0.00    -0.131 C  
HETATM    2  C   UNL     1     -10.251   4.972  72.704  1.00  0.00    -0.236 C  
HETATM    3  C   UNL     1     -10.974   4.714  73.997  1.00  0.00    -0.261 C  
HETATM    4  C   UNL     1     -10.681   5.869  71.794  1.00  0.00    -0.299 C  
ENDROOT
BRANCH   4   5
HETATM    5  C   UNL     1     -11.870   6.782  71.944  1.00  0.00    -0.366 C  
BRANCH   5   6
HETATM    6  C   UNL     1     -11.488   8.144  72.536  1.00  0.00    -0.470 C  
BRANCH   6   7
HETATM    7  C   UNL     1     -11.114   9.174  71.485  1.00  0.00    -0.436 C  
HETATM    8  C   UNL     1      -9.665   9.232  71.079  1.00  0.00    -0.341 C  
HETATM    9  C   UNL     1     -12.035  10.021  70.984  1.00  0.00    -0.469 C  
BRANCH   9  10
HETATM   10  C   UNL     1     -11.806  11.113  69.989  1.00  0.00    -0.361 C  
HETATM   11  O   UNL     1     -12.381  10.719  68.754  1.00  0.00    -0.812 OA 
HETATM   12  H   UNL     1     -12.236  11.414  68.122  1.00  0.00     0.000 HD 
ENDBRANCH   9  10
ENDBRANCH   6   7
ENDBRANCH   5   6
ENDBRANCH   4   5
TORSDOF 4
ENDMDL
MODEL       94
REMARK 921   NORMALIZED FREE ENERGY PREDICTED BY IDOCK:   -3.38 KCAL/MOL
REMARK 922        TOTAL FREE ENERGY PREDICTED BY IDOCK:   -4.48 KCAL/MOL
REMARK 923 INTER-LIGAND FREE ENERGY PREDICTED BY IDOCK:   -4.17 KCAL/MOL
REMARK 924 INTRA-LIGAND FREE ENERGY PREDICTED BY IDOCK:   -0.31 KCAL/MOL
REMARK 927      BINDING AFFINITY PREDICTED BY RF-SCORE:    0.00 PKD
ROOT
HETATM    1  C   UNL     1     -13.988  14.905  71.438  1.00  0.00    -0.544 C  
HETATM    2  C   UNL     1     -12.663  15.461  70.992  1.00  0.00    -0.510 C  
HETATM    3  C   UNL     1     -11.863  16.224  72.012  1.00  0.00    -0.568 C  
HETATM    4  C   UNL     1     -12.244  15.279  69.723  1.00  0.00    -0.326 C  
ENDROOT
BRANCH   4   5
HETATM    5  C   UNL     1     -10.924  15.728  69.154  1.00  0.00    -0.265 C  
BRANCH   5   6
HETATM    6  C   UNL     1     -11.092  16.784  68.055  1.00  0.00    -0.220 C  
BRANCH   6   7
HETATM    7  C   UNL     1     -10.101  17.929  68.165  1.00  0.00    -0.368 C  
HETATM    8  C   UNL     1     -10.607  19.300  67.799  1.00  0.00    -0.516 C  
HETATM    9  C   UNL     1      -8.822  17.709  68.525  1.00  0.00    -0.285 C  
BRANCH   9  10
HETATM   10  C   UNL     1      -7.727  18.722  68.624  1.00  0.00    -0.326 C  
HETATM   11  O   UNL     1      -6.561  18.073  69.108  1.00  0.00    -0.244 OA 
HETATM   12  H   UNL     1      -5.866  18.717  69.171  1.00  0.00     0.000 HD 
ENDBRANCH   9  10
ENDBRANCH   6   7
ENDBRANCH   5   6
ENDBRANCH   4   5
TORSDOF 4
ENDMDL
MODEL       95
REMARK 921   NORMALIZED FREE ENERGY PREDICTED BY IDOCK:   -3.36 KCAL/MOL
REMARK 922        TOTAL FREE ENERGY PREDICTED BY IDOCK:   -4.47 KCAL/MOL
REMARK 923 INTER-LIGAND FREE ENERGY PREDICTED BY IDOCK:   -4.09 KCAL/MOL
REMARK 924 INTRA-LIGAND FREE ENERGY PREDICTED BY IDOCK:   -0.37 KCAL/MOL
REMARK 927      BINDING AFFINITY PREDICTED BY RF-SCORE:    0.00 PKD
ROOT
HETATM    1  C   UNL     1      -9.713  15.239  66.632  1.00  0.00    -0.268 C  
HETATM    2  C   UNL     1     -10.872  14.515  66.002  1.00  0.00    -0.310 C  
HETATM    3  C   UNL     1     -12.061  14.232  66.878  1.00  0.00    -0.440 C  
HETATM    4  C   UNL     1     -10.813  14.137  64.708  1.00  0.00    -0.426 C  
ENDROOT
BRANCH   4   5
HETATM    5  C   UNL     1     -11.912  13.460  63.932  1.00  0.00    -0.520 C  
BRANCH   5   6
HETATM    6  C   UNL     1     -12.079  11.987  64.325  1.00  0.00    -0.414 C  
BRANCH   6   7
HETATM    7  C   UNL     1     -10.764  11.233  64.408  1.00  0.00    -0.407 C  
HETATM    8  C   UNL     1     -10.332  10.775  65.777  1.00  0.00    -0.295 C  
HETATM    9  C   UNL     1     -10.006  11.035  63.312  1.00  0.00    -0.414 C  
BRANCH   9  10
HETATM   10  C   UNL     1      -8.672  10.361  63.249  1.00  0.00    -0.201 C  
HETATM   11  O   UNL     1      -8.884   8.967  63.095  1.00  0.00    -0.399 OA 
HETATM   12  H   UNL     1      -8.037   8.539  63.055  1.00  0.00     0.000 HD 
ENDBRANCH   9  10
ENDBRANCH   6   7
ENDBRANCH   5   6
ENDBRANCH   4   5
TORSDOF 4
ENDMDL
MODEL       96
REMARK 921   NORMALIZED FREE ENERGY PREDICTED BY IDOCK:   -3.36 KCAL/MOL
REMARK 922        TOTAL FREE ENERGY PREDICTED BY IDOCK:   -4.46 KCAL/MOL
REMARK 923 INTER-LIGAND FREE ENERGY PREDICTED BY IDOCK:   -4.04 KCAL/MOL
REMARK 924 INTRA-LIGAND FREE ENERGY PREDICTED BY IDOCK:   -0.42 KCAL/MOL
REMARK 927      BINDING AFFINITY PREDICTED BY RF-SCORE:    0.00 PKD
ROOT
HETATM    1  C   UNL     1     -12.597  13.472  65.612  1.00  0.00    -0.512 C  
HETATM    2  C   UNL     1     -11.569  14.449  66.113  1.00  0.00    -0.372 C  
HETATM    3  C   UNL     1     -10.822  15.247  65.081  1.00  0.00    -0.441 C  
HETATM    4  C   UNL     1     -11.340  14.571  67.437  1.00  0.00    -0.370 C  
ENDROOT
BRANCH   4   5
HETATM    5  C   UNL     1     -10.387  15.541  68.084  1.00  0.00    -0.237 C  
BRANCH   5   6
HETATM    6  C   UNL     1     -11.014  16.926  68.288  1.00  0.00    -0.298 C  
BRANCH   6   7
HETATM    7  C   UNL     1     -10.088  18.067  67.906  1.00  0.00    -0.360 C  
HETATM    8  C   UNL     1     -10.670  19.147  67.031  1.00  0.00    -0.542 C  
HETATM    9  C   UNL     1      -8.799  18.076  68.296  1.00  0.00    -0.291 C  
BRANCH   9  10
HETATM   10  C   UNL     1      -7.762  19.098  67.956  1.00  0.00    -0.283 C  
HETATM   11  O   UNL     1      -7.368  19.749  69.153  1.00  0.00    -0.336 OA 
HETATM   12  H   UNL     1      -6.710  20.399  68.937  1.00  0.00     0.000 HD 
ENDBRANCH   9  10
ENDBRANCH   6   7
ENDBRANCH   5   6
ENDBRANCH   4   5
TORSDOF 4
ENDMDL
MODEL       97
REMARK 921   NORMALIZED FREE ENERGY PREDICTED BY IDOCK:   -3.34 KCAL/MOL
REMARK 922        TOTAL FREE ENERGY PREDICTED BY IDOCK:   -4.44 KCAL/MOL
REMARK 923 INTER-LIGAND FREE ENERGY PREDICTED BY IDOCK:   -3.99 KCAL/MOL
REMARK 924 INTRA-LIGAND FREE ENERGY PREDICTED BY IDOCK:   -0.45 KCAL/MOL
REMARK 927      BINDING AFFINITY PREDICTED BY RF-SCORE:    0.00 PKD
ROOT
HETATM    1  C   UNL     1      -8.264   7.905  74.345  1.00  0.00    -0.288 C  
HETATM    2  C   UNL     1      -9.196   7.821  73.167  1.00  0.00    -0.302 C  
HETATM    3  C   UNL     1     -10.552   7.217  73.409  1.00  0.00    -0.435 C  
HETATM    4  C   UNL     1      -8.800   8.263  71.956  1.00  0.00    -0.256 C  
ENDROOT
BRANCH   4   5
HETATM    5  C   UNL     1      -9.640   8.293  70.706  1.00  0.00    -0.196 C  
BRANCH   5   6
HETATM    6  C   UNL     1      -9.882   9.721  70.202  1.00  0.00    -0.306 C  
BRANCH   6   7
HETATM    7  C   UNL     1     -11.326  10.170  70.334  1.00  0.00    -0.401 C  
HETATM    8  C   UNL     1     -11.876  11.022  69.221  1.00  0.00    -0.411 C  
HETATM    9  C   UNL     1     -12.054   9.855  71.424  1.00  0.00    -0.501 C  
BRANCH   9  10
HETATM   10  C   UNL     1     -13.461  10.267  71.716  1.00  0.00    -0.289 C  
HETATM   11  O   UNL     1     -13.435  11.561  72.298  1.00  0.00    -0.602 OA 
HETATM   12  H   UNL     1     -14.329  11.823  72.484  1.00  0.00     0.000 HD 
ENDBRANCH   9  10
ENDBRANCH   6   7
ENDBRANCH   5   6
ENDBRANCH   4   5
TORSDOF 4
ENDMDL
MODEL       98
REMARK 921   NORMALIZED FREE ENERGY PREDICTED BY IDOCK:   -3.33 KCAL/MOL
REMARK 922        TOTAL FREE ENERGY PREDICTED BY IDOCK:   -4.42 KCAL/MOL
REMARK 923 INTER-LIGAND FREE ENERGY PREDICTED BY IDOCK:   -3.80 KCAL/MOL
REMARK 924 INTRA-LIGAND FREE ENERGY PREDICTED BY IDOCK:   -0.62 KCAL/MOL
REMARK 927      BINDING AFFINITY PREDICTED BY RF-SCORE:    0.00 PKD
ROOT
HETATM    1  C   UNL     1      -8.784   5.824  68.600  1.00  0.00    -0.108 C  
HETATM    2  C   UNL     1      -9.967   5.975  69.517  1.00  0.00    -0.225 C  
HETATM    3  C   UNL     1     -11.279   6.351  68.886  1.00  0.00    -0.385 C  
HETATM    4  C   UNL     1      -9.823   5.787  70.844  1.00  0.00    -0.229 C  
ENDROOT
BRANCH   4   5
HETATM    5  C   UNL     1     -10.923   5.847  71.872  1.00  0.00    -0.321 C  
BRANCH   5   6
HETATM    6  C   UNL     1     -10.870   7.133  72.707  1.00  0.00    -0.337 C  
BRANCH   6   7
HETATM    7  C   UNL     1     -11.405   8.349  71.972  1.00  0.00    -0.411 C  
HETATM    8  C   UNL     1     -10.388   9.247  71.318  1.00  0.00    -0.397 C  
HETATM    9  C   UNL     1     -12.723   8.628  71.958  1.00  0.00    -0.427 C  
BRANCH   9  10
HETATM   10  C   UNL     1     -13.387   9.809  71.326  1.00  0.00    -0.339 C  
HETATM   11  O   UNL     1     -13.362  10.883  72.253  1.00  0.00    -0.623 OA 
HETATM   12  H   UNL     1     -13.783  11.634  71.851  1.00  0.00     0.000 HD 
ENDBRANCH   9  10
ENDBRANCH   6   7
ENDBRANCH   5   6
ENDBRANCH   4   5
TORSDOF 4
ENDMDL
MODEL       99
REMARK 921   NORMALIZED FREE ENERGY PREDICTED BY IDOCK:   -3.32 KCAL/MOL
REMARK 922        TOTAL FREE ENERGY PREDICTED BY IDOCK:   -4.41 KCAL/MOL
REMARK 923 INTER-LIGAND FREE ENERGY PREDICTED BY IDOCK:   -3.93 KCAL/MOL
REMARK 924 INTRA-LIGAND FREE ENERGY PREDICTED BY IDOCK:   -0.49 KCAL/MOL
REMARK 927      BINDING AFFINITY PREDICTED BY RF-SCORE:    0.00 PKD
ROOT
HETATM    1  C   UNL     1     -12.249  10.854  70.697  1.00  0.00    -0.472 C  
HETATM    2  C   UNL     1     -12.330   9.668  71.618  1.00  0.00    -0.489 C  
HETATM    3  C   UNL     1     -13.681   9.334  72.187  1.00  0.00    -0.517 C  
HETATM    4  C   UNL     1     -11.219   8.963  71.914  1.00  0.00    -0.447 C  
ENDROOT
BRANCH   4   5
HETATM    5  C   UNL     1     -11.157   7.726  72.772  1.00  0.00    -0.457 C  
BRANCH   5   6
HETATM    6  C   UNL     1     -11.565   6.463  72.003  1.00  0.00    -0.368 C  
BRANCH   6   7
HETATM    7  C   UNL     1     -10.688   6.186  70.795  1.00  0.00    -0.326 C  
HETATM    8  C   UNL     1     -11.357   6.242  69.446  1.00  0.00    -0.448 C  
HETATM    9  C   UNL     1      -9.390   5.856  70.940  1.00  0.00    -0.180 C  
BRANCH   9  10
HETATM   10  C   UNL     1      -8.423   5.507  69.854  1.00  0.00    -0.116 C  
HETATM   11  O   UNL     1      -7.795   6.701  69.416  1.00  0.00    -0.108 OA 
HETATM   12  H   UNL     1      -7.180   6.479  68.726  1.00  0.00     0.000 HD 
ENDBRANCH   9  10
ENDBRANCH   6   7
ENDBRANCH   5   6
ENDBRANCH   4   5
TORSDOF 4
ENDMDL
MODEL      100
REMARK 921   NORMALIZED FREE ENERGY PREDICTED BY IDOCK:   -3.29 KCAL/MOL
REMARK 922        TOTAL FREE ENERGY PREDICTED BY IDOCK:   -4.37 KCAL/MOL
REMARK 923 INTER-LIGAND FREE ENERGY PREDICTED BY IDOCK:   -3.97 KCAL/MOL
REMARK 924 INTRA-LIGAND FREE ENERGY PREDICTED BY IDOCK:   -0.40 KCAL/MOL
REMARK 927      BINDING AFFINITY PREDICTED BY RF-SCORE:    0.00 PKD
ROOT
HETATM    1  C   UNL     1     -10.204  10.918  63.343  1.00  0.00    -0.356 C  
HETATM    2  C   UNL     1     -10.760  12.068  64.137  1.00  0.00    -0.405 C  
HETATM    3  C   UNL     1     -12.043  12.682  63.646  1.00  0.00    -0.632 C  
HETATM    4  C   UNL     1     -10.108  12.517  65.228  1.00  0.00    -0.275 C  
ENDROOT
BRANCH   4   5
HETATM    5  C   UNL     1     -10.571  13.617  66.147  1.00  0.00    -0.291 C  
BRANCH   5   6
HETATM    6  C   UNL     1      -9.422  14.535  66.583  1.00  0.00    -0.301 C  
BRANCH   6   7
HETATM    7  C   UNL     1      -9.630  15.987  66.190  1.00  0.00    -0.366 C  
HETATM    8  C   UNL     1     -10.616  16.254  65.083  1.00  0.00    -0.327 C  
HETATM    9  C   UNL     1      -8.924  16.973  66.776  1.00  0.00    -0.267 C  
BRANCH   9  10
HETATM   10  C   UNL     1      -8.981  18.433  66.458  1.00  0.00    -0.286 C  
HETATM   11  O   UNL     1      -7.909  18.741  65.582  1.00  0.00    -0.465 OA 
HETATM   12  H   UNL     1      -7.945  19.669  65.380  1.00  0.00     0.000 HD 
ENDBRANCH   9  10
ENDBRANCH   6   7
ENDBRANCH   5   6
ENDBRANCH   4   5
TORSDOF 4
ENDMDL
MODEL      101
REMARK 921   NORMALIZED FREE ENERGY PREDICTED BY IDOCK:   -3.27 KCAL/MOL
REMARK 922        TOTAL FREE ENERGY PREDICTED BY IDOCK:   -4.36 KCAL/MOL
REMARK 923 INTER-LIGAND FREE ENERGY PREDICTED BY IDOCK:   -4.11 KCAL/MOL
REMARK 924 INTRA-LIGAND FREE ENERGY PREDICTED BY IDOCK:   -0.24 KCAL/MOL
REMARK 927      BINDING AFFINITY PREDICTED BY RF-SCORE:    0.00 PKD
ROOT
HETATM    1  C   UNL     1     -11.113  14.889  64.945  1.00  0.00    -0.424 C  
HETATM    2  C   UNL     1     -11.675  13.752  65.753  1.00  0.00    -0.365 C  
HETATM    3  C   UNL     1     -12.513  12.740  65.022  1.00  0.00    -0.572 C  
HETATM    4  C   UNL     1     -11.432  13.678  67.078  1.00  0.00    -0.368 C  
ENDROOT
BRANCH   4   5
HETATM    5  C   UNL     1     -11.879  12.574  68.000  1.00  0.00    -0.382 C  
BRANCH   5   6
HETATM    6  C   UNL     1     -10.702  11.747  68.533  1.00  0.00    -0.251 C  
BRANCH   6   7
HETATM    7  C   UNL     1     -11.050  10.928  69.763  1.00  0.00    -0.328 C  
HETATM    8  C   UNL     1     -12.175  11.442  70.622  1.00  0.00    -0.484 C  
HETATM    9  C   UNL     1     -10.347   9.825  70.085  1.00  0.00    -0.335 C  
BRANCH   9  10
HETATM   10  C   UNL     1     -10.538   8.954  71.285  1.00  0.00    -0.281 C  
HETATM   11  O   UNL     1      -9.326   8.938  72.022  1.00  0.00    -0.324 OA 
HETATM   12  H   UNL     1      -9.448   8.385  72.785  1.00  0.00     0.000 HD 
ENDBRANCH   9  10
ENDBRANCH   6   7
ENDBRANCH   5   6
ENDBRANCH   4   5
TORSDOF 4
ENDMDL
MODEL      102
REMARK 921   NORMALIZED FREE ENERGY PREDICTED BY IDOCK:   -3.25 KCAL/MOL
REMARK 922        TOTAL FREE ENERGY PREDICTED BY IDOCK:   -4.33 KCAL/MOL
REMARK 923 INTER-LIGAND FREE ENERGY PREDICTED BY IDOCK:   -3.79 KCAL/MOL
REMARK 924 INTRA-LIGAND FREE ENERGY PREDICTED BY IDOCK:   -0.54 KCAL/MOL
REMARK 927      BINDING AFFINITY PREDICTED BY RF-SCORE:    0.00 PKD
ROOT
HETATM    1  C   UNL     1      -7.698  19.819  68.145  1.00  0.00    -0.336 C  
HETATM    2  C   UNL     1      -9.037  19.392  67.607  1.00  0.00    -0.362 C  
HETATM    3  C   UNL     1     -10.257  19.945  68.290  1.00  0.00    -0.562 C  
HETATM    4  C   UNL     1      -9.107  18.538  66.566  1.00  0.00    -0.299 C  
ENDROOT
BRANCH   4   5
HETATM    5  C   UNL     1     -10.369  18.070  65.889  1.00  0.00    -0.274 C  
BRANCH   5   6
HETATM    6  C   UNL     1     -10.508  16.542  65.909  1.00  0.00    -0.335 C  
BRANCH   6   7
HETATM    7  C   UNL     1     -10.307  15.938  67.287  1.00  0.00    -0.293 C  
HETATM    8  C   UNL     1      -9.070  15.102  67.486  1.00  0.00    -0.187 C  
HETATM    9  C   UNL     1     -11.224  16.108  68.260  1.00  0.00    -0.343 C  
BRANCH   9  10
HETATM   10  C   UNL     1     -11.188  15.534  69.641  1.00  0.00    -0.300 C  
HETATM   11  O   UNL     1     -11.602  16.539  70.552  1.00  0.00    -0.496 OA 
HETATM   12  H   UNL     1     -11.579  16.174  71.429  1.00  0.00     0.000 HD 
ENDBRANCH   9  10
ENDBRANCH   6   7
ENDBRANCH   5   6
ENDBRANCH   4   5
TORSDOF 4
ENDMDL
MODEL      103
REMARK 921   NORMALIZED FREE ENERGY PREDICTED BY IDOCK:   -3.25 KCAL/MOL
REMARK 922        TOTAL FREE ENERGY PREDICTED BY IDOCK:   -4.32 KCAL/MOL
REMARK 923 INTER-LIGAND FREE ENERGY PREDICTED BY IDOCK:   -3.84 KCAL/MOL
REMARK 924 INTRA-LIGAND FREE ENERGY PREDICTED BY IDOCK:   -0.48 KCAL/MOL
REMARK 927      BINDING AFFINITY PREDICTED BY RF-SCORE:    0.00 PKD
ROOT
HETATM    1  C   UNL     1      -8.924  15.485  69.238  1.00  0.00    -0.267 C  
HETATM    2  C   UNL     1     -10.294  14.932  68.953  1.00  0.00    -0.244 C  
HETATM    3  C   UNL     1     -11.331  15.080  70.031  1.00  0.00    -0.305 C  
HETATM    4  C   UNL     1     -10.547  14.322  67.776  1.00  0.00    -0.253 C  
ENDROOT
BRANCH   4   5
HETATM    5  C   UNL     1     -11.877  13.773  67.331  1.00  0.00    -0.431 C  
BRANCH   5   6
HETATM    6  C   UNL     1     -11.767  12.341  66.795  1.00  0.00    -0.411 C  
BRANCH   6   7
HETATM    7  C   UNL     1     -11.374  11.330  67.857  1.00  0.00    -0.367 C  
HETATM    8  C   UNL     1     -10.434  10.232  67.432  1.00  0.00    -0.303 C  
HETATM    9  C   UNL     1     -11.887  11.394  69.101  1.00  0.00    -0.413 C  
BRANCH   9  10
HETATM   10  C   UNL     1     -11.636  10.445  70.229  1.00  0.00    -0.327 C  
HETATM   11  O   UNL     1     -12.821   9.698  70.455  1.00  0.00    -0.525 OA 
HETATM   12  H   UNL     1     -12.661   9.095  71.172  1.00  0.00     0.000 HD 
ENDBRANCH   9  10
ENDBRANCH   6   7
ENDBRANCH   5   6
ENDBRANCH   4   5
TORSDOF 4
ENDMDL
MODEL      104
REMARK 921   NORMALIZED FREE ENERGY PREDICTED BY IDOCK:   -3.25 KCAL/MOL
REMARK 922        TOTAL FREE ENERGY PREDICTED BY IDOCK:   -4.32 KCAL/MOL
REMARK 923 INTER-LIGAND FREE ENERGY PREDICTED BY IDOCK:   -3.86 KCAL/MOL
REMARK 924 INTRA-LIGAND FREE ENERGY PREDICTED BY IDOCK:   -0.46 KCAL/MOL
REMARK 927      BINDING AFFINITY PREDICTED BY RF-SCORE:    0.00 PKD
ROOT
HETATM    1  C   UNL     1     -12.120  15.814  69.968  1.00  0.00    -0.344 C  
HETATM    2  C   UNL     1     -12.146  14.318  69.807  1.00  0.00    -0.401 C  
HETATM    3  C   UNL     1     -12.589  13.509  70.994  1.00  0.00    -0.438 C  
HETATM    4  C   UNL     1     -11.769  13.756  68.640  1.00  0.00    -0.391 C  
ENDROOT
BRANCH   4   5
HETATM    5  C   UNL     1     -11.796  12.285  68.317  1.00  0.00    -0.367 C  
BRANCH   5   6
HETATM    6  C   UNL     1     -10.409  11.639  68.424  1.00  0.00    -0.215 C  
BRANCH   6   7
HETATM    7  C   UNL     1     -10.344  10.522  69.451  1.00  0.00    -0.258 C  
HETATM    8  C   UNL     1      -9.052   9.753  69.534  1.00  0.00    -0.227 C  
HETATM    9  C   UNL     1     -11.414  10.212  70.209  1.00  0.00    -0.381 C  
BRANCH   9  10
HETATM   10  C   UNL     1     -11.515   9.112  71.217  1.00  0.00    -0.335 C  
HETATM   11  O   UNL     1     -12.674   8.348  70.927  1.00  0.00    -0.501 OA 
HETATM   12  H   UNL     1     -12.738   7.649  71.568  1.00  0.00     0.000 HD 
ENDBRANCH   9  10
ENDBRANCH   6   7
ENDBRANCH   5   6
ENDBRANCH   4   5
TORSDOF 4
ENDMDL
MODEL      105
REMARK 921   NORMALIZED FREE ENERGY PREDICTED BY IDOCK:   -3.24 KCAL/MOL
REMARK 922        TOTAL FREE ENERGY PREDICTED BY IDOCK:   -4.32 KCAL/MOL
REMARK 923 INTER-LIGAND FREE ENERGY PREDICTED BY IDOCK:   -4.11 KCAL/MOL
REMARK 924 INTRA-LIGAND FREE ENERGY PREDICTED BY IDOCK:   -0.21 KCAL/MOL
REMARK 927      BINDING AFFINITY PREDICTED BY RF-SCORE:    0.00 PKD
ROOT
HETATM    1  C   UNL     1     -10.695   2.211  74.223  1.00  0.00    -0.200 C  
HETATM    2  C   UNL     1     -10.577   3.313  73.206  1.00  0.00    -0.275 C  
HETATM    3  C   UNL     1      -9.788   3.015  71.961  1.00  0.00    -0.242 C  
HETATM    4  C   UNL     1     -11.153   4.511  73.435  1.00  0.00    -0.408 C  
ENDROOT
BRANCH   4   5
HETATM    5  C   UNL     1     -11.167   5.682  72.488  1.00  0.00    -0.346 C  
BRANCH   5   6
HETATM    6  C   UNL     1     -10.770   6.994  73.178  1.00  0.00    -0.359 C  
BRANCH   6   7
HETATM    7  C   UNL     1     -11.034   8.224  72.329  1.00  0.00    -0.418 C  
HETATM    8  C   UNL     1      -9.834   8.885  71.703  1.00  0.00    -0.387 C  
HETATM    9  C   UNL     1     -12.280   8.718  72.191  1.00  0.00    -0.448 C  
BRANCH   9  10
HETATM   10  C   UNL     1     -12.683   9.944  71.435  1.00  0.00    -0.403 C  
HETATM   11  O   UNL     1     -13.377  10.806  72.323  1.00  0.00    -0.623 OA 
HETATM   12  H   UNL     1     -13.633  11.585  71.842  1.00  0.00     0.000 HD 
ENDBRANCH   9  10
ENDBRANCH   6   7
ENDBRANCH   5   6
ENDBRANCH   4   5
TORSDOF 4
ENDMDL
MODEL      106
REMARK 921   NORMALIZED FREE ENERGY PREDICTED BY IDOCK:   -3.24 KCAL/MOL
REMARK 922        TOTAL FREE ENERGY PREDICTED BY IDOCK:   -4.31 KCAL/MOL
REMARK 923 INTER-LIGAND FREE ENERGY PREDICTED BY IDOCK:   -3.69 KCAL/MOL
REMARK 924 INTRA-LIGAND FREE ENERGY PREDICTED BY IDOCK:   -0.62 KCAL/MOL
REMARK 927      BINDING AFFINITY PREDICTED BY RF-SCORE:    0.00 PKD
ROOT
HETATM    1  C   UNL     1      -7.149  13.112  67.961  1.00  0.00    -0.115 C  
HETATM    2  C   UNL     1      -8.374  13.822  67.453  1.00  0.00    -0.201 C  
HETATM    3  C   UNL     1      -8.435  15.311  67.653  1.00  0.00    -0.172 C  
HETATM    4  C   UNL     1      -9.365  13.124  66.860  1.00  0.00    -0.246 C  
ENDROOT
BRANCH   4   5
HETATM    5  C   UNL     1     -10.617  13.704  66.256  1.00  0.00    -0.289 C  
BRANCH   5   6
HETATM    6  C   UNL     1     -11.883  13.256  66.998  1.00  0.00    -0.442 C  
BRANCH   6   7
HETATM    7  C   UNL     1     -11.900  13.667  68.460  1.00  0.00    -0.406 C  
HETATM    8  C   UNL     1     -11.708  12.569  69.474  1.00  0.00    -0.375 C  
HETATM    9  C   UNL     1     -12.128  14.945  68.820  1.00  0.00    -0.212 C  
BRANCH   9  10
HETATM   10  C   UNL     1     -12.225  15.485  70.211  1.00  0.00    -0.400 C  
HETATM   11  O   UNL     1     -13.598  15.631  70.537  1.00  0.00    -0.833 OA 
HETATM   12  H   UNL     1     -13.660  15.974  71.420  1.00  0.00     0.000 HD 
ENDBRANCH   9  10
ENDBRANCH   6   7
ENDBRANCH   5   6
ENDBRANCH   4   5
TORSDOF 4
ENDMDL
MODEL      107
REMARK 921   NORMALIZED FREE ENERGY PREDICTED BY IDOCK:   -3.22 KCAL/MOL
REMARK 922        TOTAL FREE ENERGY PREDICTED BY IDOCK:   -4.29 KCAL/MOL
REMARK 923 INTER-LIGAND FREE ENERGY PREDICTED BY IDOCK:   -3.87 KCAL/MOL
REMARK 924 INTRA-LIGAND FREE ENERGY PREDICTED BY IDOCK:   -0.42 KCAL/MOL
REMARK 927      BINDING AFFINITY PREDICTED BY RF-SCORE:    0.00 PKD
ROOT
HETATM    1  C   UNL     1      -7.369  17.601  67.863  1.00  0.00    -0.203 C  
HETATM    2  C   UNL     1      -8.711  17.497  68.536  1.00  0.00    -0.282 C  
HETATM    3  C   UNL     1      -9.462  18.778  68.768  1.00  0.00    -0.380 C  
HETATM    4  C   UNL     1      -9.186  16.293  68.916  1.00  0.00    -0.249 C  
ENDROOT
BRANCH   4   5
HETATM    5  C   UNL     1     -10.529  16.030  69.546  1.00  0.00    -0.286 C  
BRANCH   5   6
HETATM    6  C   UNL     1     -11.618  15.755  68.501  1.00  0.00    -0.367 C  
BRANCH   6   7
HETATM    7  C   UNL     1     -11.442  14.430  67.783  1.00  0.00    -0.360 C  
HETATM    8  C   UNL     1     -11.179  14.493  66.301  1.00  0.00    -0.342 C  
HETATM    9  C   UNL     1     -11.566  13.261  68.441  1.00  0.00    -0.372 C  
BRANCH   9  10
HETATM   10  C   UNL     1     -11.472  11.886  67.860  1.00  0.00    -0.316 C  
HETATM   11  O   UNL     1     -12.467  11.077  68.467  1.00  0.00    -0.713 OA 
HETATM   12  H   UNL     1     -12.407  10.203  68.098  1.00  0.00     0.000 HD 
ENDBRANCH   9  10
ENDBRANCH   6   7
ENDBRANCH   5   6
ENDBRANCH   4   5
TORSDOF 4
ENDMDL
MODEL      108
REMARK 921   NORMALIZED FREE ENERGY PREDICTED BY IDOCK:   -3.20 KCAL/MOL
REMARK 922        TOTAL FREE ENERGY PREDICTED BY IDOCK:   -4.26 KCAL/MOL
REMARK 923 INTER-LIGAND FREE ENERGY PREDICTED BY IDOCK:   -4.01 KCAL/MOL
REMARK 924 INTRA-LIGAND FREE ENERGY PREDICTED BY IDOCK:   -0.25 KCAL/MOL
REMARK 927      BINDING AFFINITY PREDICTED BY RF-SCORE:    0.00 PKD
ROOT
HETATM    1  C   UNL     1     -11.578  10.611  70.377  1.00  0.00    -0.441 C  
HETATM    2  C   UNL     1     -11.622  11.641  69.281  1.00  0.00    -0.385 C  
HETATM    3  C   UNL     1     -11.383  11.157  67.877  1.00  0.00    -0.378 C  
HETATM    4  C   UNL     1     -11.855  12.936  69.576  1.00  0.00    -0.383 C  
ENDROOT
BRANCH   4   5
HETATM    5  C   UNL     1     -11.982  14.062  68.584  1.00  0.00    -0.389 C  
BRANCH   5   6
HETATM    6  C   UNL     1     -11.577  15.415  69.182  1.00  0.00    -0.354 C  
BRANCH   6   7
HETATM    7  C   UNL     1     -10.796  16.289  68.217  1.00  0.00    -0.340 C  
HETATM    8  C   UNL     1     -10.463  15.688  66.877  1.00  0.00    -0.307 C  
HETATM    9  C   UNL     1     -10.385  17.522  68.574  1.00  0.00    -0.380 C  
BRANCH   9  10
HETATM   10  C   UNL     1      -9.570  18.471  67.755  1.00  0.00    -0.290 C  
HETATM   11  O   UNL     1      -9.016  19.446  68.624  1.00  0.00    -0.365 OA 
HETATM   12  H   UNL     1      -8.497  20.049  68.104  1.00  0.00     0.000 HD 
ENDBRANCH   9  10
ENDBRANCH   6   7
ENDBRANCH   5   6
ENDBRANCH   4   5
TORSDOF 4
ENDMDL
MODEL      109
REMARK 921   NORMALIZED FREE ENERGY PREDICTED BY IDOCK:   -3.19 KCAL/MOL
REMARK 922        TOTAL FREE ENERGY PREDICTED BY IDOCK:   -4.25 KCAL/MOL
REMARK 923 INTER-LIGAND FREE ENERGY PREDICTED BY IDOCK:   -3.99 KCAL/MOL
REMARK 924 INTRA-LIGAND FREE ENERGY PREDICTED BY IDOCK:   -0.27 KCAL/MOL
REMARK 927      BINDING AFFINITY PREDICTED BY RF-SCORE:    0.00 PKD
ROOT
HETATM    1  C   UNL     1      -8.218  16.719  68.704  1.00  0.00    -0.252 C  
HETATM    2  C   UNL     1      -9.709  16.521  68.711  1.00  0.00    -0.251 C  
HETATM    3  C   UNL     1     -10.485  17.123  67.573  1.00  0.00    -0.348 C  
HETATM    4  C   UNL     1     -10.298  15.841  69.716  1.00  0.00    -0.307 C  
ENDROOT
BRANCH   4   5
HETATM    5  C   UNL     1     -11.764  15.517  69.827  1.00  0.00    -0.362 C  
BRANCH   5   6
HETATM    6  C   UNL     1     -12.127  14.912  71.189  1.00  0.00    -0.384 C  
BRANCH   6   7
HETATM    7  C   UNL     1     -12.536  13.452  71.108  1.00  0.00    -0.430 C  
HETATM    8  C   UNL     1     -13.504  12.961  72.153  1.00  0.00    -0.619 C  
HETATM    9  C   UNL     1     -12.014  12.635  70.173  1.00  0.00    -0.375 C  
BRANCH   9  10
HETATM   10  C   UNL     1     -12.280  11.173  70.005  1.00  0.00    -0.326 C  
HETATM   11  O   UNL     1     -11.402  10.459  70.860  1.00  0.00    -0.335 OA 
HETATM   12  H   UNL     1     -11.571   9.530  70.753  1.00  0.00     0.000 HD 
ENDBRANCH   9  10
ENDBRANCH   6   7
ENDBRANCH   5   6
ENDBRANCH   4   5
TORSDOF 4
ENDMDL
MODEL      110
REMARK 921   NORMALIZED FREE ENERGY PREDICTED BY IDOCK:   -3.19 KCAL/MOL
REMARK 922        TOTAL FREE ENERGY PREDICTED BY IDOCK:   -4.25 KCAL/MOL
REMARK 923 INTER-LIGAND FREE ENERGY PREDICTED BY IDOCK:   -4.01 KCAL/MOL
REMARK 924 INTRA-LIGAND FREE ENERGY PREDICTED BY IDOCK:   -0.24 KCAL/MOL
REMARK 927      BINDING AFFINITY PREDICTED BY RF-SCORE:    0.00 PKD
ROOT
HETATM    1  C   UNL     1      -9.202  10.239  64.160  1.00  0.00    -0.309 C  
HETATM    2  C   UNL     1      -9.442  10.832  65.521  1.00  0.00    -0.253 C  
HETATM    3  C   UNL     1      -8.238  11.059  66.392  1.00  0.00    -0.166 C  
HETATM    4  C   UNL     1     -10.697  11.126  65.920  1.00  0.00    -0.261 C  
ENDROOT
BRANCH   4   5
HETATM    5  C   UNL     1     -11.083  11.772  67.224  1.00  0.00    -0.342 C  
BRANCH   5   6
HETATM    6  C   UNL     1     -11.344  10.742  68.330  1.00  0.00    -0.367 C  
BRANCH   6   7
HETATM    7  C   UNL     1     -11.984  11.340  69.570  1.00  0.00    -0.421 C  
HETATM    8  C   UNL     1     -11.930  12.839  69.704  1.00  0.00    -0.354 C  
HETATM    9  C   UNL     1     -12.525  10.554  70.521  1.00  0.00    -0.433 C  
BRANCH   9  10
HETATM   10  C   UNL     1     -13.139  10.994  71.811  1.00  0.00    -0.449 C  
HETATM   11  O   UNL     1     -13.594   9.842  72.504  1.00  0.00    -0.656 OA 
HETATM   12  H   UNL     1     -13.984  10.122  73.324  1.00  0.00     0.000 HD 
ENDBRANCH   9  10
ENDBRANCH   6   7
ENDBRANCH   5   6
ENDBRANCH   4   5
TORSDOF 4
ENDMDL
MODEL      111
REMARK 921   NORMALIZED FREE ENERGY PREDICTED BY IDOCK:   -3.17 KCAL/MOL
REMARK 922        TOTAL FREE ENERGY PREDICTED BY IDOCK:   -4.23 KCAL/MOL
REMARK 923 INTER-LIGAND FREE ENERGY PREDICTED BY IDOCK:   -4.03 KCAL/MOL
REMARK 924 INTRA-LIGAND FREE ENERGY PREDICTED BY IDOCK:   -0.20 KCAL/MOL
REMARK 927      BINDING AFFINITY PREDICTED BY RF-SCORE:    0.00 PKD
ROOT
HETATM    1  C   UNL     1     -12.627  15.215  70.843  1.00  0.00    -0.441 C  
HETATM    2  C   UNL     1     -12.323  13.978  70.042  1.00  0.00    -0.397 C  
HETATM    3  C   UNL     1     -12.499  12.654  70.733  1.00  0.00    -0.357 C  
HETATM    4  C   UNL     1     -11.901  14.084  68.766  1.00  0.00    -0.396 C  
ENDROOT
BRANCH   4   5
HETATM    5  C   UNL     1     -11.615  12.940  67.829  1.00  0.00    -0.391 C  
BRANCH   5   6
HETATM    6  C   UNL     1     -10.177  12.968  67.296  1.00  0.00    -0.239 C  
BRANCH   6   7
HETATM    7  C   UNL     1      -9.893  14.157  66.396  1.00  0.00    -0.308 C  
HETATM    8  C   UNL     1     -10.494  14.121  65.016  1.00  0.00    -0.447 C  
HETATM    9  C   UNL     1      -9.099  15.165  66.807  1.00  0.00    -0.282 C  
BRANCH   9  10
HETATM   10  C   UNL     1      -8.689  16.368  66.018  1.00  0.00    -0.239 C  
HETATM   11  O   UNL     1      -9.835  17.178  65.813  1.00  0.00    -0.530 OA 
HETATM   12  H   UNL     1      -9.575  17.942  65.311  1.00  0.00     0.000 HD 
ENDBRANCH   9  10
ENDBRANCH   6   7
ENDBRANCH   5   6
ENDBRANCH   4   5
TORSDOF 4
ENDMDL
MODEL      112
REMARK 921   NORMALIZED FREE ENERGY PREDICTED BY IDOCK:   -3.17 KCAL/MOL
REMARK 922        TOTAL FREE ENERGY PREDICTED BY IDOCK:   -4.22 KCAL/MOL
REMARK 923 INTER-LIGAND FREE ENERGY PREDICTED BY IDOCK:   -3.90 KCAL/MOL
REMARK 924 INTRA-LIGAND FREE ENERGY PREDICTED BY IDOCK:   -0.32 KCAL/MOL
REMARK 927      BINDING AFFINITY PREDICTED BY RF-SCORE:    0.00 PKD
ROOT
HETATM    1  C   UNL     1      -9.821   8.669  70.549  1.00  0.00    -0.210 C  
HETATM    2  C   UNL     1     -10.370   9.631  69.531  1.00  0.00    -0.235 C  
HETATM    3  C   UNL     1      -9.829   9.531  68.132  1.00  0.00    -0.177 C  
HETATM    4  C   UNL     1     -11.297  10.542  69.892  1.00  0.00    -0.380 C  
ENDROOT
BRANCH   4   5
HETATM    5  C   UNL     1     -11.974  11.527  68.975  1.00  0.00    -0.377 C  
BRANCH   5   6
HETATM    6  C   UNL     1     -11.257  12.882  68.943  1.00  0.00    -0.327 C  
BRANCH   6   7
HETATM    7  C   UNL     1     -11.672  13.755  67.771  1.00  0.00    -0.393 C  
HETATM    8  C   UNL     1     -11.588  15.245  67.974  1.00  0.00    -0.325 C  
HETATM    9  C   UNL     1     -12.138  13.210  66.631  1.00  0.00    -0.409 C  
BRANCH   9  10
HETATM   10  C   UNL     1     -12.630  13.938  65.421  1.00  0.00    -0.507 C  
HETATM   11  O   UNL     1     -12.416  13.113  64.287  1.00  0.00    -0.559 OA 
HETATM   12  H   UNL     1     -12.728  13.576  63.518  1.00  0.00     0.000 HD 
ENDBRANCH   9  10
ENDBRANCH   6   7
ENDBRANCH   5   6
ENDBRANCH   4   5
TORSDOF 4
ENDMDL
MODEL      113
REMARK 921   NORMALIZED FREE ENERGY PREDICTED BY IDOCK:   -3.17 KCAL/MOL
REMARK 922        TOTAL FREE ENERGY PREDICTED BY IDOCK:   -4.22 KCAL/MOL
REMARK 923 INTER-LIGAND FREE ENERGY PREDICTED BY IDOCK:   -4.00 KCAL/MOL
REMARK 924 INTRA-LIGAND FREE ENERGY PREDICTED BY IDOCK:   -0.22 KCAL/MOL
REMARK 927      BINDING AFFINITY PREDICTED BY RF-SCORE:    0.00 PKD
ROOT
HETATM    1  C   UNL     1     -12.389  11.959  63.427  1.00  0.00    -0.577 C  
HETATM    2  C   UNL     1     -11.407  12.652  64.331  1.00  0.00    -0.393 C  
HETATM    3  C   UNL     1     -10.534  11.780  65.191  1.00  0.00    -0.330 C  
HETATM    4  C   UNL     1     -11.344  13.999  64.358  1.00  0.00    -0.330 C  
ENDROOT
BRANCH   4   5
HETATM    5  C   UNL     1     -10.378  14.825  65.167  1.00  0.00    -0.439 C  
BRANCH   5   6
HETATM    6  C   UNL     1     -10.923  16.226  65.471  1.00  0.00    -0.154 C  
BRANCH   6   7
HETATM    7  C   UNL     1      -9.860  17.188  65.973  1.00  0.00    -0.239 C  
HETATM    8  C   UNL     1     -10.292  18.612  66.207  1.00  0.00    -0.483 C  
HETATM    9  C   UNL     1      -8.587  16.786  66.150  1.00  0.00    -0.299 C  
BRANCH   9  10
HETATM   10  C   UNL     1      -7.429  17.626  66.585  1.00  0.00    -0.235 C  
HETATM   11  O   UNL     1      -6.917  18.302  65.448  1.00  0.00    -0.523 OA 
HETATM   12  H   UNL     1      -6.181  18.836  65.725  1.00  0.00     0.000 HD 
ENDBRANCH   9  10
ENDBRANCH   6   7
ENDBRANCH   5   6
ENDBRANCH   4   5
TORSDOF 4
ENDMDL
MODEL      114
REMARK 921   NORMALIZED FREE ENERGY PREDICTED BY IDOCK:   -3.15 KCAL/MOL
REMARK 922        TOTAL FREE ENERGY PREDICTED BY IDOCK:   -4.20 KCAL/MOL
REMARK 923 INTER-LIGAND FREE ENERGY PREDICTED BY IDOCK:   -3.94 KCAL/MOL
REMARK 924 INTRA-LIGAND FREE ENERGY PREDICTED BY IDOCK:   -0.27 KCAL/MOL
REMARK 927      BINDING AFFINITY PREDICTED BY RF-SCORE:    0.00 PKD
ROOT
HETATM    1  C   UNL     1     -12.367  16.154  73.368  1.00  0.00    -0.652 C  
HETATM    2  C   UNL     1     -12.607  15.138  72.285  1.00  0.00    -0.422 C  
HETATM    3  C   UNL     1     -13.507  13.980  72.620  1.00  0.00    -0.650 C  
HETATM    4  C   UNL     1     -12.016  15.278  71.081  1.00  0.00    -0.400 C  
ENDROOT
BRANCH   4   5
HETATM    5  C   UNL     1     -12.207  14.375  69.891  1.00  0.00    -0.394 C  
BRANCH   5   6
HETATM    6  C   UNL     1     -10.937  14.257  69.039  1.00  0.00    -0.282 C  
BRANCH   6   7
HETATM    7  C   UNL     1     -10.701  12.857  68.502  1.00  0.00    -0.275 C  
HETATM    8  C   UNL     1     -11.663  11.788  68.952  1.00  0.00    -0.384 C  
HETATM    9  C   UNL     1      -9.650  12.587  67.705  1.00  0.00    -0.190 C  
BRANCH   9  10
HETATM   10  C   UNL     1      -9.261  11.255  67.146  1.00  0.00    -0.163 C  
HETATM   11  O   UNL     1      -7.853  11.120  67.254  1.00  0.00    -0.125 OA 
HETATM   12  H   UNL     1      -7.607  10.274  66.899  1.00  0.00     0.000 HD 
ENDBRANCH   9  10
ENDBRANCH   6   7
ENDBRANCH   5   6
ENDBRANCH   4   5
TORSDOF 4
ENDMDL
MODEL      115
REMARK 921   NORMALIZED FREE ENERGY PREDICTED BY IDOCK:   -3.15 KCAL/MOL
REMARK 922        TOTAL FREE ENERGY PREDICTED BY IDOCK:   -4.20 KCAL/MOL
REMARK 923 INTER-LIGAND FREE ENERGY PREDICTED BY IDOCK:   -4.00 KCAL/MOL
REMARK 924 INTRA-LIGAND FREE ENERGY PREDICTED BY IDOCK:   -0.20 KCAL/MOL
REMARK 927      BINDING AFFINITY PREDICTED BY RF-SCORE:    0.00 PKD
ROOT
HETATM    1  C   UNL     1     -11.715  14.437  68.023  1.00  0.00    -0.374 C  
HETATM    2  C   UNL     1     -11.971  13.797  69.361  1.00  0.00    -0.397 C  
HETATM    3  C   UNL     1     -12.293  14.713  70.508  1.00  0.00    -0.400 C  
HETATM    4  C   UNL     1     -11.893  12.457  69.496  1.00  0.00    -0.368 C  
ENDROOT
BRANCH   4   5
HETATM    5  C   UNL     1     -12.177  11.676  70.752  1.00  0.00    -0.443 C  
BRANCH   5   6
HETATM    6  C   UNL     1     -12.141  10.161  70.517  1.00  0.00    -0.380 C  
BRANCH   6   7
HETATM    7  C   UNL     1     -10.822   9.522  70.915  1.00  0.00    -0.407 C  
HETATM    8  C   UNL     1      -9.630   9.835  70.049  1.00  0.00    -0.282 C  
HETATM    9  C   UNL     1     -10.747   8.678  71.963  1.00  0.00    -0.427 C  
BRANCH   9  10
HETATM   10  C   UNL     1      -9.537   7.938  72.438  1.00  0.00    -0.210 C  
HETATM   11  O   UNL     1      -8.781   8.806  73.267  1.00  0.00    -0.313 OA 
HETATM   12  H   UNL     1      -8.012   8.335  73.569  1.00  0.00     0.000 HD 
ENDBRANCH   9  10
ENDBRANCH   6   7
ENDBRANCH   5   6
ENDBRANCH   4   5
TORSDOF 4
ENDMDL
MODEL      116
REMARK 921   NORMALIZED FREE ENERGY PREDICTED BY IDOCK:   -3.15 KCAL/MOL
REMARK 922        TOTAL FREE ENERGY PREDICTED BY IDOCK:   -4.20 KCAL/MOL
REMARK 923 INTER-LIGAND FREE ENERGY PREDICTED BY IDOCK:   -3.62 KCAL/MOL
REMARK 924 INTRA-LIGAND FREE ENERGY PREDICTED BY IDOCK:   -0.58 KCAL/MOL
REMARK 927      BINDING AFFINITY PREDICTED BY RF-SCORE:    0.00 PKD
ROOT
HETATM    1  C   UNL     1      -9.773   4.389  70.043  1.00  0.00    -0.286 C  
HETATM    2  C   UNL     1     -10.674   5.571  70.276  1.00  0.00    -0.333 C  
HETATM    3  C   UNL     1     -11.158   6.313  69.061  1.00  0.00    -0.446 C  
HETATM    4  C   UNL     1     -11.005   5.934  71.532  1.00  0.00    -0.323 C  
ENDROOT
BRANCH   4   5
HETATM    5  C   UNL     1     -11.936   7.054  71.914  1.00  0.00    -0.355 C  
BRANCH   5   6
HETATM    6  C   UNL     1     -11.190   8.258  72.502  1.00  0.00    -0.446 C  
BRANCH   6   7
HETATM    7  C   UNL     1     -10.517   9.121  71.450  1.00  0.00    -0.414 C  
HETATM    8  C   UNL     1     -11.385  10.132  70.748  1.00  0.00    -0.436 C  
HETATM    9  C   UNL     1      -9.219   8.947  71.135  1.00  0.00    -0.324 C  
BRANCH   9  10
HETATM   10  C   UNL     1      -8.440   9.681  70.091  1.00  0.00    -0.204 C  
HETATM   11  O   UNL     1      -7.360   8.858  69.680  1.00  0.00    -0.054 OA 
HETATM   12  H   UNL     1      -6.865   9.324  69.016  1.00  0.00     0.000 HD 
ENDBRANCH   9  10
ENDBRANCH   6   7
ENDBRANCH   5   6
ENDBRANCH   4   5
TORSDOF 4
ENDMDL
MODEL      117
REMARK 921   NORMALIZED FREE ENERGY PREDICTED BY IDOCK:   -3.14 KCAL/MOL
REMARK 922        TOTAL FREE ENERGY PREDICTED BY IDOCK:   -4.19 KCAL/MOL
REMARK 923 INTER-LIGAND FREE ENERGY PREDICTED BY IDOCK:   -3.80 KCAL/MOL
REMARK 924 INTRA-LIGAND FREE ENERGY PREDICTED BY IDOCK:   -0.39 KCAL/MOL
REMARK 927      BINDING AFFINITY PREDICTED BY RF-SCORE:    0.00 PKD
ROOT
HETATM    1  C   UNL     1      -8.143  16.896  67.921  1.00  0.00    -0.191 C  
HETATM    2  C   UNL     1      -9.133  16.493  66.862  1.00  0.00    -0.241 C  
HETATM    3  C   UNL     1      -9.927  17.593  66.212  1.00  0.00    -0.324 C  
HETATM    4  C   UNL     1      -9.290  15.193  66.540  1.00  0.00    -0.308 C  
ENDROOT
BRANCH   4   5
HETATM    5  C   UNL     1     -10.196  14.649  65.467  1.00  0.00    -0.395 C  
BRANCH   5   6
HETATM    6  C   UNL     1     -11.634  14.453  65.963  1.00  0.00    -0.364 C  
BRANCH   6   7
HETATM    7  C   UNL     1     -11.720  13.690  67.273  1.00  0.00    -0.416 C  
HETATM    8  C   UNL     1     -11.512  12.200  67.204  1.00  0.00    -0.413 C  
HETATM    9  C   UNL     1     -12.017  14.321  68.426  1.00  0.00    -0.344 C  
BRANCH   9  10
HETATM   10  C   UNL     1     -12.186  13.699  69.775  1.00  0.00    -0.291 C  
HETATM   11  O   UNL     1     -11.270  14.313  70.667  1.00  0.00    -0.509 OA 
HETATM   12  H   UNL     1     -11.377  13.918  71.525  1.00  0.00     0.000 HD 
ENDBRANCH   9  10
ENDBRANCH   6   7
ENDBRANCH   5   6
ENDBRANCH   4   5
TORSDOF 4
ENDMDL
MODEL      118
REMARK 921   NORMALIZED FREE ENERGY PREDICTED BY IDOCK:   -3.13 KCAL/MOL
REMARK 922        TOTAL FREE ENERGY PREDICTED BY IDOCK:   -4.18 KCAL/MOL
REMARK 923 INTER-LIGAND FREE ENERGY PREDICTED BY IDOCK:   -3.80 KCAL/MOL
REMARK 924 INTRA-LIGAND FREE ENERGY PREDICTED BY IDOCK:   -0.38 KCAL/MOL
REMARK 927      BINDING AFFINITY PREDICTED BY RF-SCORE:    0.00 PKD
ROOT
HETATM    1  C   UNL     1      -9.017  11.103  68.581  1.00  0.00    -0.162 C  
HETATM    2  C   UNL     1      -9.954   9.942  68.384  1.00  0.00    -0.177 C  
HETATM    3  C   UNL     1     -10.928  10.034  67.242  1.00  0.00    -0.225 C  
HETATM    4  C   UNL     1      -9.909   8.886  69.222  1.00  0.00    -0.176 C  
ENDROOT
BRANCH   4   5
HETATM    5  C   UNL     1     -10.742   7.636  69.115  1.00  0.00    -0.153 C  
BRANCH   5   6
HETATM    6  C   UNL     1     -10.952   6.958  70.475  1.00  0.00    -0.313 C  
BRANCH   6   7
HETATM    7  C   UNL     1     -11.485   7.899  71.541  1.00  0.00    -0.301 C  
HETATM    8  C   UNL     1     -10.699   7.985  72.823  1.00  0.00    -0.431 C  
HETATM    9  C   UNL     1     -12.633   8.579  71.355  1.00  0.00    -0.309 C  
BRANCH   9  10
HETATM   10  C   UNL     1     -13.304   9.495  72.328  1.00  0.00    -0.441 C  
HETATM   11  O   UNL     1     -14.192   8.726  73.124  1.00  0.00    -1.112 OA 
HETATM   12  H   UNL     1     -14.618   9.308  73.742  1.00  0.00     0.000 HD 
ENDBRANCH   9  10
ENDBRANCH   6   7
ENDBRANCH   5   6
ENDBRANCH   4   5
TORSDOF 4
ENDMDL
MODEL      119
REMARK 921   NORMALIZED FREE ENERGY PREDICTED BY IDOCK:   -3.13 KCAL/MOL
REMARK 922        TOTAL FREE ENERGY PREDICTED BY IDOCK:   -4.17 KCAL/MOL
REMARK 923 INTER-LIGAND FREE ENERGY PREDICTED BY IDOCK:   -3.88 KCAL/MOL
REMARK 924 INTRA-LIGAND FREE ENERGY PREDICTED BY IDOCK:   -0.30 KCAL/MOL
REMARK 927      BINDING AFFINITY PREDICTED BY RF-SCORE:    0.00 PKD
ROOT
HETATM    1  C   UNL     1      -8.073   8.592  67.996  1.00  0.00    -0.115 C  
HETATM    2  C   UNL     1      -9.466   9.051  67.663  1.00  0.00    -0.166 C  
HETATM    3  C   UNL     1     -10.408   8.026  67.095  1.00  0.00    -0.395 C  
HETATM    4  C   UNL     1      -9.822  10.337  67.862  1.00  0.00    -0.181 C  
ENDROOT
BRANCH   4   5
HETATM    5  C   UNL     1     -11.189  10.924  67.629  1.00  0.00    -0.379 C  
BRANCH   5   6
HETATM    6  C   UNL     1     -11.832  11.434  68.925  1.00  0.00    -0.413 C  
BRANCH   6   7
HETATM    7  C   UNL     1     -11.844  12.948  69.036  1.00  0.00    -0.352 C  
HETATM    8  C   UNL     1     -11.393  13.719  67.822  1.00  0.00    -0.331 C  
HETATM    9  C   UNL     1     -12.194  13.558  70.185  1.00  0.00    -0.400 C  
BRANCH   9  10
HETATM   10  C   UNL     1     -12.202  15.028  70.457  1.00  0.00    -0.337 C  
HETATM   11  O   UNL     1     -13.540  15.491  70.368  1.00  0.00    -0.806 OA 
HETATM   12  H   UNL     1     -13.545  16.425  70.541  1.00  0.00     0.000 HD 
ENDBRANCH   9  10
ENDBRANCH   6   7
ENDBRANCH   5   6
ENDBRANCH   4   5
TORSDOF 4
ENDMDL
MODEL      120
REMARK 921   NORMALIZED FREE ENERGY PREDICTED BY IDOCK:   -3.11 KCAL/MOL
REMARK 922        TOTAL FREE ENERGY PREDICTED BY IDOCK:   -4.15 KCAL/MOL
REMARK 923 INTER-LIGAND FREE ENERGY PREDICTED BY IDOCK:   -3.74 KCAL/MOL
REMARK 924 INTRA-LIGAND FREE ENERGY PREDICTED BY IDOCK:   -0.42 KCAL/MOL
REMARK 927      BINDING AFFINITY PREDICTED BY RF-SCORE:    0.00 PKD
ROOT
HETATM    1  C   UNL     1     -10.955   6.470  68.757  1.00  0.00    -0.371 C  
HETATM    2  C   UNL     1     -10.304   7.780  68.405  1.00  0.00    -0.231 C  
HETATM    3  C   UNL     1      -9.354   7.781  67.240  1.00  0.00    -0.175 C  
HETATM    4  C   UNL     1     -10.571   8.885  69.131  1.00  0.00    -0.211 C  
ENDROOT
BRANCH   4   5
HETATM    5  C   UNL     1     -10.040  10.269  68.863  1.00  0.00    -0.216 C  
BRANCH   5   6
HETATM    6  C   UNL     1     -11.163  11.299  68.684  1.00  0.00    -0.310 C  
BRANCH   6   7
HETATM    7  C   UNL     1     -11.259  11.844  67.270  1.00  0.00    -0.376 C  
HETATM    8  C   UNL     1     -10.505  11.094  66.203  1.00  0.00    -0.307 C  
HETATM    9  C   UNL     1     -11.947  12.971  67.006  1.00  0.00    -0.409 C  
BRANCH   9  10
HETATM   10  C   UNL     1     -12.085  13.652  65.681  1.00  0.00    -0.425 C  
HETATM   11  O   UNL     1     -13.452  13.979  65.490  1.00  0.00    -0.705 OA 
HETATM   12  H   UNL     1     -13.540  14.412  64.648  1.00  0.00     0.000 HD 
ENDBRANCH   9  10
ENDBRANCH   6   7
ENDBRANCH   5   6
ENDBRANCH   4   5
TORSDOF 4
ENDMDL
MODEL      121
REMARK 921   NORMALIZED FREE ENERGY PREDICTED BY IDOCK:   -3.10 KCAL/MOL
REMARK 922        TOTAL FREE ENERGY PREDICTED BY IDOCK:   -4.15 KCAL/MOL
REMARK 923 INTER-LIGAND FREE ENERGY PREDICTED BY IDOCK:   -3.85 KCAL/MOL
REMARK 924 INTRA-LIGAND FREE ENERGY PREDICTED BY IDOCK:   -0.30 KCAL/MOL
REMARK 927      BINDING AFFINITY PREDICTED BY RF-SCORE:    0.00 PKD
ROOT
HETATM    1  C   UNL     1     -12.429  12.164  63.493  1.00  0.00    -0.666 C  
HETATM    2  C   UNL     1     -12.073  12.564  64.899  1.00  0.00    -0.499 C  
HETATM    3  C   UNL     1     -12.712  13.812  65.440  1.00  0.00    -0.513 C  
HETATM    4  C   UNL     1     -11.202  11.821  65.614  1.00  0.00    -0.324 C  
ENDROOT
BRANCH   4   5
HETATM    5  C   UNL     1     -10.796  12.065  67.044  1.00  0.00    -0.297 C  
BRANCH   5   6
HETATM    6  C   UNL     1     -11.595  11.205  68.031  1.00  0.00    -0.337 C  
BRANCH   6   7
HETATM    7  C   UNL     1     -10.830   9.989  68.524  1.00  0.00    -0.270 C  
HETATM    8  C   UNL     1     -10.414   9.993  69.972  1.00  0.00    -0.337 C  
HETATM    9  C   UNL     1     -10.504   8.986  67.685  1.00  0.00    -0.324 C  
BRANCH   9  10
HETATM   10  C   UNL     1      -9.714   7.760  68.013  1.00  0.00    -0.154 C  
HETATM   11  O   UNL     1      -8.345   8.031  67.761  1.00  0.00    -0.126 OA 
HETATM   12  H   UNL     1      -7.843   7.252  67.969  1.00  0.00     0.000 HD 
ENDBRANCH   9  10
ENDBRANCH   6   7
ENDBRANCH   5   6
ENDBRANCH   4   5
TORSDOF 4
ENDMDL
MODEL      122
REMARK 921   NORMALIZED FREE ENERGY PREDICTED BY IDOCK:   -3.10 KCAL/MOL
REMARK 922        TOTAL FREE ENERGY PREDICTED BY IDOCK:   -4.14 KCAL/MOL
REMARK 923 INTER-LIGAND FREE ENERGY PREDICTED BY IDOCK:   -3.61 KCAL/MOL
REMARK 924 INTRA-LIGAND FREE ENERGY PREDICTED BY IDOCK:   -0.53 KCAL/MOL
REMARK 927      BINDING AFFINITY PREDICTED BY RF-SCORE:    0.00 PKD
ROOT
HETATM    1  C   UNL     1      -9.947  18.380  67.779  1.00  0.00    -0.365 C  
HETATM    2  C   UNL     1     -10.042  16.889  67.600  1.00  0.00    -0.278 C  
HETATM    3  C   UNL     1      -9.281  16.287  66.451  1.00  0.00    -0.332 C  
HETATM    4  C   UNL     1     -10.795  16.152  68.442  1.00  0.00    -0.318 C  
ENDROOT
BRANCH   4   5
HETATM    5  C   UNL     1     -10.939  14.653  68.420  1.00  0.00    -0.260 C  
BRANCH   5   6
HETATM    6  C   UNL     1     -12.111  14.192  67.545  1.00  0.00    -0.363 C  
BRANCH   6   7
HETATM    7  C   UNL     1     -11.683  13.325  66.374  1.00  0.00    -0.418 C  
HETATM    8  C   UNL     1     -12.612  13.281  65.189  1.00  0.00    -0.512 C  
HETATM    9  C   UNL     1     -10.551  12.596  66.427  1.00  0.00    -0.272 C  
BRANCH   9  10
HETATM   10  C   UNL     1     -10.032  11.662  65.381  1.00  0.00    -0.250 C  
HETATM   11  O   UNL     1     -10.405  10.341  65.740  1.00  0.00    -0.239 OA 
HETATM   12  H   UNL     1     -10.075   9.747  65.075  1.00  0.00     0.000 HD 
ENDBRANCH   9  10
ENDBRANCH   6   7
ENDBRANCH   5   6
ENDBRANCH   4   5
TORSDOF 4
ENDMDL
MODEL      123
REMARK 921   NORMALIZED FREE ENERGY PREDICTED BY IDOCK:   -3.10 KCAL/MOL
REMARK 922        TOTAL FREE ENERGY PREDICTED BY IDOCK:   -4.14 KCAL/MOL
REMARK 923 INTER-LIGAND FREE ENERGY PREDICTED BY IDOCK:   -3.74 KCAL/MOL
REMARK 924 INTRA-LIGAND FREE ENERGY PREDICTED BY IDOCK:   -0.40 KCAL/MOL
REMARK 927      BINDING AFFINITY PREDICTED BY RF-SCORE:    0.00 PKD
ROOT
HETATM    1  C   UNL     1      -9.392   9.496  65.205  1.00  0.00    -0.317 C  
HETATM    2  C   UNL     1     -10.109   9.317  66.516  1.00  0.00    -0.343 C  
HETATM    3  C   UNL     1     -10.534   7.921  66.879  1.00  0.00    -0.388 C  
HETATM    4  C   UNL     1     -10.357  10.383  67.303  1.00  0.00    -0.278 C  
ENDROOT
BRANCH   4   5
HETATM    5  C   UNL     1     -11.011  10.350  68.659  1.00  0.00    -0.288 C  
BRANCH   5   6
HETATM    6  C   UNL     1     -10.021   9.995  69.775  1.00  0.00    -0.276 C  
BRANCH   6   7
HETATM    7  C   UNL     1     -10.615   9.095  70.844  1.00  0.00    -0.341 C  
HETATM    8  C   UNL     1      -9.715   8.722  71.992  1.00  0.00    -0.370 C  
HETATM    9  C   UNL     1     -11.872   8.621  70.732  1.00  0.00    -0.197 C  
BRANCH   9  10
HETATM   10  C   UNL     1     -12.569   7.690  71.672  1.00  0.00    -0.339 C  
HETATM   11  O   UNL     1     -13.889   7.482  71.195  1.00  0.00    -0.605 OA 
HETATM   12  H   UNL     1     -14.332   6.890  71.792  1.00  0.00     0.000 HD 
ENDBRANCH   9  10
ENDBRANCH   6   7
ENDBRANCH   5   6
ENDBRANCH   4   5
TORSDOF 4
ENDMDL
MODEL      124
REMARK 921   NORMALIZED FREE ENERGY PREDICTED BY IDOCK:   -3.10 KCAL/MOL
REMARK 922        TOTAL FREE ENERGY PREDICTED BY IDOCK:   -4.14 KCAL/MOL
REMARK 923 INTER-LIGAND FREE ENERGY PREDICTED BY IDOCK:   -3.89 KCAL/MOL
REMARK 924 INTRA-LIGAND FREE ENERGY PREDICTED BY IDOCK:   -0.25 KCAL/MOL
REMARK 927      BINDING AFFINITY PREDICTED BY RF-SCORE:    0.00 PKD
ROOT
HETATM    1  C   UNL     1      -9.409   3.998  67.751  1.00  0.00    -0.221 C  
HETATM    2  C   UNL     1     -10.274   5.163  68.147  1.00  0.00    -0.177 C  
HETATM    3  C   UNL     1     -10.817   6.021  67.038  1.00  0.00    -0.413 C  
HETATM    4  C   UNL     1     -10.521   5.411  69.450  1.00  0.00    -0.331 C  
ENDROOT
BRANCH   4   5
HETATM    5  C   UNL     1     -11.409   6.501  69.990  1.00  0.00    -0.472 C  
BRANCH   5   6
HETATM    6  C   UNL     1     -10.621   7.763  70.363  1.00  0.00    -0.227 C  
BRANCH   6   7
HETATM    7  C   UNL     1     -11.437   8.769  71.155  1.00  0.00    -0.344 C  
HETATM    8  C   UNL     1     -11.945   8.320  72.500  1.00  0.00    -0.420 C  
HETATM    9  C   UNL     1     -11.727   9.983  70.646  1.00  0.00    -0.421 C  
BRANCH   9  10
HETATM   10  C   UNL     1     -12.558  11.051  71.283  1.00  0.00    -0.412 C  
HETATM   11  O   UNL     1     -12.154  12.304  70.754  1.00  0.00    -0.447 OA 
HETATM   12  H   UNL     1     -12.682  12.982  71.158  1.00  0.00     0.000 HD 
ENDBRANCH   9  10
ENDBRANCH   6   7
ENDBRANCH   5   6
ENDBRANCH   4   5
TORSDOF 4
ENDMDL
MODEL      125
REMARK 921   NORMALIZED FREE ENERGY PREDICTED BY IDOCK:   -3.09 KCAL/MOL
REMARK 922        TOTAL FREE ENERGY PREDICTED BY IDOCK:   -4.13 KCAL/MOL
REMARK 923 INTER-LIGAND FREE ENERGY PREDICTED BY IDOCK:   -3.79 KCAL/MOL
REMARK 924 INTRA-LIGAND FREE ENERGY PREDICTED BY IDOCK:   -0.34 KCAL/MOL
REMARK 927      BINDING AFFINITY PREDICTED BY RF-SCORE:    0.00 PKD
ROOT
HETATM    1  C   UNL     1      -7.655   8.194  73.446  1.00  0.00    -0.200 C  
HETATM    2  C   UNL     1      -9.078   7.708  73.417  1.00  0.00    -0.296 C  
HETATM    3  C   UNL     1      -9.395   6.467  74.206  1.00  0.00    -0.228 C  
HETATM    4  C   UNL     1     -10.005   8.370  72.694  1.00  0.00    -0.329 C  
ENDROOT
BRANCH   4   5
HETATM    5  C   UNL     1     -11.472   8.035  72.617  1.00  0.00    -0.465 C  
BRANCH   5   6
HETATM    6  C   UNL     1     -12.072   8.361  71.244  1.00  0.00    -0.315 C  
BRANCH   6   7
HETATM    7  C   UNL     1     -12.034   9.841  70.907  1.00  0.00    -0.413 C  
HETATM    8  C   UNL     1     -12.796  10.763  71.821  1.00  0.00    -0.528 C  
HETATM    9  C   UNL     1     -11.387  10.287  69.812  1.00  0.00    -0.334 C  
BRANCH   9  10
HETATM   10  C   UNL     1     -11.308  11.700  69.327  1.00  0.00    -0.290 C  
HETATM   11  O   UNL     1      -9.940  12.061  69.228  1.00  0.00    -0.395 OA 
HETATM   12  H   UNL     1      -9.890  12.958  68.920  1.00  0.00     0.000 HD 
ENDBRANCH   9  10
ENDBRANCH   6   7
ENDBRANCH   5   6
ENDBRANCH   4   5
TORSDOF 4
ENDMDL
MODEL      126
REMARK 921   NORMALIZED FREE ENERGY PREDICTED BY IDOCK:   -3.09 KCAL/MOL
REMARK 922        TOTAL FREE ENERGY PREDICTED BY IDOCK:   -4.13 KCAL/MOL
REMARK 923 INTER-LIGAND FREE ENERGY PREDICTED BY IDOCK:   -3.87 KCAL/MOL
REMARK 924 INTRA-LIGAND FREE ENERGY PREDICTED BY IDOCK:   -0.26 KCAL/MOL
REMARK 927      BINDING AFFINITY PREDICTED BY RF-SCORE:    0.00 PKD
ROOT
HETATM    1  C   UNL     1     -12.304  12.424  63.556  1.00  0.00    -0.648 C  
HETATM    2  C   UNL     1     -12.059  12.649  65.023  1.00  0.00    -0.497 C  
HETATM    3  C   UNL     1     -12.603  13.916  65.622  1.00  0.00    -0.553 C  
HETATM    4  C   UNL     1     -11.364  11.742  65.740  1.00  0.00    -0.309 C  
ENDROOT
BRANCH   4   5
HETATM    5  C   UNL     1     -11.091  11.805  67.220  1.00  0.00    -0.342 C  
BRANCH   5   6
HETATM    6  C   UNL     1     -11.083  10.417  67.871  1.00  0.00    -0.363 C  
BRANCH   6   7
HETATM    7  C   UNL     1      -9.692   9.935  68.243  1.00  0.00    -0.159 C  
HETATM    8  C   UNL     1      -8.869   9.323  67.139  1.00  0.00    -0.137 C  
HETATM    9  C   UNL     1      -9.247  10.011  69.513  1.00  0.00    -0.238 C  
BRANCH   9  10
HETATM   10  C   UNL     1      -7.931   9.532  70.036  1.00  0.00    -0.156 C  
HETATM   11  O   UNL     1      -7.227  10.647  70.559  1.00  0.00    -0.463 OA 
HETATM   12  H   UNL     1      -6.390  10.342  70.891  1.00  0.00     0.000 HD 
ENDBRANCH   9  10
ENDBRANCH   6   7
ENDBRANCH   5   6
ENDBRANCH   4   5
TORSDOF 4
ENDMDL
MODEL      127
REMARK 921   NORMALIZED FREE ENERGY PREDICTED BY IDOCK:   -3.08 KCAL/MOL
REMARK 922        TOTAL FREE ENERGY PREDICTED BY IDOCK:   -4.12 KCAL/MOL
REMARK 923 INTER-LIGAND FREE ENERGY PREDICTED BY IDOCK:   -3.60 KCAL/MOL
REMARK 924 INTRA-LIGAND FREE ENERGY PREDICTED BY IDOCK:   -0.52 KCAL/MOL
REMARK 927      BINDING AFFINITY PREDICTED BY RF-SCORE:    0.00 PKD
ROOT
HETATM    1  C   UNL     1      -6.753  16.410  69.338  1.00  0.00    -0.215 C  
HETATM    2  C   UNL     1      -7.919  15.980  68.490  1.00  0.00    -0.159 C  
HETATM    3  C   UNL     1      -7.694  14.827  67.551  1.00  0.00    -0.215 C  
HETATM    4  C   UNL     1      -9.098  16.628  68.580  1.00  0.00    -0.234 C  
ENDROOT
BRANCH   4   5
HETATM    5  C   UNL     1     -10.361  16.276  67.839  1.00  0.00    -0.285 C  
BRANCH   5   6
HETATM    6  C   UNL     1     -11.328  15.451  68.696  1.00  0.00    -0.337 C  
BRANCH   6   7
HETATM    7  C   UNL     1     -11.516  14.030  68.193  1.00  0.00    -0.341 C  
HETATM    8  C   UNL     1     -11.573  12.945  69.235  1.00  0.00    -0.368 C  
HETATM    9  C   UNL     1     -11.575  13.763  66.874  1.00  0.00    -0.394 C  
BRANCH   9  10
HETATM   10  C   UNL     1     -11.704  12.418  66.232  1.00  0.00    -0.395 C  
HETATM   11  O   UNL     1     -12.698  12.499  65.223  1.00  0.00    -0.654 OA 
HETATM   12  H   UNL     1     -12.779  11.644  64.816  1.00  0.00     0.000 HD 
ENDBRANCH   9  10
ENDBRANCH   6   7
ENDBRANCH   5   6
ENDBRANCH   4   5
TORSDOF 4
ENDMDL
MODEL      128
REMARK 921   NORMALIZED FREE ENERGY PREDICTED BY IDOCK:   -3.07 KCAL/MOL
REMARK 922        TOTAL FREE ENERGY PREDICTED BY IDOCK:   -4.10 KCAL/MOL
REMARK 923 INTER-LIGAND FREE ENERGY PREDICTED BY IDOCK:   -3.74 KCAL/MOL
REMARK 924 INTRA-LIGAND FREE ENERGY PREDICTED BY IDOCK:   -0.37 KCAL/MOL
REMARK 927      BINDING AFFINITY PREDICTED BY RF-SCORE:    0.00 PKD
ROOT
HETATM    1  C   UNL     1      -8.604  20.335  67.256  1.00  0.00    -0.425 C  
HETATM    2  C   UNL     1      -8.972  18.890  67.450  1.00  0.00    -0.297 C  
HETATM    3  C   UNL     1      -8.239  18.135  68.524  1.00  0.00    -0.320 C  
HETATM    4  C   UNL     1      -9.913  18.320  66.670  1.00  0.00    -0.370 C  
ENDROOT
BRANCH   4   5
HETATM    5  C   UNL     1     -10.423  16.907  66.786  1.00  0.00    -0.260 C  
BRANCH   5   6
HETATM    6  C   UNL     1     -10.124  16.075  65.533  1.00  0.00    -0.336 C  
BRANCH   6   7
HETATM    7  C   UNL     1      -9.923  14.599  65.824  1.00  0.00    -0.365 C  
HETATM    8  C   UNL     1      -8.981  14.253  66.947  1.00  0.00    -0.255 C  
HETATM    9  C   UNL     1     -10.525  13.655  65.075  1.00  0.00    -0.406 C  
BRANCH   9  10
HETATM   10  C   UNL     1     -10.382  12.172  65.209  1.00  0.00    -0.277 C  
HETATM   11  O   UNL     1      -9.269  11.761  64.432  1.00  0.00    -0.423 OA 
HETATM   12  H   UNL     1      -9.178  10.819  64.517  1.00  0.00     0.000 HD 
ENDBRANCH   9  10
ENDBRANCH   6   7
ENDBRANCH   5   6
ENDBRANCH   4   5
TORSDOF 4
ENDMDL
MODEL      129
REMARK 921   NORMALIZED FREE ENERGY PREDICTED BY IDOCK:   -3.06 KCAL/MOL
REMARK 922        TOTAL FREE ENERGY PREDICTED BY IDOCK:   -4.09 KCAL/MOL
REMARK 923 INTER-LIGAND FREE ENERGY PREDICTED BY IDOCK:   -3.82 KCAL/MOL
REMARK 924 INTRA-LIGAND FREE ENERGY PREDICTED BY IDOCK:   -0.27 KCAL/MOL
REMARK 927      BINDING AFFINITY PREDICTED BY RF-SCORE:    0.00 PKD
ROOT
HETATM    1  C   UNL     1     -13.048  11.104  71.583  1.00  0.00    -0.529 C  
HETATM    2  C   UNL     1     -12.189   9.883  71.403  1.00  0.00    -0.499 C  
HETATM    3  C   UNL     1     -11.112   9.951  70.356  1.00  0.00    -0.382 C  
HETATM    4  C   UNL     1     -12.408   8.783  72.153  1.00  0.00    -0.458 C  
ENDROOT
BRANCH   4   5
HETATM    5  C   UNL     1     -11.596   7.515  72.123  1.00  0.00    -0.340 C  
BRANCH   5   6
HETATM    6  C   UNL     1     -10.731   7.346  73.378  1.00  0.00    -0.407 C  
BRANCH   6   7
HETATM    7  C   UNL     1     -10.418   5.897  73.702  1.00  0.00    -0.280 C  
HETATM    8  C   UNL     1      -9.119   5.628  74.417  1.00  0.00    -0.123 C  
HETATM    9  C   UNL     1     -11.245   4.905  73.319  1.00  0.00    -0.423 C  
BRANCH   9  10
HETATM   10  C   UNL     1     -11.044   3.437  73.520  1.00  0.00    -0.219 C  
HETATM   11  O   UNL     1     -10.229   2.950  72.465  1.00  0.00    -0.157 OA 
HETATM   12  H   UNL     1     -10.102   2.017  72.592  1.00  0.00     0.000 HD 
ENDBRANCH   9  10
ENDBRANCH   6   7
ENDBRANCH   5   6
ENDBRANCH   4   5
TORSDOF 4
ENDMDL
MODEL      130
REMARK 921   NORMALIZED FREE ENERGY PREDICTED BY IDOCK:   -3.06 KCAL/MOL
REMARK 922        TOTAL FREE ENERGY PREDICTED BY IDOCK:   -4.09 KCAL/MOL
REMARK 923 INTER-LIGAND FREE ENERGY PREDICTED BY IDOCK:   -3.71 KCAL/MOL
REMARK 924 INTRA-LIGAND FREE ENERGY PREDICTED BY IDOCK:   -0.38 KCAL/MOL
REMARK 927      BINDING AFFINITY PREDICTED BY RF-SCORE:    0.00 PKD
ROOT
HETATM    1  C   UNL     1      -9.731   4.461  69.833  1.00  0.00    -0.291 C  
HETATM    2  C   UNL     1     -10.684   5.625  69.856  1.00  0.00    -0.399 C  
HETATM    3  C   UNL     1     -10.912   6.349  68.558  1.00  0.00    -0.396 C  
HETATM    4  C   UNL     1     -11.282   5.988  71.009  1.00  0.00    -0.332 C  
ENDROOT
BRANCH   4   5
HETATM    5  C   UNL     1     -12.296   7.090  71.172  1.00  0.00    -0.423 C  
BRANCH   5   6
HETATM    6  C   UNL     1     -11.887   8.103  72.248  1.00  0.00    -0.441 C  
BRANCH   6   7
HETATM    7  C   UNL     1     -10.394   8.377  72.279  1.00  0.00    -0.403 C  
HETATM    8  C   UNL     1      -9.811   9.093  71.089  1.00  0.00    -0.371 C  
HETATM    9  C   UNL     1      -9.631   7.950  73.305  1.00  0.00    -0.351 C  
BRANCH   9  10
HETATM   10  C   UNL     1      -8.150   8.099  73.448  1.00  0.00    -0.194 C  
HETATM   11  O   UNL     1      -7.654   6.966  74.142  1.00  0.00    -0.104 OA 
HETATM   12  H   UNL     1      -6.712   7.060  74.233  1.00  0.00     0.000 HD 
ENDBRANCH   9  10
ENDBRANCH   6   7
ENDBRANCH   5   6
ENDBRANCH   4   5
TORSDOF 4
ENDMDL
MODEL      131
REMARK 921   NORMALIZED FREE ENERGY PREDICTED BY IDOCK:   -3.04 KCAL/MOL
REMARK 922        TOTAL FREE ENERGY PREDICTED BY IDOCK:   -4.07 KCAL/MOL
REMARK 923 INTER-LIGAND FREE ENERGY PREDICTED BY IDOCK:   -3.63 KCAL/MOL
REMARK 924 INTRA-LIGAND FREE ENERGY PREDICTED BY IDOCK:   -0.44 KCAL/MOL
REMARK 927      BINDING AFFINITY PREDICTED BY RF-SCORE:    0.00 PKD
ROOT
HETATM    1  C   UNL     1     -11.059  10.396  69.170  1.00  0.00    -0.296 C  
HETATM    2  C   UNL     1     -10.764  11.257  67.972  1.00  0.00    -0.245 C  
HETATM    3  C   UNL     1      -9.323  11.395  67.565  1.00  0.00    -0.166 C  
HETATM    4  C   UNL     1     -11.769  11.876  67.319  1.00  0.00    -0.319 C  
ENDROOT
BRANCH   4   5
HETATM    5  C   UNL     1     -11.632  12.719  66.078  1.00  0.00    -0.432 C  
BRANCH   5   6
HETATM    6  C   UNL     1     -12.121  14.156  66.292  1.00  0.00    -0.463 C  
BRANCH   6   7
HETATM    7  C   UNL     1     -11.153  15.008  67.093  1.00  0.00    -0.332 C  
HETATM    8  C   UNL     1     -10.083  15.729  66.315  1.00  0.00    -0.320 C  
HETATM    9  C   UNL     1     -11.227  15.068  68.437  1.00  0.00    -0.303 C  
BRANCH   9  10
HETATM   10  C   UNL     1     -10.316  15.817  69.357  1.00  0.00    -0.263 C  
HETATM   11  O   UNL     1     -10.431  15.253  70.653  1.00  0.00    -0.490 OA 
HETATM   12  H   UNL     1      -9.852  15.729  71.238  1.00  0.00     0.000 HD 
ENDBRANCH   9  10
ENDBRANCH   6   7
ENDBRANCH   5   6
ENDBRANCH   4   5
TORSDOF 4
ENDMDL
MODEL      132
REMARK 921   NORMALIZED FREE ENERGY PREDICTED BY IDOCK:   -3.04 KCAL/MOL
REMARK 922        TOTAL FREE ENERGY PREDICTED BY IDOCK:   -4.07 KCAL/MOL
REMARK 923 INTER-LIGAND FREE ENERGY PREDICTED BY IDOCK:   -3.70 KCAL/MOL
REMARK 924 INTRA-LIGAND FREE ENERGY PREDICTED BY IDOCK:   -0.37 KCAL/MOL
REMARK 927      BINDING AFFINITY PREDICTED BY RF-SCORE:    0.00 PKD
ROOT
HETATM    1  C   UNL     1     -10.576  19.645  66.297  1.00  0.00    -0.585 C  
HETATM    2  C   UNL     1      -9.582  18.585  66.683  1.00  0.00    -0.328 C  
HETATM    3  C   UNL     1      -8.204  19.046  67.071  1.00  0.00    -0.285 C  
HETATM    4  C   UNL     1      -9.936  17.283  66.659  1.00  0.00    -0.296 C  
ENDROOT
BRANCH   4   5
HETATM    5  C   UNL     1      -9.069  16.122  67.070  1.00  0.00    -0.228 C  
BRANCH   5   6
HETATM    6  C   UNL     1      -9.374  15.644  68.496  1.00  0.00    -0.197 C  
BRANCH   6   7
HETATM    7  C   UNL     1     -10.596  14.747  68.580  1.00  0.00    -0.255 C  
HETATM    8  C   UNL     1     -11.862  15.374  69.102  1.00  0.00    -0.357 C  
HETATM    9  C   UNL     1     -10.524  13.442  68.250  1.00  0.00    -0.256 C  
BRANCH   9  10
HETATM   10  C   UNL     1     -11.622  12.431  68.332  1.00  0.00    -0.324 C  
HETATM   11  O   UNL     1     -12.067  12.148  67.015  1.00  0.00    -0.591 OA 
HETATM   12  H   UNL     1     -12.765  11.506  67.068  1.00  0.00     0.000 HD 
ENDBRANCH   9  10
ENDBRANCH   6   7
ENDBRANCH   5   6
ENDBRANCH   4   5
TORSDOF 4
ENDMDL
MODEL      133
REMARK 921   NORMALIZED FREE ENERGY PREDICTED BY IDOCK:   -3.04 KCAL/MOL
REMARK 922        TOTAL FREE ENERGY PREDICTED BY IDOCK:   -4.07 KCAL/MOL
REMARK 923 INTER-LIGAND FREE ENERGY PREDICTED BY IDOCK:   -3.50 KCAL/MOL
REMARK 924 INTRA-LIGAND FREE ENERGY PREDICTED BY IDOCK:   -0.57 KCAL/MOL
REMARK 927      BINDING AFFINITY PREDICTED BY RF-SCORE:    0.00 PKD
ROOT
HETATM    1  C   UNL     1     -10.852  20.317  65.758  1.00  0.00    -0.024 C  
HETATM    2  C   UNL     1      -9.825  19.720  66.681  1.00  0.00    -0.538 C  
HETATM    3  C   UNL     1      -8.387  20.082  66.431  1.00  0.00    -0.338 C  
HETATM    4  C   UNL     1     -10.207  18.889  67.672  1.00  0.00    -0.459 C  
ENDROOT
BRANCH   4   5
HETATM    5  C   UNL     1      -9.302  18.265  68.702  1.00  0.00    -0.320 C  
BRANCH   5   6
HETATM    6  C   UNL     1      -9.319  16.732  68.640  1.00  0.00    -0.252 C  
BRANCH   6   7
HETATM    7  C   UNL     1      -9.081  16.184  67.245  1.00  0.00    -0.215 C  
HETATM    8  C   UNL     1      -7.715  16.410  66.652  1.00  0.00    -0.310 C  
HETATM    9  C   UNL     1     -10.067  15.571  66.562  1.00  0.00    -0.290 C  
BRANCH   9  10
HETATM   10  C   UNL     1      -9.997  15.030  65.169  1.00  0.00    -0.234 C  
HETATM   11  O   UNL     1      -9.885  13.618  65.245  1.00  0.00    -0.521 OA 
HETATM   12  H   UNL     1      -9.840  13.274  64.360  1.00  0.00     0.000 HD 
ENDBRANCH   9  10
ENDBRANCH   6   7
ENDBRANCH   5   6
ENDBRANCH   4   5
TORSDOF 4
ENDMDL
MODEL      134
REMARK 921   NORMALIZED FREE ENERGY PREDICTED BY IDOCK:   -3.02 KCAL/MOL
REMARK 922        TOTAL FREE ENERGY PREDICTED BY IDOCK:   -4.04 KCAL/MOL
REMARK 923 INTER-LIGAND FREE ENERGY PREDICTED BY IDOCK:   -4.08 KCAL/MOL
REMARK 924 INTRA-LIGAND FREE ENERGY PREDICTED BY IDOCK:    0.04 KCAL/MOL
REMARK 927      BINDING AFFINITY PREDICTED BY RF-SCORE:    0.00 PKD
ROOT
HETATM    1  C   UNL     1     -12.703  14.972  71.281  1.00  0.00    -0.419 C  
HETATM    2  C   UNL     1     -12.766  13.470  71.261  1.00  0.00    -0.432 C  
HETATM    3  C   UNL     1     -13.457  12.797  72.415  1.00  0.00    -0.512 C  
HETATM    4  C   UNL     1     -12.205  12.781  70.246  1.00  0.00    -0.351 C  
ENDROOT
BRANCH   4   5
HETATM    5  C   UNL     1     -12.238  11.287  70.064  1.00  0.00    -0.389 C  
BRANCH   5   6
HETATM    6  C   UNL     1     -11.643  10.540  71.265  1.00  0.00    -0.121 C  
BRANCH   6   7
HETATM    7  C   UNL     1     -12.385   9.261  71.606  1.00  0.00    -0.450 C  
HETATM    8  C   UNL     1     -13.849   9.395  71.935  1.00  0.00    -0.380 C  
HETATM    9  C   UNL     1     -11.743   8.077  71.657  1.00  0.00    -0.325 C  
BRANCH   9  10
HETATM   10  C   UNL     1     -12.327   6.752  72.027  1.00  0.00    -0.271 C  
HETATM   11  O   UNL     1     -11.418   6.090  72.892  1.00  0.00    -0.429 OA 
HETATM   12  H   UNL     1     -11.789   5.248  73.127  1.00  0.00     0.000 HD 
ENDBRANCH   9  10
ENDBRANCH   6   7
ENDBRANCH   5   6
ENDBRANCH   4   5
TORSDOF 4
ENDMDL
MODEL      135
REMARK 921   NORMALIZED FREE ENERGY PREDICTED BY IDOCK:   -3.01 KCAL/MOL
REMARK 922        TOTAL FREE ENERGY PREDICTED BY IDOCK:   -4.03 KCAL/MOL
REMARK 923 INTER-LIGAND FREE ENERGY PREDICTED BY IDOCK:   -3.68 KCAL/MOL
REMARK 924 INTRA-LIGAND FREE ENERGY PREDICTED BY IDOCK:   -0.36 KCAL/MOL
REMARK 927      BINDING AFFINITY PREDICTED BY RF-SCORE:    0.00 PKD
ROOT
HETATM    1  C   UNL     1     -13.654  15.188  72.048  1.00  0.00    -0.549 C  
HETATM    2  C   UNL     1     -12.653  14.987  70.943  1.00  0.00    -0.419 C  
HETATM    3  C   UNL     1     -11.780  16.159  70.587  1.00  0.00    -0.300 C  
HETATM    4  C   UNL     1     -12.574  13.799  70.309  1.00  0.00    -0.288 C  
ENDROOT
BRANCH   4   5
HETATM    5  C   UNL     1     -11.589  13.436  69.229  1.00  0.00    -0.365 C  
BRANCH   5   6
HETATM    6  C   UNL     1     -11.983  14.010  67.863  1.00  0.00    -0.387 C  
BRANCH   6   7
HETATM    7  C   UNL     1     -10.792  14.304  66.968  1.00  0.00    -0.297 C  
HETATM    8  C   UNL     1     -10.737  13.573  65.653  1.00  0.00    -0.284 C  
HETATM    9  C   UNL     1      -9.815  15.142  67.365  1.00  0.00    -0.224 C  
BRANCH   9  10
HETATM   10  C   UNL     1      -8.565  15.486  66.620  1.00  0.00    -0.290 C  
HETATM   11  O   UNL     1      -7.514  14.672  67.114  1.00  0.00    -0.274 OA 
HETATM   12  H   UNL     1      -6.720  14.890  66.640  1.00  0.00     0.000 HD 
ENDBRANCH   9  10
ENDBRANCH   6   7
ENDBRANCH   5   6
ENDBRANCH   4   5
TORSDOF 4
ENDMDL
MODEL      136
REMARK 921   NORMALIZED FREE ENERGY PREDICTED BY IDOCK:   -2.98 KCAL/MOL
REMARK 922        TOTAL FREE ENERGY PREDICTED BY IDOCK:   -3.99 KCAL/MOL
REMARK 923 INTER-LIGAND FREE ENERGY PREDICTED BY IDOCK:   -3.73 KCAL/MOL
REMARK 924 INTRA-LIGAND FREE ENERGY PREDICTED BY IDOCK:   -0.26 KCAL/MOL
REMARK 927      BINDING AFFINITY PREDICTED BY RF-SCORE:    0.00 PKD
ROOT
HETATM    1  C   UNL     1      -6.735  18.054  67.862  1.00  0.00    -0.191 C  
HETATM    2  C   UNL     1      -8.061  17.361  67.705  1.00  0.00    -0.203 C  
HETATM    3  C   UNL     1      -8.212  16.429  66.535  1.00  0.00    -0.341 C  
HETATM    4  C   UNL     1      -9.057  17.597  68.583  1.00  0.00    -0.261 C  
ENDROOT
BRANCH   4   5
HETATM    5  C   UNL     1     -10.411  16.937  68.584  1.00  0.00    -0.352 C  
BRANCH   5   6
HETATM    6  C   UNL     1     -10.885  16.581  69.998  1.00  0.00    -0.258 C  
BRANCH   6   7
HETATM    7  C   UNL     1     -11.677  15.287  70.060  1.00  0.00    -0.344 C  
HETATM    8  C   UNL     1     -11.900  14.568  68.755  1.00  0.00    -0.350 C  
HETATM    9  C   UNL     1     -12.190  14.842  71.223  1.00  0.00    -0.394 C  
BRANCH   9  10
HETATM   10  C   UNL     1     -13.030  13.621  71.427  1.00  0.00    -0.347 C  
HETATM   11  O   UNL     1     -13.812  13.809  72.596  1.00  0.00    -0.691 OA 
HETATM   12  H   UNL     1     -14.345  13.033  72.726  1.00  0.00     0.000 HD 
ENDBRANCH   9  10
ENDBRANCH   6   7
ENDBRANCH   5   6
ENDBRANCH   4   5
TORSDOF 4
ENDMDL
MODEL      137
REMARK 921   NORMALIZED FREE ENERGY PREDICTED BY IDOCK:   -2.98 KCAL/MOL
REMARK 922        TOTAL FREE ENERGY PREDICTED BY IDOCK:   -3.99 KCAL/MOL
REMARK 923 INTER-LIGAND FREE ENERGY PREDICTED BY IDOCK:   -3.60 KCAL/MOL
REMARK 924 INTRA-LIGAND FREE ENERGY PREDICTED BY IDOCK:   -0.39 KCAL/MOL
REMARK 927      BINDING AFFINITY PREDICTED BY RF-SCORE:    0.00 PKD
ROOT
HETATM    1  C   UNL     1      -8.376   4.602  71.457  1.00  0.00    -0.105 C  
HETATM    2  C   UNL     1      -9.292   5.752  71.138  1.00  0.00    -0.174 C  
HETATM    3  C   UNL     1      -8.708   7.135  71.213  1.00  0.00    -0.128 C  
HETATM    4  C   UNL     1     -10.582   5.521  70.816  1.00  0.00    -0.320 C  
ENDROOT
BRANCH   4   5
HETATM    5  C   UNL     1     -11.596   6.562  70.421  1.00  0.00    -0.470 C  
BRANCH   5   6
HETATM    6  C   UNL     1     -12.493   6.977  71.594  1.00  0.00    -0.413 C  
BRANCH   6   7
HETATM    7  C   UNL     1     -12.936   8.427  71.528  1.00  0.00    -0.319 C  
HETATM    8  C   UNL     1     -14.257   8.761  72.171  1.00  0.00    -0.504 C  
HETATM    9  C   UNL     1     -12.200   9.350  70.879  1.00  0.00    -0.297 C  
BRANCH   9  10
HETATM   10  C   UNL     1     -12.533  10.795  70.687  1.00  0.00    -0.370 C  
HETATM   11  O   UNL     1     -11.349  11.478  70.306  1.00  0.00    -0.499 OA 
HETATM   12  H   UNL     1     -11.561  12.397  70.183  1.00  0.00     0.000 HD 
ENDBRANCH   9  10
ENDBRANCH   6   7
ENDBRANCH   5   6
ENDBRANCH   4   5
TORSDOF 4
ENDMDL
MODEL      138
REMARK 921   NORMALIZED FREE ENERGY PREDICTED BY IDOCK:   -2.95 KCAL/MOL
REMARK 922        TOTAL FREE ENERGY PREDICTED BY IDOCK:   -3.96 KCAL/MOL
REMARK 923 INTER-LIGAND FREE ENERGY PREDICTED BY IDOCK:   -3.63 KCAL/MOL
REMARK 924 INTRA-LIGAND FREE ENERGY PREDICTED BY IDOCK:   -0.33 KCAL/MOL
REMARK 927      BINDING AFFINITY PREDICTED BY RF-SCORE:    0.00 PKD
ROOT
HETATM    1  C   UNL     1      -9.407  15.942  69.002  1.00  0.00    -0.243 C  
HETATM    2  C   UNL     1      -9.332  15.873  67.501  1.00  0.00    -0.217 C  
HETATM    3  C   UNL     1      -8.036  16.285  66.860  1.00  0.00    -0.278 C  
HETATM    4  C   UNL     1     -10.402  15.467  66.787  1.00  0.00    -0.288 C  
ENDROOT
BRANCH   4   5
HETATM    5  C   UNL     1     -10.455  15.295  65.292  1.00  0.00    -0.436 C  
BRANCH   5   6
HETATM    6  C   UNL     1     -11.555  14.318  64.856  1.00  0.00    -0.384 C  
BRANCH   6   7
HETATM    7  C   UNL     1     -11.073  12.883  64.739  1.00  0.00    -0.337 C  
HETATM    8  C   UNL     1     -11.435  11.953  65.867  1.00  0.00    -0.340 C  
HETATM    9  C   UNL     1     -10.316  12.488  63.697  1.00  0.00    -0.382 C  
BRANCH   9  10
HETATM   10  C   UNL     1      -9.729  11.131  63.474  1.00  0.00    -0.334 C  
HETATM   11  O   UNL     1      -8.333  11.278  63.265  1.00  0.00    -0.391 OA 
HETATM   12  H   UNL     1      -7.960  10.416  63.124  1.00  0.00     0.000 HD 
ENDBRANCH   9  10
ENDBRANCH   6   7
ENDBRANCH   5   6
ENDBRANCH   4   5
TORSDOF 4
ENDMDL
MODEL      139
REMARK 921   NORMALIZED FREE ENERGY PREDICTED BY IDOCK:   -2.95 KCAL/MOL
REMARK 922        TOTAL FREE ENERGY PREDICTED BY IDOCK:   -3.95 KCAL/MOL
REMARK 923 INTER-LIGAND FREE ENERGY PREDICTED BY IDOCK:   -3.74 KCAL/MOL
REMARK 924 INTRA-LIGAND FREE ENERGY PREDICTED BY IDOCK:   -0.22 KCAL/MOL
REMARK 927      BINDING AFFINITY PREDICTED BY RF-SCORE:    0.00 PKD
ROOT
HETATM    1  C   UNL     1     -10.274   6.870  67.091  1.00  0.00    -0.308 C  
HETATM    2  C   UNL     1     -10.374   8.236  67.713  1.00  0.00    -0.296 C  
HETATM    3  C   UNL     1     -10.342   8.309  69.215  1.00  0.00    -0.223 C  
HETATM    4  C   UNL     1     -10.499   9.329  66.932  1.00  0.00    -0.284 C  
ENDROOT
BRANCH   4   5
HETATM    5  C   UNL     1     -10.553  10.756  67.409  1.00  0.00    -0.287 C  
BRANCH   5   6
HETATM    6  C   UNL     1     -11.251  11.681  66.404  1.00  0.00    -0.349 C  
BRANCH   6   7
HETATM    7  C   UNL     1     -11.695  13.001  67.009  1.00  0.00    -0.441 C  
HETATM    8  C   UNL     1     -12.092  14.088  66.045  1.00  0.00    -0.461 C  
HETATM    9  C   UNL     1     -11.683  13.193  68.342  1.00  0.00    -0.386 C  
BRANCH   9  10
HETATM   10  C   UNL     1     -12.041  14.447  69.075  1.00  0.00    -0.263 C  
HETATM   11  O   UNL     1     -11.386  14.430  70.333  1.00  0.00    -0.439 OA 
HETATM   12  H   UNL     1     -11.613  15.226  70.798  1.00  0.00     0.000 HD 
ENDBRANCH   9  10
ENDBRANCH   6   7
ENDBRANCH   5   6
ENDBRANCH   4   5
TORSDOF 4
ENDMDL
MODEL      140
REMARK 921   NORMALIZED FREE ENERGY PREDICTED BY IDOCK:   -2.94 KCAL/MOL
REMARK 922        TOTAL FREE ENERGY PREDICTED BY IDOCK:   -3.94 KCAL/MOL
REMARK 923 INTER-LIGAND FREE ENERGY PREDICTED BY IDOCK:   -3.73 KCAL/MOL
REMARK 924 INTRA-LIGAND FREE ENERGY PREDICTED BY IDOCK:   -0.22 KCAL/MOL
REMARK 927      BINDING AFFINITY PREDICTED BY RF-SCORE:    0.00 PKD
ROOT
HETATM    1  C   UNL     1      -7.093  19.301  68.015  1.00  0.00    -0.287 C  
HETATM    2  C   UNL     1      -8.360  18.549  67.710  1.00  0.00    -0.273 C  
HETATM    3  C   UNL     1      -9.656  19.200  68.109  1.00  0.00    -0.411 C  
HETATM    4  C   UNL     1      -8.304  17.340  67.116  1.00  0.00    -0.220 C  
ENDROOT
BRANCH   4   5
HETATM    5  C   UNL     1      -9.484  16.501  66.701  1.00  0.00    -0.278 C  
BRANCH   5   6
HETATM    6  C   UNL     1      -9.165  15.000  66.714  1.00  0.00    -0.280 C  
BRANCH   6   7
HETATM    7  C   UNL     1     -10.363  14.129  66.382  1.00  0.00    -0.287 C  
HETATM    8  C   UNL     1     -11.204  13.663  67.541  1.00  0.00    -0.316 C  
HETATM    9  C   UNL     1     -10.621  13.756  65.113  1.00  0.00    -0.385 C  
BRANCH   9  10
HETATM   10  C   UNL     1     -11.725  12.864  64.643  1.00  0.00    -0.359 C  
HETATM   11  O   UNL     1     -12.809  13.678  64.225  1.00  0.00    -0.630 OA 
HETATM   12  H   UNL     1     -13.510  13.111  63.926  1.00  0.00     0.000 HD 
ENDBRANCH   9  10
ENDBRANCH   6   7
ENDBRANCH   5   6
ENDBRANCH   4   5
TORSDOF 4
ENDMDL
MODEL      141
REMARK 921   NORMALIZED FREE ENERGY PREDICTED BY IDOCK:   -2.94 KCAL/MOL
REMARK 922        TOTAL FREE ENERGY PREDICTED BY IDOCK:   -3.94 KCAL/MOL
REMARK 923 INTER-LIGAND FREE ENERGY PREDICTED BY IDOCK:   -3.52 KCAL/MOL
REMARK 924 INTRA-LIGAND FREE ENERGY PREDICTED BY IDOCK:   -0.43 KCAL/MOL
REMARK 927      BINDING AFFINITY PREDICTED BY RF-SCORE:    0.00 PKD
ROOT
HETATM    1  C   UNL     1      -9.138   5.750  66.466  1.00  0.00    -0.144 C  
HETATM    2  C   UNL     1     -10.026   6.861  66.957  1.00  0.00    -0.257 C  
HETATM    3  C   UNL     1     -11.155   6.480  67.874  1.00  0.00    -0.352 C  
HETATM    4  C   UNL     1      -9.803   8.131  66.563  1.00  0.00    -0.309 C  
ENDROOT
BRANCH   4   5
HETATM    5  C   UNL     1     -10.569   9.346  67.014  1.00  0.00    -0.272 C  
BRANCH   5   6
HETATM    6  C   UNL     1     -10.021   9.929  68.322  1.00  0.00    -0.172 C  
BRANCH   6   7
HETATM    7  C   UNL     1     -11.107  10.343  69.299  1.00  0.00    -0.303 C  
HETATM    8  C   UNL     1     -11.812  11.643  69.015  1.00  0.00    -0.391 C  
HETATM    9  C   UNL     1     -11.382   9.600  70.388  1.00  0.00    -0.337 C  
BRANCH   9  10
HETATM   10  C   UNL     1     -12.380   9.906  71.459  1.00  0.00    -0.412 C  
HETATM   11  O   UNL     1     -13.654   9.463  71.019  1.00  0.00    -0.567 OA 
HETATM   12  H   UNL     1     -14.289   9.658  71.699  1.00  0.00     0.000 HD 
ENDBRANCH   9  10
ENDBRANCH   6   7
ENDBRANCH   5   6
ENDBRANCH   4   5
TORSDOF 4
ENDMDL
MODEL      142
REMARK 921   NORMALIZED FREE ENERGY PREDICTED BY IDOCK:   -2.94 KCAL/MOL
REMARK 922        TOTAL FREE ENERGY PREDICTED BY IDOCK:   -3.94 KCAL/MOL
REMARK 923 INTER-LIGAND FREE ENERGY PREDICTED BY IDOCK:   -3.33 KCAL/MOL
REMARK 924 INTRA-LIGAND FREE ENERGY PREDICTED BY IDOCK:   -0.61 KCAL/MOL
REMARK 927      BINDING AFFINITY PREDICTED BY RF-SCORE:    0.00 PKD
ROOT
HETATM    1  C   UNL     1      -8.384  15.627  69.042  1.00  0.00    -0.235 C  
HETATM    2  C   UNL     1      -9.002  14.927  67.863  1.00  0.00    -0.177 C  
HETATM    3  C   UNL     1      -8.211  13.812  67.236  1.00  0.00    -0.173 C  
HETATM    4  C   UNL     1     -10.209  15.315  67.402  1.00  0.00    -0.243 C  
ENDROOT
BRANCH   4   5
HETATM    5  C   UNL     1     -10.972  14.675  66.272  1.00  0.00    -0.327 C  
BRANCH   5   6
HETATM    6  C   UNL     1     -12.058  13.714  66.774  1.00  0.00    -0.445 C  
BRANCH   6   7
HETATM    7  C   UNL     1     -11.573  12.283  66.923  1.00  0.00    -0.427 C  
HETATM    8  C   UNL     1     -11.884  11.596  68.227  1.00  0.00    -0.335 C  
HETATM    9  C   UNL     1     -10.856  11.687  65.951  1.00  0.00    -0.339 C  
BRANCH   9  10
HETATM   10  C   UNL     1     -10.270  10.312  65.978  1.00  0.00    -0.228 C  
HETATM   11  O   UNL     1      -9.951   9.937  64.647  1.00  0.00    -0.402 OA 
HETATM   12  H   UNL     1      -9.579   9.063  64.665  1.00  0.00     0.000 HD 
ENDBRANCH   9  10
ENDBRANCH   6   7
ENDBRANCH   5   6
ENDBRANCH   4   5
TORSDOF 4
ENDMDL
MODEL      143
REMARK 921   NORMALIZED FREE ENERGY PREDICTED BY IDOCK:   -2.93 KCAL/MOL
REMARK 922        TOTAL FREE ENERGY PREDICTED BY IDOCK:   -3.93 KCAL/MOL
REMARK 923 INTER-LIGAND FREE ENERGY PREDICTED BY IDOCK:   -3.55 KCAL/MOL
REMARK 924 INTRA-LIGAND FREE ENERGY PREDICTED BY IDOCK:   -0.37 KCAL/MOL
REMARK 927      BINDING AFFINITY PREDICTED BY RF-SCORE:    0.00 PKD
ROOT
HETATM    1  C   UNL     1      -9.003  15.811  66.049  1.00  0.00    -0.322 C  
HETATM    2  C   UNL     1     -10.399  15.271  65.904  1.00  0.00    -0.346 C  
HETATM    3  C   UNL     1     -11.362  15.548  67.025  1.00  0.00    -0.106 C  
HETATM    4  C   UNL     1     -10.740  14.559  64.809  1.00  0.00    -0.414 C  
ENDROOT
BRANCH   4   5
HETATM    5  C   UNL     1     -12.107  14.006  64.502  1.00  0.00    -0.484 C  
BRANCH   5   6
HETATM    6  C   UNL     1     -12.371  12.674  65.216  1.00  0.00    -0.528 C  
BRANCH   6   7
HETATM    7  C   UNL     1     -11.153  11.769  65.269  1.00  0.00    -0.333 C  
HETATM    8  C   UNL     1     -10.690  11.180  63.963  1.00  0.00    -0.409 C  
HETATM    9  C   UNL     1     -10.556  11.477  66.441  1.00  0.00    -0.304 C  
BRANCH   9  10
HETATM   10  C   UNL     1      -9.390  10.566  66.654  1.00  0.00    -0.161 C  
HETATM   11  O   UNL     1      -8.233  11.363  66.852  1.00  0.00    -0.146 OA 
HETATM   12  H   UNL     1      -7.491  10.784  66.987  1.00  0.00     0.000 HD 
ENDBRANCH   9  10
ENDBRANCH   6   7
ENDBRANCH   5   6
ENDBRANCH   4   5
TORSDOF 4
ENDMDL
MODEL      144
REMARK 921   NORMALIZED FREE ENERGY PREDICTED BY IDOCK:   -2.92 KCAL/MOL
REMARK 922        TOTAL FREE ENERGY PREDICTED BY IDOCK:   -3.92 KCAL/MOL
REMARK 923 INTER-LIGAND FREE ENERGY PREDICTED BY IDOCK:   -3.60 KCAL/MOL
REMARK 924 INTRA-LIGAND FREE ENERGY PREDICTED BY IDOCK:   -0.33 KCAL/MOL
REMARK 927      BINDING AFFINITY PREDICTED BY RF-SCORE:    0.00 PKD
ROOT
HETATM    1  C   UNL     1      -9.721   8.936  65.999  1.00  0.00    -0.308 C  
HETATM    2  C   UNL     1      -9.474   9.104  67.473  1.00  0.00    -0.169 C  
HETATM    3  C   UNL     1      -8.400   8.251  68.089  1.00  0.00    -0.129 C  
HETATM    4  C   UNL     1     -10.210   9.980  68.188  1.00  0.00    -0.205 C  
ENDROOT
BRANCH   4   5
HETATM    5  C   UNL     1     -10.038  10.294  69.651  1.00  0.00    -0.257 C  
BRANCH   5   6
HETATM    6  C   UNL     1     -11.355  10.712  70.316  1.00  0.00    -0.401 C  
BRANCH   6   7
HETATM    7  C   UNL     1     -11.832   9.732  71.373  1.00  0.00    -0.488 C  
HETATM    8  C   UNL     1     -13.192   9.987  71.969  1.00  0.00    -0.545 C  
HETATM    9  C   UNL     1     -11.047   8.717  71.784  1.00  0.00    -0.417 C  
BRANCH   9  10
HETATM   10  C   UNL     1     -11.359   7.712  72.847  1.00  0.00    -0.341 C  
HETATM   11  O   UNL     1     -10.183   7.491  73.609  1.00  0.00    -0.338 OA 
HETATM   12  H   UNL     1     -10.381   6.852  74.284  1.00  0.00     0.000 HD 
ENDBRANCH   9  10
ENDBRANCH   6   7
ENDBRANCH   5   6
ENDBRANCH   4   5
TORSDOF 4
ENDMDL
MODEL      145
REMARK 921   NORMALIZED FREE ENERGY PREDICTED BY IDOCK:   -2.91 KCAL/MOL
REMARK 922        TOTAL FREE ENERGY PREDICTED BY IDOCK:   -3.90 KCAL/MOL
REMARK 923 INTER-LIGAND FREE ENERGY PREDICTED BY IDOCK:   -3.68 KCAL/MOL
REMARK 924 INTRA-LIGAND FREE ENERGY PREDICTED BY IDOCK:   -0.23 KCAL/MOL
REMARK 927      BINDING AFFINITY PREDICTED BY RF-SCORE:    0.00 PKD
ROOT
HETATM    1  C   UNL     1      -8.161  18.656  66.272  1.00  0.00    -0.267 C  
HETATM    2  C   UNL     1      -9.353  18.246  67.093  1.00  0.00    -0.264 C  
HETATM    3  C   UNL     1     -10.464  19.250  67.237  1.00  0.00    -0.566 C  
HETATM    4  C   UNL     1      -9.390  17.030  67.675  1.00  0.00    -0.241 C  
ENDROOT
BRANCH   4   5
HETATM    5  C   UNL     1     -10.535  16.465  68.473  1.00  0.00    -0.291 C  
BRANCH   5   6
HETATM    6  C   UNL     1     -10.148  16.187  69.931  1.00  0.00    -0.074 C  
BRANCH   6   7
HETATM    7  C   UNL     1     -11.265  15.552  70.740  1.00  0.00    -0.384 C  
HETATM    8  C   UNL     1     -11.679  16.266  72.000  1.00  0.00    -0.528 C  
HETATM    9  C   UNL     1     -11.815  14.381  70.364  1.00  0.00    -0.381 C  
BRANCH   9  10
HETATM   10  C   UNL     1     -12.878  13.614  71.083  1.00  0.00    -0.323 C  
HETATM   11  O   UNL     1     -12.572  12.232  70.987  1.00  0.00    -0.361 OA 
HETATM   12  H   UNL     1     -13.248  11.744  71.444  1.00  0.00     0.000 HD 
ENDBRANCH   9  10
ENDBRANCH   6   7
ENDBRANCH   5   6
ENDBRANCH   4   5
TORSDOF 4
ENDMDL
MODEL      146
REMARK 921   NORMALIZED FREE ENERGY PREDICTED BY IDOCK:   -2.89 KCAL/MOL
REMARK 922        TOTAL FREE ENERGY PREDICTED BY IDOCK:   -3.89 KCAL/MOL
REMARK 923 INTER-LIGAND FREE ENERGY PREDICTED BY IDOCK:   -3.61 KCAL/MOL
REMARK 924 INTRA-LIGAND FREE ENERGY PREDICTED BY IDOCK:   -0.28 KCAL/MOL
REMARK 927      BINDING AFFINITY PREDICTED BY RF-SCORE:    0.00 PKD
ROOT
HETATM    1  C   UNL     1      -9.543   7.151  67.116  1.00  0.00    -0.191 C  
HETATM    2  C   UNL     1      -9.270   8.487  66.481  1.00  0.00    -0.239 C  
HETATM    3  C   UNL     1      -7.902   8.701  65.894  1.00  0.00    -0.102 C  
HETATM    4  C   UNL     1     -10.226   9.438  66.467  1.00  0.00    -0.308 C  
ENDROOT
BRANCH   4   5
HETATM    5  C   UNL     1     -10.117  10.795  65.822  1.00  0.00    -0.320 C  
BRANCH   5   6
HETATM    6  C   UNL     1     -10.133  11.932  66.851  1.00  0.00    -0.229 C  
BRANCH   6   7
HETATM    7  C   UNL     1     -10.998  13.108  66.434  1.00  0.00    -0.305 C  
HETATM    8  C   UNL     1     -11.581  13.946  67.541  1.00  0.00    -0.392 C  
HETATM    9  C   UNL     1     -11.264  13.349  65.135  1.00  0.00    -0.321 C  
BRANCH   9  10
HETATM   10  C   UNL     1     -12.135  14.430  64.579  1.00  0.00    -0.481 C  
HETATM   11  O   UNL     1     -11.301  15.470  64.097  1.00  0.00    -0.720 OA 
HETATM   12  H   UNL     1     -11.854  16.157  63.744  1.00  0.00     0.000 HD 
ENDBRANCH   9  10
ENDBRANCH   6   7
ENDBRANCH   5   6
ENDBRANCH   4   5
TORSDOF 4
ENDMDL
MODEL      147
REMARK 921   NORMALIZED FREE ENERGY PREDICTED BY IDOCK:   -2.88 KCAL/MOL
REMARK 922        TOTAL FREE ENERGY PREDICTED BY IDOCK:   -3.87 KCAL/MOL
REMARK 923 INTER-LIGAND FREE ENERGY PREDICTED BY IDOCK:   -3.55 KCAL/MOL
REMARK 924 INTRA-LIGAND FREE ENERGY PREDICTED BY IDOCK:   -0.32 KCAL/MOL
REMARK 927      BINDING AFFINITY PREDICTED BY RF-SCORE:    0.00 PKD
ROOT
HETATM    1  C   UNL     1     -10.693  19.803  65.966  1.00  0.00    -0.493 C  
HETATM    2  C   UNL     1     -10.520  19.101  67.286  1.00  0.00    -0.549 C  
HETATM    3  C   UNL     1     -10.206  19.957  68.481  1.00  0.00    -0.529 C  
HETATM    4  C   UNL     1     -10.634  17.759  67.359  1.00  0.00    -0.341 C  
ENDROOT
BRANCH   4   5
HETATM    5  C   UNL     1     -10.543  16.930  68.613  1.00  0.00    -0.360 C  
BRANCH   5   6
HETATM    6  C   UNL     1      -9.092  16.701  69.056  1.00  0.00    -0.209 C  
BRANCH   6   7
HETATM    7  C   UNL     1      -8.456  15.476  68.424  1.00  0.00    -0.163 C  
HETATM    8  C   UNL     1      -7.211  15.704  67.607  1.00  0.00    -0.197 C  
HETATM    9  C   UNL     1      -9.017  14.257  68.553  1.00  0.00    -0.185 C  
BRANCH   9  10
HETATM   10  C   UNL     1      -8.538  12.977  67.947  1.00  0.00    -0.189 C  
HETATM   11  O   UNL     1      -7.981  12.178  68.979  1.00  0.00    -0.339 OA 
HETATM   12  H   UNL     1      -7.676  11.364  68.594  1.00  0.00     0.000 HD 
ENDBRANCH   9  10
ENDBRANCH   6   7
ENDBRANCH   5   6
ENDBRANCH   4   5
TORSDOF 4
ENDMDL
MODEL      148
REMARK 921   NORMALIZED FREE ENERGY PREDICTED BY IDOCK:   -2.86 KCAL/MOL
REMARK 922        TOTAL FREE ENERGY PREDICTED BY IDOCK:   -3.85 KCAL/MOL
REMARK 923 INTER-LIGAND FREE ENERGY PREDICTED BY IDOCK:   -3.58 KCAL/MOL
REMARK 924 INTRA-LIGAND FREE ENERGY PREDICTED BY IDOCK:   -0.27 KCAL/MOL
REMARK 927      BINDING AFFINITY PREDICTED BY RF-SCORE:    0.00 PKD
ROOT
HETATM    1  C   UNL     1      -9.821   9.475  66.376  1.00  0.00    -0.320 C  
HETATM    2  C   UNL     1      -9.626   9.629  67.860  1.00  0.00    -0.159 C  
HETATM    3  C   UNL     1      -8.238   9.409  68.395  1.00  0.00    -0.117 C  
HETATM    4  C   UNL     1     -10.673   9.938  68.652  1.00  0.00    -0.256 C  
ENDROOT
BRANCH   4   5
HETATM    5  C   UNL     1     -10.618  10.178  70.138  1.00  0.00    -0.337 C  
BRANCH   5   6
HETATM    6  C   UNL     1     -11.695   9.392  70.896  1.00  0.00    -0.378 C  
BRANCH   6   7
HETATM    7  C   UNL     1     -12.687  10.280  71.625  1.00  0.00    -0.561 C  
HETATM    8  C   UNL     1     -13.749   9.585  72.436  1.00  0.00    -0.408 C  
HETATM    9  C   UNL     1     -12.638  11.621  71.504  1.00  0.00    -0.341 C  
BRANCH   9  10
HETATM   10  C   UNL     1     -13.573  12.615  72.116  1.00  0.00    -0.413 C  
HETATM   11  O   UNL     1     -12.803  13.670  72.669  1.00  0.00    -0.289 OA 
HETATM   12  H   UNL     1     -13.397  14.301  73.058  1.00  0.00     0.000 HD 
ENDBRANCH   9  10
ENDBRANCH   6   7
ENDBRANCH   5   6
ENDBRANCH   4   5
TORSDOF 4
ENDMDL
MODEL      149
REMARK 921   NORMALIZED FREE ENERGY PREDICTED BY IDOCK:   -2.86 KCAL/MOL
REMARK 922        TOTAL FREE ENERGY PREDICTED BY IDOCK:   -3.85 KCAL/MOL
REMARK 923 INTER-LIGAND FREE ENERGY PREDICTED BY IDOCK:   -3.56 KCAL/MOL
REMARK 924 INTRA-LIGAND FREE ENERGY PREDICTED BY IDOCK:   -0.29 KCAL/MOL
REMARK 927      BINDING AFFINITY PREDICTED BY RF-SCORE:    0.00 PKD
ROOT
HETATM    1  C   UNL     1     -13.002  11.210  71.727  1.00  0.00    -0.526 C  
HETATM    2  C   UNL     1     -12.315  11.799  70.525  1.00  0.00    -0.387 C  
HETATM    3  C   UNL     1     -11.912  13.246  70.608  1.00  0.00    -0.268 C  
HETATM    4  C   UNL     1     -12.095  11.042  69.431  1.00  0.00    -0.389 C  
ENDROOT
BRANCH   4   5
HETATM    5  C   UNL     1     -11.373  11.478  68.183  1.00  0.00    -0.367 C  
BRANCH   5   6
HETATM    6  C   UNL     1      -9.925  10.972  68.141  1.00  0.00    -0.190 C  
BRANCH   6   7
HETATM    7  C   UNL     1      -9.819   9.463  68.017  1.00  0.00    -0.191 C  
HETATM    8  C   UNL     1      -8.641   8.810  68.691  1.00  0.00    -0.134 C  
HETATM    9  C   UNL     1     -10.714   8.760  67.295  1.00  0.00    -0.217 C  
BRANCH   9  10
HETATM   10  C   UNL     1     -10.708   7.287  67.041  1.00  0.00    -0.336 C  
HETATM   11  O   UNL     1     -11.523   6.663  68.020  1.00  0.00    -0.561 OA 
HETATM   12  H   UNL     1     -11.519   5.726  67.858  1.00  0.00     0.000 HD 
ENDBRANCH   9  10
ENDBRANCH   6   7
ENDBRANCH   5   6
ENDBRANCH   4   5
TORSDOF 4
ENDMDL
MODEL      150
REMARK 921   NORMALIZED FREE ENERGY PREDICTED BY IDOCK:   -2.86 KCAL/MOL
REMARK 922        TOTAL FREE ENERGY PREDICTED BY IDOCK:   -3.85 KCAL/MOL
REMARK 923 INTER-LIGAND FREE ENERGY PREDICTED BY IDOCK:   -3.56 KCAL/MOL
REMARK 924 INTRA-LIGAND FREE ENERGY PREDICTED BY IDOCK:   -0.29 KCAL/MOL
REMARK 927      BINDING AFFINITY PREDICTED BY RF-SCORE:    0.00 PKD
ROOT
HETATM    1  C   UNL     1     -12.283  11.235  70.417  1.00  0.00    -0.453 C  
HETATM    2  C   UNL     1     -12.184  10.021  71.299  1.00  0.00    -0.498 C  
HETATM    3  C   UNL     1     -13.435   9.586  72.010  1.00  0.00    -0.522 C  
HETATM    4  C   UNL     1     -11.005   9.379  71.437  1.00  0.00    -0.443 C  
ENDROOT
BRANCH   4   5
HETATM    5  C   UNL     1     -10.769   8.125  72.237  1.00  0.00    -0.381 C  
BRANCH   5   6
HETATM    6  C   UNL     1      -9.944   7.088  71.464  1.00  0.00    -0.187 C  
BRANCH   6   7
HETATM    7  C   UNL     1     -10.270   5.655  71.845  1.00  0.00    -0.244 C  
HETATM    8  C   UNL     1     -11.389   5.455  72.834  1.00  0.00    -0.365 C  
HETATM    9  C   UNL     1      -9.553   4.625  71.354  1.00  0.00    -0.230 C  
BRANCH   9  10
HETATM   10  C   UNL     1      -9.723   3.175  71.678  1.00  0.00    -0.164 C  
HETATM   11  O   UNL     1      -8.672   2.788  72.549  1.00  0.00    -0.073 OA 
HETATM   12  H   UNL     1      -8.780   1.866  72.755  1.00  0.00     0.000 HD 
ENDBRANCH   9  10
ENDBRANCH   6   7
ENDBRANCH   5   6
ENDBRANCH   4   5
TORSDOF 4
ENDMDL
MODEL      151
REMARK 921   NORMALIZED FREE ENERGY PREDICTED BY IDOCK:   -2.84 KCAL/MOL
REMARK 922        TOTAL FREE ENERGY PREDICTED BY IDOCK:   -3.82 KCAL/MOL
REMARK 923 INTER-LIGAND FREE ENERGY PREDICTED BY IDOCK:   -3.54 KCAL/MOL
REMARK 924 INTRA-LIGAND FREE ENERGY PREDICTED BY IDOCK:   -0.28 KCAL/MOL
REMARK 927      BINDING AFFINITY PREDICTED BY RF-SCORE:    0.00 PKD
ROOT
HETATM    1  C   UNL     1      -7.973   6.444  67.898  1.00  0.00    -0.111 C  
HETATM    2  C   UNL     1      -8.739   7.126  66.797  1.00  0.00    -0.128 C  
HETATM    3  C   UNL     1     -10.229   6.925  66.773  1.00  0.00    -0.276 C  
HETATM    4  C   UNL     1      -8.088   7.867  65.877  1.00  0.00    -0.119 C  
ENDROOT
BRANCH   4   5
HETATM    5  C   UNL     1      -8.724   8.649  64.758  1.00  0.00    -0.099 C  
BRANCH   5   6
HETATM    6  C   UNL     1      -9.164  10.049  65.202  1.00  0.00    -0.273 C  
BRANCH   6   7
HETATM    7  C   UNL     1      -9.917  10.813  64.127  1.00  0.00    -0.405 C  
HETATM    8  C   UNL     1      -9.317  10.805  62.745  1.00  0.00    -0.352 C  
HETATM    9  C   UNL     1     -11.038  11.500  64.419  1.00  0.00    -0.359 C  
BRANCH   9  10
HETATM   10  C   UNL     1     -11.852  12.335  63.483  1.00  0.00    -0.514 C  
HETATM   11  O   UNL     1     -12.804  11.496  62.850  1.00  0.00    -0.901 OA 
HETATM   12  H   UNL     1     -13.321  12.026  62.255  1.00  0.00     0.000 HD 
ENDBRANCH   9  10
ENDBRANCH   6   7
ENDBRANCH   5   6
ENDBRANCH   4   5
TORSDOF 4
ENDMDL
MODEL      152
REMARK 921   NORMALIZED FREE ENERGY PREDICTED BY IDOCK:   -2.83 KCAL/MOL
REMARK 922        TOTAL FREE ENERGY PREDICTED BY IDOCK:   -3.81 KCAL/MOL
REMARK 923 INTER-LIGAND FREE ENERGY PREDICTED BY IDOCK:   -3.20 KCAL/MOL
REMARK 924 INTRA-LIGAND FREE ENERGY PREDICTED BY IDOCK:   -0.61 KCAL/MOL
REMARK 927      BINDING AFFINITY PREDICTED BY RF-SCORE:    0.00 PKD
ROOT
HETATM    1  C   UNL     1      -7.243  12.747  68.285  1.00  0.00    -0.114 C  
HETATM    2  C   UNL     1      -7.948  13.830  67.514  1.00  0.00    -0.190 C  
HETATM    3  C   UNL     1      -7.245  15.154  67.394  1.00  0.00    -0.231 C  
HETATM    4  C   UNL     1      -9.164  13.599  66.978  1.00  0.00    -0.254 C  
ENDROOT
BRANCH   4   5
HETATM    5  C   UNL     1      -9.960  14.563  66.138  1.00  0.00    -0.330 C  
BRANCH   5   6
HETATM    6  C   UNL     1     -11.112  15.205  66.922  1.00  0.00    -0.314 C  
BRANCH   6   7
HETATM    7  C   UNL     1     -10.747  16.543  67.539  1.00  0.00    -0.283 C  
HETATM    8  C   UNL     1     -10.719  16.609  69.044  1.00  0.00    -0.343 C  
HETATM    9  C   UNL     1     -10.512  17.623  66.768  1.00  0.00    -0.289 C  
BRANCH   9  10
HETATM   10  C   UNL     1     -10.196  19.009  67.232  1.00  0.00    -0.399 C  
HETATM   11  O   UNL     1     -10.276  19.881  66.116  1.00  0.00    -0.456 OA 
HETATM   12  H   UNL     1     -10.076  20.762  66.411  1.00  0.00     0.000 HD 
ENDBRANCH   9  10
ENDBRANCH   6   7
ENDBRANCH   5   6
ENDBRANCH   4   5
TORSDOF 4
ENDMDL
MODEL      153
REMARK 921   NORMALIZED FREE ENERGY PREDICTED BY IDOCK:   -2.82 KCAL/MOL
REMARK 922        TOTAL FREE ENERGY PREDICTED BY IDOCK:   -3.80 KCAL/MOL
REMARK 923 INTER-LIGAND FREE ENERGY PREDICTED BY IDOCK:   -3.56 KCAL/MOL
REMARK 924 INTRA-LIGAND FREE ENERGY PREDICTED BY IDOCK:   -0.24 KCAL/MOL
REMARK 927      BINDING AFFINITY PREDICTED BY RF-SCORE:    0.00 PKD
ROOT
HETATM    1  C   UNL     1     -12.226  12.425  63.459  1.00  0.00    -0.661 C  
HETATM    2  C   UNL     1     -11.810  13.344  64.574  1.00  0.00    -0.440 C  
HETATM    3  C   UNL     1     -12.905  13.971  65.392  1.00  0.00    -0.442 C  
HETATM    4  C   UNL     1     -10.502  13.588  64.798  1.00  0.00    -0.430 C  
ENDROOT
BRANCH   4   5
HETATM    5  C   UNL     1      -9.937  14.437  65.907  1.00  0.00    -0.350 C  
BRANCH   5   6
HETATM    6  C   UNL     1      -9.997  13.733  67.268  1.00  0.00    -0.239 C  
BRANCH   6   7
HETATM    7  C   UNL     1      -8.654  13.192  67.725  1.00  0.00    -0.188 C  
HETATM    8  C   UNL     1      -8.296  11.800  67.273  1.00  0.00    -0.162 C  
HETATM    9  C   UNL     1      -7.854  13.912  68.536  1.00  0.00    -0.139 C  
BRANCH   9  10
HETATM   10  C   UNL     1      -6.537  13.491  69.106  1.00  0.00    -0.109 C  
HETATM   11  O   UNL     1      -6.538  13.786  70.494  1.00  0.00    -0.402 OA 
HETATM   12  H   UNL     1      -5.701  13.519  70.856  1.00  0.00     0.000 HD 
ENDBRANCH   9  10
ENDBRANCH   6   7
ENDBRANCH   5   6
ENDBRANCH   4   5
TORSDOF 4
ENDMDL
MODEL      154
REMARK 921   NORMALIZED FREE ENERGY PREDICTED BY IDOCK:   -2.80 KCAL/MOL
REMARK 922        TOTAL FREE ENERGY PREDICTED BY IDOCK:   -3.77 KCAL/MOL
REMARK 923 INTER-LIGAND FREE ENERGY PREDICTED BY IDOCK:   -3.27 KCAL/MOL
REMARK 924 INTRA-LIGAND FREE ENERGY PREDICTED BY IDOCK:   -0.50 KCAL/MOL
REMARK 927      BINDING AFFINITY PREDICTED BY RF-SCORE:    0.00 PKD
ROOT
HETATM    1  C   UNL     1      -7.599  14.865  69.365  1.00  0.00    -0.162 C  
HETATM    2  C   UNL     1      -8.343  15.735  68.389  1.00  0.00    -0.164 C  
HETATM    3  C   UNL     1      -9.757  16.106  68.741  1.00  0.00    -0.233 C  
HETATM    4  C   UNL     1      -7.745  16.137  67.249  1.00  0.00    -0.212 C  
ENDROOT
BRANCH   4   5
HETATM    5  C   UNL     1      -8.343  17.050  66.210  1.00  0.00    -0.308 C  
BRANCH   5   6
HETATM    6  C   UNL     1      -8.071  18.530  66.510  1.00  0.00    -0.299 C  
BRANCH   6   7
HETATM    7  C   UNL     1      -9.297  19.278  67.005  1.00  0.00    -0.373 C  
HETATM    8  C   UNL     1     -10.332  19.639  65.973  1.00  0.00    -0.620 C  
HETATM    9  C   UNL     1      -9.415  19.638  68.298  1.00  0.00    -0.453 C  
BRANCH   9  10
HETATM   10  C   UNL     1     -10.531  20.418  68.916  1.00  0.00     0.226 C  
HETATM   11  O   UNL     1     -10.454  20.266  70.325  1.00  0.00    -0.673 OA 
HETATM   12  H   UNL     1     -11.163  20.761  70.718  1.00  0.00     0.000 HD 
ENDBRANCH   9  10
ENDBRANCH   6   7
ENDBRANCH   5   6
ENDBRANCH   4   5
TORSDOF 4
ENDMDL
MODEL      155
REMARK 921   NORMALIZED FREE ENERGY PREDICTED BY IDOCK:   -2.79 KCAL/MOL
REMARK 922        TOTAL FREE ENERGY PREDICTED BY IDOCK:   -3.75 KCAL/MOL
REMARK 923 INTER-LIGAND FREE ENERGY PREDICTED BY IDOCK:   -3.52 KCAL/MOL
REMARK 924 INTRA-LIGAND FREE ENERGY PREDICTED BY IDOCK:   -0.23 KCAL/MOL
REMARK 927      BINDING AFFINITY PREDICTED BY RF-SCORE:    0.00 PKD
ROOT
HETATM    1  C   UNL     1     -10.017   8.090  72.901  1.00  0.00    -0.360 C  
HETATM    2  C   UNL     1     -10.508   8.854  71.701  1.00  0.00    -0.408 C  
HETATM    3  C   UNL     1     -11.988   9.099  71.604  1.00  0.00    -0.437 C  
HETATM    4  C   UNL     1      -9.635   9.275  70.763  1.00  0.00    -0.341 C  
ENDROOT
BRANCH   4   5
HETATM    5  C   UNL     1      -9.972  10.094  69.545  1.00  0.00    -0.257 C  
BRANCH   5   6
HETATM    6  C   UNL     1      -9.666   9.349  68.239  1.00  0.00    -0.162 C  
BRANCH   6   7
HETATM    7  C   UNL     1      -9.616  10.259  67.025  1.00  0.00    -0.205 C  
HETATM    8  C   UNL     1      -9.142  11.670  67.256  1.00  0.00    -0.167 C  
HETATM    9  C   UNL     1     -10.027   9.828  65.817  1.00  0.00    -0.349 C  
BRANCH   9  10
HETATM   10  C   UNL     1     -10.085  10.621  64.550  1.00  0.00    -0.353 C  
HETATM   11  O   UNL     1      -9.590   9.812  63.495  1.00  0.00    -0.484 OA 
HETATM   12  H   UNL     1      -9.626  10.316  62.690  1.00  0.00     0.000 HD 
ENDBRANCH   9  10
ENDBRANCH   6   7
ENDBRANCH   5   6
ENDBRANCH   4   5
TORSDOF 4
ENDMDL
MODEL      156
REMARK 921   NORMALIZED FREE ENERGY PREDICTED BY IDOCK:   -2.77 KCAL/MOL
REMARK 922        TOTAL FREE ENERGY PREDICTED BY IDOCK:   -3.74 KCAL/MOL
REMARK 923 INTER-LIGAND FREE ENERGY PREDICTED BY IDOCK:   -3.44 KCAL/MOL
REMARK 924 INTRA-LIGAND FREE ENERGY PREDICTED BY IDOCK:   -0.30 KCAL/MOL
REMARK 927      BINDING AFFINITY PREDICTED BY RF-SCORE:    0.00 PKD
ROOT
HETATM    1  C   UNL     1     -10.046  13.913  66.016  1.00  0.00    -0.324 C  
HETATM    2  C   UNL     1     -10.786  12.831  66.754  1.00  0.00    -0.278 C  
HETATM    3  C   UNL     1     -12.035  13.233  67.488  1.00  0.00    -0.371 C  
HETATM    4  C   UNL     1     -10.317  11.566  66.751  1.00  0.00    -0.262 C  
ENDROOT
BRANCH   4   5
HETATM    5  C   UNL     1     -10.977  10.375  67.394  1.00  0.00    -0.335 C  
BRANCH   5   6
HETATM    6  C   UNL     1     -10.060   9.677  68.406  1.00  0.00    -0.199 C  
BRANCH   6   7
HETATM    7  C   UNL     1     -10.809   9.079  69.584  1.00  0.00    -0.196 C  
HETATM    8  C   UNL     1     -11.282  10.038  70.644  1.00  0.00    -0.425 C  
HETATM    9  C   UNL     1     -10.990   7.748  69.687  1.00  0.00    -0.128 C  
BRANCH   9  10
HETATM   10  C   UNL     1     -11.657   7.014  70.807  1.00  0.00    -0.338 C  
HETATM   11  O   UNL     1     -13.061   7.118  70.633  1.00  0.00    -0.582 OA 
HETATM   12  H   UNL     1     -13.485   6.652  71.345  1.00  0.00     0.000 HD 
ENDBRANCH   9  10
ENDBRANCH   6   7
ENDBRANCH   5   6
ENDBRANCH   4   5
TORSDOF 4
ENDMDL
MODEL      157
REMARK 921   NORMALIZED FREE ENERGY PREDICTED BY IDOCK:   -2.77 KCAL/MOL
REMARK 922        TOTAL FREE ENERGY PREDICTED BY IDOCK:   -3.73 KCAL/MOL
REMARK 923 INTER-LIGAND FREE ENERGY PREDICTED BY IDOCK:   -3.51 KCAL/MOL
REMARK 924 INTRA-LIGAND FREE ENERGY PREDICTED BY IDOCK:   -0.23 KCAL/MOL
REMARK 927      BINDING AFFINITY PREDICTED BY RF-SCORE:    0.00 PKD
ROOT
HETATM    1  C   UNL     1      -8.177   7.861  74.058  1.00  0.00    -0.294 C  
HETATM    2  C   UNL     1      -9.536   7.649  73.449  1.00  0.00    -0.330 C  
HETATM    3  C   UNL     1     -10.386   6.554  74.033  1.00  0.00    -0.362 C  
HETATM    4  C   UNL     1      -9.941   8.413  72.414  1.00  0.00    -0.380 C  
ENDROOT
BRANCH   4   5
HETATM    5  C   UNL     1     -11.288   8.354  71.743  1.00  0.00    -0.366 C  
BRANCH   5   6
HETATM    6  C   UNL     1     -11.624   9.649  70.994  1.00  0.00    -0.436 C  
BRANCH   6   7
HETATM    7  C   UNL     1     -10.947   9.752  69.639  1.00  0.00    -0.269 C  
HETATM    8  C   UNL     1     -10.791  11.136  69.063  1.00  0.00    -0.276 C  
HETATM    9  C   UNL     1     -10.554   8.649  68.972  1.00  0.00    -0.179 C  
BRANCH   9  10
HETATM   10  C   UNL     1      -9.926   8.592  67.617  1.00  0.00    -0.194 C  
HETATM   11  O   UNL     1     -10.737   7.779  66.784  1.00  0.00    -0.421 OA 
HETATM   12  H   UNL     1     -10.338   7.743  65.922  1.00  0.00     0.000 HD 
ENDBRANCH   9  10
ENDBRANCH   6   7
ENDBRANCH   5   6
ENDBRANCH   4   5
TORSDOF 4
ENDMDL
MODEL      158
REMARK 921   NORMALIZED FREE ENERGY PREDICTED BY IDOCK:   -2.77 KCAL/MOL
REMARK 922        TOTAL FREE ENERGY PREDICTED BY IDOCK:   -3.73 KCAL/MOL
REMARK 923 INTER-LIGAND FREE ENERGY PREDICTED BY IDOCK:   -3.26 KCAL/MOL
REMARK 924 INTRA-LIGAND FREE ENERGY PREDICTED BY IDOCK:   -0.47 KCAL/MOL
REMARK 927      BINDING AFFINITY PREDICTED BY RF-SCORE:    0.00 PKD
ROOT
HETATM    1  C   UNL     1     -10.642   4.569  73.734  1.00  0.00    -0.319 C  
HETATM    2  C   UNL     1     -10.862   5.286  72.430  1.00  0.00    -0.283 C  
HETATM    3  C   UNL     1      -9.955   4.924  71.287  1.00  0.00    -0.271 C  
HETATM    4  C   UNL     1     -11.831   6.219  72.325  1.00  0.00    -0.326 C  
ENDROOT
BRANCH   4   5
HETATM    5  C   UNL     1     -12.203   6.974  71.076  1.00  0.00    -0.419 C  
BRANCH   5   6
HETATM    6  C   UNL     1     -11.715   8.428  71.106  1.00  0.00    -0.315 C  
BRANCH   6   7
HETATM    7  C   UNL     1     -10.927   8.824  69.871  1.00  0.00    -0.184 C  
HETATM    8  C   UNL     1     -10.664  10.295  69.678  1.00  0.00    -0.299 C  
HETATM    9  C   UNL     1     -10.531   7.900  68.974  1.00  0.00    -0.210 C  
BRANCH   9  10
HETATM   10  C   UNL     1      -9.798   8.145  67.693  1.00  0.00    -0.169 C  
HETATM   11  O   UNL     1     -10.632   7.741  66.619  1.00  0.00    -0.467 OA 
HETATM   12  H   UNL     1     -10.167   7.896  65.805  1.00  0.00     0.000 HD 
ENDBRANCH   9  10
ENDBRANCH   6   7
ENDBRANCH   5   6
ENDBRANCH   4   5
TORSDOF 4
ENDMDL
MODEL      159
REMARK 921   NORMALIZED FREE ENERGY PREDICTED BY IDOCK:   -2.76 KCAL/MOL
REMARK 922        TOTAL FREE ENERGY PREDICTED BY IDOCK:   -3.73 KCAL/MOL
REMARK 923 INTER-LIGAND FREE ENERGY PREDICTED BY IDOCK:   -3.51 KCAL/MOL
REMARK 924 INTRA-LIGAND FREE ENERGY PREDICTED BY IDOCK:   -0.22 KCAL/MOL
REMARK 927      BINDING AFFINITY PREDICTED BY RF-SCORE:    0.00 PKD
ROOT
HETATM    1  C   UNL     1      -9.650   4.093  65.036  1.00  0.00    -0.180 C  
HETATM    2  C   UNL     1      -9.651   5.252  65.994  1.00  0.00    -0.166 C  
HETATM    3  C   UNL     1      -8.543   6.259  65.853  1.00  0.00    -0.150 C  
HETATM    4  C   UNL     1     -10.609   5.349  66.939  1.00  0.00    -0.320 C  
ENDROOT
BRANCH   4   5
HETATM    5  C   UNL     1     -10.768   6.476  67.925  1.00  0.00    -0.357 C  
BRANCH   5   6
HETATM    6  C   UNL     1     -11.123   5.975  69.331  1.00  0.00    -0.445 C  
BRANCH   6   7
HETATM    7  C   UNL     1     -10.875   7.006  70.417  1.00  0.00    -0.283 C  
HETATM    8  C   UNL     1      -9.447   7.435  70.630  1.00  0.00    -0.164 C  
HETATM    9  C   UNL     1     -11.885   7.468  71.180  1.00  0.00    -0.324 C  
BRANCH   9  10
HETATM   10  C   UNL     1     -11.787   8.438  72.314  1.00  0.00    -0.389 C  
HETATM   11  O   UNL     1     -13.040   8.477  72.977  1.00  0.00    -0.729 OA 
HETATM   12  H   UNL     1     -12.977   9.093  73.698  1.00  0.00     0.000 HD 
ENDBRANCH   9  10
ENDBRANCH   6   7
ENDBRANCH   5   6
ENDBRANCH   4   5
TORSDOF 4
ENDMDL
MODEL      160
REMARK 921   NORMALIZED FREE ENERGY PREDICTED BY IDOCK:   -2.76 KCAL/MOL
REMARK 922        TOTAL FREE ENERGY PREDICTED BY IDOCK:   -3.72 KCAL/MOL
REMARK 923 INTER-LIGAND FREE ENERGY PREDICTED BY IDOCK:   -3.41 KCAL/MOL
REMARK 924 INTRA-LIGAND FREE ENERGY PREDICTED BY IDOCK:   -0.31 KCAL/MOL
REMARK 927      BINDING AFFINITY PREDICTED BY RF-SCORE:    0.00 PKD
ROOT
HETATM    1  C   UNL     1      -7.695   6.675  63.965  1.00  0.00    -0.112 C  
HETATM    2  C   UNL     1      -8.069   7.784  64.910  1.00  0.00    -0.136 C  
HETATM    3  C   UNL     1      -8.111   7.451  66.375  1.00  0.00    -0.118 C  
HETATM    4  C   UNL     1      -8.361   9.011  64.432  1.00  0.00    -0.183 C  
ENDROOT
BRANCH   4   5
HETATM    5  C   UNL     1      -8.695  10.226  65.257  1.00  0.00    -0.186 C  
BRANCH   5   6
HETATM    6  C   UNL     1     -10.205  10.389  65.471  1.00  0.00    -0.316 C  
BRANCH   6   7
HETATM    7  C   UNL     1     -10.747  11.710  64.957  1.00  0.00    -0.351 C  
HETATM    8  C   UNL     1     -10.576  11.985  63.486  1.00  0.00    -0.514 C  
HETATM    9  C   UNL     1     -11.305  12.606  65.795  1.00  0.00    -0.370 C  
BRANCH   9  10
HETATM   10  C   UNL     1     -11.831  13.961  65.444  1.00  0.00    -0.355 C  
HETATM   11  O   UNL     1     -13.219  13.844  65.176  1.00  0.00    -0.768 OA 
HETATM   12  H   UNL     1     -13.553  14.705  64.953  1.00  0.00     0.000 HD 
ENDBRANCH   9  10
ENDBRANCH   6   7
ENDBRANCH   5   6
ENDBRANCH   4   5
TORSDOF 4
ENDMDL
MODEL      161
REMARK 921   NORMALIZED FREE ENERGY PREDICTED BY IDOCK:   -2.76 KCAL/MOL
REMARK 922        TOTAL FREE ENERGY PREDICTED BY IDOCK:   -3.72 KCAL/MOL
REMARK 923 INTER-LIGAND FREE ENERGY PREDICTED BY IDOCK:   -3.41 KCAL/MOL
REMARK 924 INTRA-LIGAND FREE ENERGY PREDICTED BY IDOCK:   -0.31 KCAL/MOL
REMARK 927      BINDING AFFINITY PREDICTED BY RF-SCORE:    0.00 PKD
ROOT
HETATM    1  C   UNL     1      -7.463  20.300  67.718  1.00  0.00    -0.319 C  
HETATM    2  C   UNL     1      -7.811  19.269  66.679  1.00  0.00    -0.284 C  
HETATM    3  C   UNL     1      -6.893  19.155  65.493  1.00  0.00    -0.280 C  
HETATM    4  C   UNL     1      -8.912  18.505  66.825  1.00  0.00    -0.293 C  
ENDROOT
BRANCH   4   5
HETATM    5  C   UNL     1      -9.353  17.401  65.900  1.00  0.00     0.008 C  
BRANCH   5   6
HETATM    6  C   UNL     1      -8.682  16.062  66.229  1.00  0.00    -0.372 C  
BRANCH   6   7
HETATM    7  C   UNL     1      -9.660  14.995  66.687  1.00  0.00    -0.281 C  
HETATM    8  C   UNL     1      -9.067  13.736  67.263  1.00  0.00    -0.232 C  
HETATM    9  C   UNL     1     -10.989  15.159  66.534  1.00  0.00    -0.318 C  
BRANCH   9  10
HETATM   10  C   UNL     1     -12.063  14.180  66.886  1.00  0.00    -0.432 C  
HETATM   11  O   UNL     1     -12.398  14.360  68.253  1.00  0.00    -0.604 OA 
HETATM   12  H   UNL     1     -13.081  13.738  68.477  1.00  0.00     0.000 HD 
ENDBRANCH   9  10
ENDBRANCH   6   7
ENDBRANCH   5   6
ENDBRANCH   4   5
TORSDOF 4
ENDMDL
MODEL      162
REMARK 921   NORMALIZED FREE ENERGY PREDICTED BY IDOCK:   -2.75 KCAL/MOL
REMARK 922        TOTAL FREE ENERGY PREDICTED BY IDOCK:   -3.71 KCAL/MOL
REMARK 923 INTER-LIGAND FREE ENERGY PREDICTED BY IDOCK:   -3.49 KCAL/MOL
REMARK 924 INTRA-LIGAND FREE ENERGY PREDICTED BY IDOCK:   -0.22 KCAL/MOL
REMARK 927      BINDING AFFINITY PREDICTED BY RF-SCORE:    0.00 PKD
ROOT
HETATM    1  C   UNL     1      -7.414   9.329  66.527  1.00  0.00    -0.093 C  
HETATM    2  C   UNL     1      -8.780   9.613  67.090  1.00  0.00    -0.137 C  
HETATM    3  C   UNL     1      -9.600  10.667  66.399  1.00  0.00    -0.230 C  
HETATM    4  C   UNL     1      -9.217   8.946  68.177  1.00  0.00    -0.145 C  
ENDROOT
BRANCH   4   5
HETATM    5  C   UNL     1     -10.574   9.083  68.815  1.00  0.00    -0.196 C  
BRANCH   5   6
HETATM    6  C   UNL     1     -10.490   9.566  70.268  1.00  0.00    -0.319 C  
BRANCH   6   7
HETATM    7  C   UNL     1     -11.840   9.922  70.863  1.00  0.00    -0.443 C  
HETATM    8  C   UNL     1     -12.308  11.342  70.678  1.00  0.00    -0.466 C  
HETATM    9  C   UNL     1     -12.552   9.017  71.563  1.00  0.00    -0.400 C  
BRANCH   9  10
HETATM   10  C   UNL     1     -13.863   9.237  72.247  1.00  0.00    -0.426 C  
HETATM   11  O   UNL     1     -14.378   7.974  72.638  1.00  0.00    -0.632 OA 
HETATM   12  H   UNL     1     -15.212   8.114  73.073  1.00  0.00     0.000 HD 
ENDBRANCH   9  10
ENDBRANCH   6   7
ENDBRANCH   5   6
ENDBRANCH   4   5
TORSDOF 4
ENDMDL
MODEL      163
REMARK 921   NORMALIZED FREE ENERGY PREDICTED BY IDOCK:   -2.74 KCAL/MOL
REMARK 922        TOTAL FREE ENERGY PREDICTED BY IDOCK:   -3.69 KCAL/MOL
REMARK 923 INTER-LIGAND FREE ENERGY PREDICTED BY IDOCK:   -3.51 KCAL/MOL
REMARK 924 INTRA-LIGAND FREE ENERGY PREDICTED BY IDOCK:   -0.18 KCAL/MOL
REMARK 927      BINDING AFFINITY PREDICTED BY RF-SCORE:    0.00 PKD
ROOT
HETATM    1  C   UNL     1     -10.454   4.934  66.484  1.00  0.00    -0.299 C  
HETATM    2  C   UNL     1     -10.514   6.213  67.274  1.00  0.00    -0.317 C  
HETATM    3  C   UNL     1     -10.682   6.092  68.763  1.00  0.00    -0.375 C  
HETATM    4  C   UNL     1     -10.432   7.403  66.643  1.00  0.00    -0.201 C  
ENDROOT
BRANCH   4   5
HETATM    5  C   UNL     1     -10.422   8.756  67.304  1.00  0.00    -0.353 C  
BRANCH   5   6
HETATM    6  C   UNL     1     -10.123   9.887  66.312  1.00  0.00    -0.311 C  
BRANCH   6   7
HETATM    7  C   UNL     1     -10.401  11.269  66.874  1.00  0.00    -0.272 C  
HETATM    8  C   UNL     1      -9.522  11.728  68.008  1.00  0.00    -0.188 C  
HETATM    9  C   UNL     1     -11.418  12.018  66.406  1.00  0.00    -0.417 C  
BRANCH   9  10
HETATM   10  C   UNL     1     -11.843  13.366  66.893  1.00  0.00    -0.403 C  
HETATM   11  O   UNL     1     -11.922  14.239  65.778  1.00  0.00    -0.375 OA 
HETATM   12  H   UNL     1     -12.192  15.096  66.087  1.00  0.00     0.000 HD 
ENDBRANCH   9  10
ENDBRANCH   6   7
ENDBRANCH   5   6
ENDBRANCH   4   5
TORSDOF 4
ENDMDL
MODEL      164
REMARK 921   NORMALIZED FREE ENERGY PREDICTED BY IDOCK:   -2.74 KCAL/MOL
REMARK 922        TOTAL FREE ENERGY PREDICTED BY IDOCK:   -3.69 KCAL/MOL
REMARK 923 INTER-LIGAND FREE ENERGY PREDICTED BY IDOCK:   -3.46 KCAL/MOL
REMARK 924 INTRA-LIGAND FREE ENERGY PREDICTED BY IDOCK:   -0.23 KCAL/MOL
REMARK 927      BINDING AFFINITY PREDICTED BY RF-SCORE:    0.00 PKD
ROOT
HETATM    1  C   UNL     1     -13.031  10.696  71.342  1.00  0.00    -0.545 C  
HETATM    2  C   UNL     1     -12.890   9.256  71.754  1.00  0.00    -0.461 C  
HETATM    3  C   UNL     1     -14.100   8.377  71.601  1.00  0.00    -0.487 C  
HETATM    4  C   UNL     1     -11.719   8.805  72.250  1.00  0.00    -0.398 C  
ENDROOT
BRANCH   4   5
HETATM    5  C   UNL     1     -11.415   7.385  72.649  1.00  0.00    -0.337 C  
BRANCH   5   6
HETATM    6  C   UNL     1      -9.988   6.966  72.270  1.00  0.00    -0.176 C  
BRANCH   6   7
HETATM    7  C   UNL     1      -9.444   7.708  71.062  1.00  0.00    -0.164 C  
HETATM    8  C   UNL     1      -9.927   7.249  69.712  1.00  0.00    -0.183 C  
HETATM    9  C   UNL     1      -8.537   8.694  71.204  1.00  0.00    -0.224 C  
BRANCH   9  10
HETATM   10  C   UNL     1      -7.876   9.473  70.112  1.00  0.00    -0.160 C  
HETATM   11  O   UNL     1      -7.415  10.699  70.655  1.00  0.00    -0.321 OA 
HETATM   12  H   UNL     1      -6.996  11.194  69.961  1.00  0.00     0.000 HD 
ENDBRANCH   9  10
ENDBRANCH   6   7
ENDBRANCH   5   6
ENDBRANCH   4   5
TORSDOF 4
ENDMDL
MODEL      165
REMARK 921   NORMALIZED FREE ENERGY PREDICTED BY IDOCK:   -2.73 KCAL/MOL
REMARK 922        TOTAL FREE ENERGY PREDICTED BY IDOCK:   -3.68 KCAL/MOL
REMARK 923 INTER-LIGAND FREE ENERGY PREDICTED BY IDOCK:   -3.38 KCAL/MOL
REMARK 924 INTRA-LIGAND FREE ENERGY PREDICTED BY IDOCK:   -0.30 KCAL/MOL
REMARK 927      BINDING AFFINITY PREDICTED BY RF-SCORE:    0.00 PKD
ROOT
HETATM    1  C   UNL     1      -9.584   4.486  70.686  1.00  0.00    -0.260 C  
HETATM    2  C   UNL     1      -9.474   5.796  69.954  1.00  0.00    -0.185 C  
HETATM    3  C   UNL     1      -8.100   6.225  69.521  1.00  0.00    -0.117 C  
HETATM    4  C   UNL     1     -10.577   6.538  69.725  1.00  0.00    -0.284 C  
ENDROOT
BRANCH   4   5
HETATM    5  C   UNL     1     -10.628   7.835  68.960  1.00  0.00    -0.179 C  
BRANCH   5   6
HETATM    6  C   UNL     1     -10.152   9.026  69.801  1.00  0.00    -0.209 C  
BRANCH   6   7
HETATM    7  C   UNL     1     -10.958   9.224  71.072  1.00  0.00    -0.390 C  
HETATM    8  C   UNL     1     -10.385   8.638  72.336  1.00  0.00    -0.317 C  
HETATM    9  C   UNL     1     -12.150   9.852  71.048  1.00  0.00    -0.450 C  
BRANCH   9  10
HETATM   10  C   UNL     1     -13.075  10.073  72.203  1.00  0.00    -0.386 C  
HETATM   11  O   UNL     1     -13.456  11.440  72.212  1.00  0.00    -0.601 OA 
HETATM   12  H   UNL     1     -14.044  11.580  72.946  1.00  0.00     0.000 HD 
ENDBRANCH   9  10
ENDBRANCH   6   7
ENDBRANCH   5   6
ENDBRANCH   4   5
TORSDOF 4
ENDMDL
MODEL      166
REMARK 921   NORMALIZED FREE ENERGY PREDICTED BY IDOCK:   -2.72 KCAL/MOL
REMARK 922        TOTAL FREE ENERGY PREDICTED BY IDOCK:   -3.68 KCAL/MOL
REMARK 923 INTER-LIGAND FREE ENERGY PREDICTED BY IDOCK:   -3.66 KCAL/MOL
REMARK 924 INTRA-LIGAND FREE ENERGY PREDICTED BY IDOCK:   -0.01 KCAL/MOL
REMARK 927      BINDING AFFINITY PREDICTED BY RF-SCORE:    0.00 PKD
ROOT
HETATM    1  C   UNL     1      -9.236  15.637  68.893  1.00  0.00    -0.226 C  
HETATM    2  C   UNL     1     -10.437  14.752  69.090  1.00  0.00    -0.243 C  
HETATM    3  C   UNL     1     -11.684  15.399  69.627  1.00  0.00    -0.355 C  
HETATM    4  C   UNL     1     -10.364  13.437  68.802  1.00  0.00    -0.164 C  
ENDROOT
BRANCH   4   5
HETATM    5  C   UNL     1     -11.494  12.446  68.895  1.00  0.00    -0.355 C  
BRANCH   5   6
HETATM    6  C   UNL     1     -12.020  12.294  70.328  1.00  0.00    -0.373 C  
BRANCH   6   7
HETATM    7  C   UNL     1     -12.016  10.858  70.821  1.00  0.00    -0.449 C  
HETATM    8  C   UNL     1     -13.131  10.459  71.752  1.00  0.00    -0.567 C  
HETATM    9  C   UNL     1     -11.030  10.007  70.475  1.00  0.00    -0.392 C  
BRANCH   9  10
HETATM   10  C   UNL     1     -10.866   8.589  70.921  1.00  0.00    -0.232 C  
HETATM   11  O   UNL     1     -10.261   8.594  72.204  1.00  0.00    -0.306 OA 
HETATM   12  H   UNL     1     -10.157   7.693  72.488  1.00  0.00     0.000 HD 
ENDBRANCH   9  10
ENDBRANCH   6   7
ENDBRANCH   5   6
ENDBRANCH   4   5
TORSDOF 4
ENDMDL
MODEL      167
REMARK 921   NORMALIZED FREE ENERGY PREDICTED BY IDOCK:   -2.72 KCAL/MOL
REMARK 922        TOTAL FREE ENERGY PREDICTED BY IDOCK:   -3.67 KCAL/MOL
REMARK 923 INTER-LIGAND FREE ENERGY PREDICTED BY IDOCK:   -3.37 KCAL/MOL
REMARK 924 INTRA-LIGAND FREE ENERGY PREDICTED BY IDOCK:   -0.31 KCAL/MOL
REMARK 927      BINDING AFFINITY PREDICTED BY RF-SCORE:    0.00 PKD
ROOT
HETATM    1  C   UNL     1      -6.831  11.570  68.710  1.00  0.00    -0.084 C  
HETATM    2  C   UNL     1      -6.944  13.066  68.827  1.00  0.00    -0.103 C  
HETATM    3  C   UNL     1      -6.126  13.733  69.898  1.00  0.00    -0.140 C  
HETATM    4  C   UNL     1      -7.762  13.750  68.002  1.00  0.00    -0.152 C  
ENDROOT
BRANCH   4   5
HETATM    5  C   UNL     1      -7.934  15.246  67.965  1.00  0.00    -0.135 C  
BRANCH   5   6
HETATM    6  C   UNL     1      -8.424  15.743  66.599  1.00  0.00    -0.323 C  
BRANCH   6   7
HETATM    7  C   UNL     1      -9.920  15.572  66.399  1.00  0.00    -0.300 C  
HETATM    8  C   UNL     1     -10.803  15.907  67.572  1.00  0.00    -0.305 C  
HETATM    9  C   UNL     1     -10.415  15.096  65.240  1.00  0.00    -0.434 C  
BRANCH   9  10
HETATM   10  C   UNL     1     -11.850  14.826  64.918  1.00  0.00    -0.377 C  
HETATM   11  O   UNL     1     -12.224  15.650  63.825  1.00  0.00    -1.014 OA 
HETATM   12  H   UNL     1     -13.136  15.479  63.620  1.00  0.00     0.000 HD 
ENDBRANCH   9  10
ENDBRANCH   6   7
ENDBRANCH   5   6
ENDBRANCH   4   5
TORSDOF 4
ENDMDL
MODEL      168
REMARK 921   NORMALIZED FREE ENERGY PREDICTED BY IDOCK:   -2.71 KCAL/MOL
REMARK 922        TOTAL FREE ENERGY PREDICTED BY IDOCK:   -3.67 KCAL/MOL
REMARK 923 INTER-LIGAND FREE ENERGY PREDICTED BY IDOCK:   -3.30 KCAL/MOL
REMARK 924 INTRA-LIGAND FREE ENERGY PREDICTED BY IDOCK:   -0.37 KCAL/MOL
REMARK 927      BINDING AFFINITY PREDICTED BY RF-SCORE:    0.00 PKD
ROOT
HETATM    1  C   UNL     1      -9.848  15.674  69.503  1.00  0.00    -0.289 C  
HETATM    2  C   UNL     1     -10.937  14.705  69.132  1.00  0.00    -0.277 C  
HETATM    3  C   UNL     1     -11.738  14.111  70.258  1.00  0.00    -0.328 C  
HETATM    4  C   UNL     1     -11.153  14.390  67.838  1.00  0.00    -0.288 C  
ENDROOT
BRANCH   4   5
HETATM    5  C   UNL     1     -12.237  13.484  67.316  1.00  0.00    -0.305 C  
BRANCH   5   6
HETATM    6  C   UNL     1     -11.813  12.010  67.312  1.00  0.00    -0.257 C  
BRANCH   6   7
HETATM    7  C   UNL     1     -10.994  11.623  66.093  1.00  0.00    -0.339 C  
HETATM    8  C   UNL     1     -11.378  12.270  64.787  1.00  0.00    -0.371 C  
HETATM    9  C   UNL     1     -10.010  10.708  66.179  1.00  0.00    -0.283 C  
BRANCH   9  10
HETATM   10  C   UNL     1      -9.160  10.192  65.062  1.00  0.00    -0.205 C  
HETATM   11  O   UNL     1      -7.939  10.914  65.061  1.00  0.00    -0.355 OA 
HETATM   12  H   UNL     1      -7.399  10.586  64.351  1.00  0.00     0.000 HD 
ENDBRANCH   9  10
ENDBRANCH   6   7
ENDBRANCH   5   6
ENDBRANCH   4   5
TORSDOF 4
ENDMDL
MODEL      169
REMARK 921   NORMALIZED FREE ENERGY PREDICTED BY IDOCK:   -2.70 KCAL/MOL
REMARK 922        TOTAL FREE ENERGY PREDICTED BY IDOCK:   -3.65 KCAL/MOL
REMARK 923 INTER-LIGAND FREE ENERGY PREDICTED BY IDOCK:   -3.55 KCAL/MOL
REMARK 924 INTRA-LIGAND FREE ENERGY PREDICTED BY IDOCK:   -0.10 KCAL/MOL
REMARK 927      BINDING AFFINITY PREDICTED BY RF-SCORE:    0.00 PKD
ROOT
HETATM    1  C   UNL     1     -10.032  10.394  64.591  1.00  0.00    -0.408 C  
HETATM    2  C   UNL     1     -10.416  11.043  65.893  1.00  0.00    -0.300 C  
HETATM    3  C   UNL     1      -9.904  10.404  67.154  1.00  0.00    -0.221 C  
HETATM    4  C   UNL     1     -11.198  12.142  65.897  1.00  0.00    -0.384 C  
ENDROOT
BRANCH   4   5
HETATM    5  C   UNL     1     -11.614  12.928  67.113  1.00  0.00    -0.421 C  
BRANCH   5   6
HETATM    6  C   UNL     1     -11.837  14.412  66.800  1.00  0.00    -0.431 C  
BRANCH   6   7
HETATM    7  C   UNL     1     -10.574  15.247  66.912  1.00  0.00    -0.304 C  
HETATM    8  C   UNL     1      -9.265  14.520  66.754  1.00  0.00    -0.286 C  
HETATM    9  C   UNL     1     -10.634  16.564  67.190  1.00  0.00    -0.270 C  
BRANCH   9  10
HETATM   10  C   UNL     1      -9.482  17.498  67.382  1.00  0.00    -0.255 C  
HETATM   11  O   UNL     1      -9.059  17.412  68.733  1.00  0.00    -0.275 OA 
HETATM   12  H   UNL     1      -8.327  18.005  68.855  1.00  0.00     0.000 HD 
ENDBRANCH   9  10
ENDBRANCH   6   7
ENDBRANCH   5   6
ENDBRANCH   4   5
TORSDOF 4
ENDMDL
MODEL      170
REMARK 921   NORMALIZED FREE ENERGY PREDICTED BY IDOCK:   -2.69 KCAL/MOL
REMARK 922        TOTAL FREE ENERGY PREDICTED BY IDOCK:   -3.64 KCAL/MOL
REMARK 923 INTER-LIGAND FREE ENERGY PREDICTED BY IDOCK:   -3.41 KCAL/MOL
REMARK 924 INTRA-LIGAND FREE ENERGY PREDICTED BY IDOCK:   -0.23 KCAL/MOL
REMARK 927      BINDING AFFINITY PREDICTED BY RF-SCORE:    0.00 PKD
ROOT
HETATM    1  C   UNL     1     -10.457   3.228  63.841  1.00  0.00    -0.218 C  
HETATM    2  C   UNL     1      -9.791   4.222  64.754  1.00  0.00    -0.167 C  
HETATM    3  C   UNL     1      -8.415   4.691  64.370  1.00  0.00    -0.130 C  
HETATM    4  C   UNL     1     -10.421   4.644  65.870  1.00  0.00    -0.305 C  
ENDROOT
BRANCH   4   5
HETATM    5  C   UNL     1      -9.905   5.672  66.843  1.00  0.00    -0.178 C  
BRANCH   5   6
HETATM    6  C   UNL     1     -11.020   6.258  67.717  1.00  0.00    -0.427 C  
BRANCH   6   7
HETATM    7  C   UNL     1     -10.860   5.938  69.192  1.00  0.00    -0.406 C  
HETATM    8  C   UNL     1      -9.947   4.791  69.540  1.00  0.00    -0.287 C  
HETATM    9  C   UNL     1     -11.544   6.622  70.130  1.00  0.00    -0.446 C  
BRANCH   9  10
HETATM   10  C   UNL     1     -11.528   6.387  71.606  1.00  0.00    -0.303 C  
HETATM   11  O   UNL     1     -12.859   6.481  72.087  1.00  0.00    -0.542 OA 
HETATM   12  H   UNL     1     -12.849   6.332  73.025  1.00  0.00     0.000 HD 
ENDBRANCH   9  10
ENDBRANCH   6   7
ENDBRANCH   5   6
ENDBRANCH   4   5
TORSDOF 4
ENDMDL
MODEL      171
REMARK 921   NORMALIZED FREE ENERGY PREDICTED BY IDOCK:   -2.69 KCAL/MOL
REMARK 922        TOTAL FREE ENERGY PREDICTED BY IDOCK:   -3.64 KCAL/MOL
REMARK 923 INTER-LIGAND FREE ENERGY PREDICTED BY IDOCK:   -3.18 KCAL/MOL
REMARK 924 INTRA-LIGAND FREE ENERGY PREDICTED BY IDOCK:   -0.46 KCAL/MOL
REMARK 927      BINDING AFFINITY PREDICTED BY RF-SCORE:    0.00 PKD
ROOT
HETATM    1  C   UNL     1      -6.611  19.032  65.709  1.00  0.00    -0.289 C  
HETATM    2  C   UNL     1      -7.712  19.004  66.735  1.00  0.00    -0.256 C  
HETATM    3  C   UNL     1      -8.408  20.304  67.027  1.00  0.00    -0.373 C  
HETATM    4  C   UNL     1      -8.028  17.851  67.358  1.00  0.00    -0.221 C  
ENDROOT
BRANCH   4   5
HETATM    5  C   UNL     1      -9.137  17.660  68.359  1.00  0.00    -0.277 C  
BRANCH   5   6
HETATM    6  C   UNL     1     -10.455  17.243  67.696  1.00  0.00    -0.363 C  
BRANCH   6   7
HETATM    7  C   UNL     1     -10.335  15.980  66.861  1.00  0.00    -0.289 C  
HETATM    8  C   UNL     1     -10.614  16.114  65.387  1.00  0.00    -0.399 C  
HETATM    9  C   UNL     1     -10.042  14.795  67.432  1.00  0.00    -0.231 C  
BRANCH   9  10
HETATM   10  C   UNL     1      -9.943  13.468  66.751  1.00  0.00    -0.269 C  
HETATM   11  O   UNL     1     -10.523  12.488  67.598  1.00  0.00    -0.213 OA 
HETATM   12  H   UNL     1     -10.460  11.645  67.165  1.00  0.00     0.000 HD 
ENDBRANCH   9  10
ENDBRANCH   6   7
ENDBRANCH   5   6
ENDBRANCH   4   5
TORSDOF 4
ENDMDL
MODEL      172
REMARK 921   NORMALIZED FREE ENERGY PREDICTED BY IDOCK:   -2.68 KCAL/MOL
REMARK 922        TOTAL FREE ENERGY PREDICTED BY IDOCK:   -3.62 KCAL/MOL
REMARK 923 INTER-LIGAND FREE ENERGY PREDICTED BY IDOCK:   -3.24 KCAL/MOL
REMARK 924 INTRA-LIGAND FREE ENERGY PREDICTED BY IDOCK:   -0.38 KCAL/MOL
REMARK 927      BINDING AFFINITY PREDICTED BY RF-SCORE:    0.00 PKD
ROOT
HETATM    1  C   UNL     1      -9.899   4.481  69.922  1.00  0.00    -0.298 C  
HETATM    2  C   UNL     1     -10.549   5.631  69.202  1.00  0.00    -0.334 C  
HETATM    3  C   UNL     1     -11.533   6.459  69.981  1.00  0.00    -0.496 C  
HETATM    4  C   UNL     1     -10.252   5.875  67.909  1.00  0.00    -0.225 C  
ENDROOT
BRANCH   4   5
HETATM    5  C   UNL     1     -10.779   7.017  67.080  1.00  0.00    -0.433 C  
BRANCH   5   6
HETATM    6  C   UNL     1      -9.657   7.795  66.380  1.00  0.00    -0.235 C  
BRANCH   6   7
HETATM    7  C   UNL     1      -9.579   9.250  66.804  1.00  0.00    -0.240 C  
HETATM    8  C   UNL     1      -8.719   9.561  68.002  1.00  0.00    -0.120 C  
HETATM    9  C   UNL     1     -10.287  10.200  66.163  1.00  0.00    -0.237 C  
BRANCH   9  10
HETATM   10  C   UNL     1     -10.351  11.656  66.498  1.00  0.00    -0.224 C  
HETATM   11  O   UNL     1      -9.351  12.329  65.750  1.00  0.00    -0.398 OA 
HETATM   12  H   UNL     1      -9.391  13.254  65.963  1.00  0.00     0.000 HD 
ENDBRANCH   9  10
ENDBRANCH   6   7
ENDBRANCH   5   6
ENDBRANCH   4   5
TORSDOF 4
ENDMDL
MODEL      173
REMARK 921   NORMALIZED FREE ENERGY PREDICTED BY IDOCK:   -2.67 KCAL/MOL
REMARK 922        TOTAL FREE ENERGY PREDICTED BY IDOCK:   -3.62 KCAL/MOL
REMARK 923 INTER-LIGAND FREE ENERGY PREDICTED BY IDOCK:   -3.06 KCAL/MOL
REMARK 924 INTRA-LIGAND FREE ENERGY PREDICTED BY IDOCK:   -0.56 KCAL/MOL
REMARK 927      BINDING AFFINITY PREDICTED BY RF-SCORE:    0.00 PKD
ROOT
HETATM    1  C   UNL     1      -7.375  14.852  69.513  1.00  0.00    -0.178 C  
HETATM    2  C   UNL     1      -8.709  15.170  68.894  1.00  0.00    -0.205 C  
HETATM    3  C   UNL     1      -9.822  15.559  69.826  1.00  0.00    -0.268 C  
HETATM    4  C   UNL     1      -8.872  15.087  67.557  1.00  0.00    -0.193 C  
ENDROOT
BRANCH   4   5
HETATM    5  C   UNL     1     -10.126  15.427  66.796  1.00  0.00    -0.266 C  
BRANCH   5   6
HETATM    6  C   UNL     1      -9.977  16.712  65.972  1.00  0.00    -0.346 C  
BRANCH   6   7
HETATM    7  C   UNL     1      -9.607  17.923  66.809  1.00  0.00    -0.305 C  
HETATM    8  C   UNL     1     -10.709  18.541  67.631  1.00  0.00    -0.405 C  
HETATM    9  C   UNL     1      -8.364  18.441  66.771  1.00  0.00    -0.271 C  
BRANCH   9  10
HETATM   10  C   UNL     1      -7.870  19.653  67.494  1.00  0.00    -0.274 C  
HETATM   11  O   UNL     1      -7.580  19.285  68.833  1.00  0.00    -0.345 OA 
HETATM   12  H   UNL     1      -7.266  20.055  69.293  1.00  0.00     0.000 HD 
ENDBRANCH   9  10
ENDBRANCH   6   7
ENDBRANCH   5   6
ENDBRANCH   4   5
TORSDOF 4
ENDMDL
MODEL      174
REMARK 921   NORMALIZED FREE ENERGY PREDICTED BY IDOCK:   -2.67 KCAL/MOL
REMARK 922        TOTAL FREE ENERGY PREDICTED BY IDOCK:   -3.61 KCAL/MOL
REMARK 923 INTER-LIGAND FREE ENERGY PREDICTED BY IDOCK:   -3.19 KCAL/MOL
REMARK 924 INTRA-LIGAND FREE ENERGY PREDICTED BY IDOCK:   -0.42 KCAL/MOL
REMARK 927      BINDING AFFINITY PREDICTED BY RF-SCORE:    0.00 PKD
ROOT
HETATM    1  C   UNL     1     -10.534  19.793  66.512  1.00  0.00    -0.615 C  
HETATM    2  C   UNL     1      -9.672  18.565  66.405  1.00  0.00    -0.347 C  
HETATM    3  C   UNL     1      -8.183  18.774  66.378  1.00  0.00    -0.299 C  
HETATM    4  C   UNL     1     -10.239  17.344  66.324  1.00  0.00    -0.344 C  
ENDROOT
BRANCH   4   5
HETATM    5  C   UNL     1      -9.507  16.029  66.269  1.00  0.00    -0.347 C  
BRANCH   5   6
HETATM    6  C   UNL     1      -9.635  15.236  67.575  1.00  0.00    -0.206 C  
BRANCH   6   7
HETATM    7  C   UNL     1      -8.304  14.737  68.108  1.00  0.00    -0.144 C  
HETATM    8  C   UNL     1      -7.845  13.386  67.625  1.00  0.00    -0.174 C  
HETATM    9  C   UNL     1      -7.602  15.454  69.007  1.00  0.00    -0.177 C  
BRANCH   9  10
HETATM   10  C   UNL     1      -6.311  15.069  69.656  1.00  0.00    -0.142 C  
HETATM   11  O   UNL     1      -6.605  14.307  70.816  1.00  0.00    -0.398 OA 
HETATM   12  H   UNL     1      -5.785  14.062  71.228  1.00  0.00     0.000 HD 
ENDBRANCH   9  10
ENDBRANCH   6   7
ENDBRANCH   5   6
ENDBRANCH   4   5
TORSDOF 4
ENDMDL
MODEL      175
REMARK 921   NORMALIZED FREE ENERGY PREDICTED BY IDOCK:   -2.64 KCAL/MOL
REMARK 922        TOTAL FREE ENERGY PREDICTED BY IDOCK:   -3.57 KCAL/MOL
REMARK 923 INTER-LIGAND FREE ENERGY PREDICTED BY IDOCK:   -2.98 KCAL/MOL
REMARK 924 INTRA-LIGAND FREE ENERGY PREDICTED BY IDOCK:   -0.60 KCAL/MOL
REMARK 927      BINDING AFFINITY PREDICTED BY RF-SCORE:    0.00 PKD
ROOT
HETATM    1  C   UNL     1      -7.711   7.563  70.717  1.00  0.00    -0.083 C  
HETATM    2  C   UNL     1      -8.890   8.096  69.949  1.00  0.00    -0.139 C  
HETATM    3  C   UNL     1      -9.544   9.342  70.477  1.00  0.00    -0.330 C  
HETATM    4  C   UNL     1      -9.327   7.452  68.847  1.00  0.00    -0.145 C  
ENDROOT
BRANCH   4   5
HETATM    5  C   UNL     1     -10.454   7.897  67.952  1.00  0.00    -0.261 C  
BRANCH   5   6
HETATM    6  C   UNL     1      -9.954   8.675  66.729  1.00  0.00    -0.343 C  
BRANCH   6   7
HETATM    7  C   UNL     1     -10.166  10.174  66.842  1.00  0.00    -0.295 C  
HETATM    8  C   UNL     1      -9.101  11.056  66.246  1.00  0.00    -0.196 C  
HETATM    9  C   UNL     1     -11.235  10.677  67.490  1.00  0.00    -0.326 C  
BRANCH   9  10
HETATM   10  C   UNL     1     -11.548  12.120  67.727  1.00  0.00    -0.342 C  
HETATM   11  O   UNL     1     -12.247  12.615  66.596  1.00  0.00    -0.517 OA 
HETATM   12  H   UNL     1     -12.446  13.532  66.746  1.00  0.00     0.000 HD 
ENDBRANCH   9  10
ENDBRANCH   6   7
ENDBRANCH   5   6
ENDBRANCH   4   5
TORSDOF 4
ENDMDL
MODEL      176
REMARK 921   NORMALIZED FREE ENERGY PREDICTED BY IDOCK:   -2.64 KCAL/MOL
REMARK 922        TOTAL FREE ENERGY PREDICTED BY IDOCK:   -3.57 KCAL/MOL
REMARK 923 INTER-LIGAND FREE ENERGY PREDICTED BY IDOCK:   -3.11 KCAL/MOL
REMARK 924 INTRA-LIGAND FREE ENERGY PREDICTED BY IDOCK:   -0.46 KCAL/MOL
REMARK 927      BINDING AFFINITY PREDICTED BY RF-SCORE:    0.00 PKD
ROOT
HETATM    1  C   UNL     1      -8.399  17.078  67.764  1.00  0.00    -0.199 C  
HETATM    2  C   UNL     1      -9.561  16.179  67.442  1.00  0.00    -0.229 C  
HETATM    3  C   UNL     1      -9.692  15.712  66.019  1.00  0.00    -0.378 C  
HETATM    4  C   UNL     1     -10.440  15.837  68.406  1.00  0.00    -0.245 C  
ENDROOT
BRANCH   4   5
HETATM    5  C   UNL     1     -11.613  14.905  68.245  1.00  0.00    -0.356 C  
BRANCH   5   6
HETATM    6  C   UNL     1     -11.549  13.716  69.212  1.00  0.00    -0.363 C  
BRANCH   6   7
HETATM    7  C   UNL     1     -11.200  12.405  68.530  1.00  0.00    -0.321 C  
HETATM    8  C   UNL     1     -11.102  12.429  67.027  1.00  0.00    -0.327 C  
HETATM    9  C   UNL     1     -11.039  11.273  69.242  1.00  0.00    -0.314 C  
BRANCH   9  10
HETATM   10  C   UNL     1     -10.749   9.907  68.708  1.00  0.00    -0.220 C  
HETATM   11  O   UNL     1      -9.631   9.383  69.408  1.00  0.00    -0.160 OA 
HETATM   12  H   UNL     1      -9.446   8.515  69.068  1.00  0.00     0.000 HD 
ENDBRANCH   9  10
ENDBRANCH   6   7
ENDBRANCH   5   6
ENDBRANCH   4   5
TORSDOF 4
ENDMDL
MODEL      177
REMARK 921   NORMALIZED FREE ENERGY PREDICTED BY IDOCK:   -2.64 KCAL/MOL
REMARK 922        TOTAL FREE ENERGY PREDICTED BY IDOCK:   -3.57 KCAL/MOL
REMARK 923 INTER-LIGAND FREE ENERGY PREDICTED BY IDOCK:   -3.27 KCAL/MOL
REMARK 924 INTRA-LIGAND FREE ENERGY PREDICTED BY IDOCK:   -0.30 KCAL/MOL
REMARK 927      BINDING AFFINITY PREDICTED BY RF-SCORE:    0.00 PKD
ROOT
HETATM    1  C   UNL     1     -10.031   8.076  72.857  1.00  0.00    -0.360 C  
HETATM    2  C   UNL     1     -10.564   8.651  71.573  1.00  0.00    -0.352 C  
HETATM    3  C   UNL     1     -12.018   9.034  71.545  1.00  0.00    -0.414 C  
HETATM    4  C   UNL     1      -9.751   8.791  70.506  1.00  0.00    -0.225 C  
ENDROOT
BRANCH   4   5
HETATM    5  C   UNL     1     -10.128   9.399  69.180  1.00  0.00    -0.200 C  
BRANCH   5   6
HETATM    6  C   UNL     1      -9.426  10.740  68.934  1.00  0.00    -0.190 C  
BRANCH   6   7
HETATM    7  C   UNL     1     -10.113  11.595  67.883  1.00  0.00    -0.198 C  
HETATM    8  C   UNL     1     -11.612  11.485  67.796  1.00  0.00    -0.338 C  
HETATM    9  C   UNL     1      -9.399  12.370  67.044  1.00  0.00    -0.204 C  
BRANCH   9  10
HETATM   10  C   UNL     1      -9.929  13.219  65.933  1.00  0.00    -0.272 C  
HETATM   11  O   UNL     1      -9.174  14.419  65.890  1.00  0.00    -0.514 OA 
HETATM   12  H   UNL     1      -9.511  14.959  65.184  1.00  0.00     0.000 HD 
ENDBRANCH   9  10
ENDBRANCH   6   7
ENDBRANCH   5   6
ENDBRANCH   4   5
TORSDOF 4
ENDMDL
MODEL      178
REMARK 921   NORMALIZED FREE ENERGY PREDICTED BY IDOCK:   -2.63 KCAL/MOL
REMARK 922        TOTAL FREE ENERGY PREDICTED BY IDOCK:   -3.56 KCAL/MOL
REMARK 923 INTER-LIGAND FREE ENERGY PREDICTED BY IDOCK:   -3.14 KCAL/MOL
REMARK 924 INTRA-LIGAND FREE ENERGY PREDICTED BY IDOCK:   -0.42 KCAL/MOL
REMARK 927      BINDING AFFINITY PREDICTED BY RF-SCORE:    0.00 PKD
ROOT
HETATM    1  C   UNL     1      -6.688   3.801  71.268  1.00  0.00    -0.031 C  
HETATM    2  C   UNL     1      -7.881   4.714  71.179  1.00  0.00    -0.082 C  
HETATM    3  C   UNL     1      -7.610   6.172  70.930  1.00  0.00    -0.097 C  
HETATM    4  C   UNL     1      -9.126   4.219  71.335  1.00  0.00    -0.179 C  
ENDROOT
BRANCH   4   5
HETATM    5  C   UNL     1     -10.409   4.998  71.216  1.00  0.00    -0.255 C  
BRANCH   5   6
HETATM    6  C   UNL     1     -10.920   5.490  72.576  1.00  0.00    -0.316 C  
BRANCH   6   7
HETATM    7  C   UNL     1     -11.418   6.924  72.549  1.00  0.00    -0.268 C  
HETATM    8  C   UNL     1     -10.598   7.939  73.301  1.00  0.00    -0.239 C  
HETATM    9  C   UNL     1     -12.564   7.250  71.921  1.00  0.00    -0.326 C  
BRANCH   9  10
HETATM   10  C   UNL     1     -13.202   8.601  71.856  1.00  0.00    -0.375 C  
HETATM   11  O   UNL     1     -13.975   8.786  73.031  1.00  0.00    -0.976 OA 
HETATM   12  H   UNL     1     -14.381   9.644  72.989  1.00  0.00     0.000 HD 
ENDBRANCH   9  10
ENDBRANCH   6   7
ENDBRANCH   5   6
ENDBRANCH   4   5
TORSDOF 4
ENDMDL
MODEL      179
REMARK 921   NORMALIZED FREE ENERGY PREDICTED BY IDOCK:   -2.63 KCAL/MOL
REMARK 922        TOTAL FREE ENERGY PREDICTED BY IDOCK:   -3.56 KCAL/MOL
REMARK 923 INTER-LIGAND FREE ENERGY PREDICTED BY IDOCK:   -3.13 KCAL/MOL
REMARK 924 INTRA-LIGAND FREE ENERGY PREDICTED BY IDOCK:   -0.43 KCAL/MOL
REMARK 927      BINDING AFFINITY PREDICTED BY RF-SCORE:    0.00 PKD
ROOT
HETATM    1  C   UNL     1      -8.215   7.651  73.892  1.00  0.00    -0.229 C  
HETATM    2  C   UNL     1      -9.663   7.343  73.620  1.00  0.00    -0.349 C  
HETATM    3  C   UNL     1     -10.206   6.056  74.177  1.00  0.00    -0.307 C  
HETATM    4  C   UNL     1     -10.412   8.197  72.893  1.00  0.00    -0.338 C  
ENDROOT
BRANCH   4   5
HETATM    5  C   UNL     1     -11.880   8.049  72.589  1.00  0.00    -0.380 C  
BRANCH   5   6
HETATM    6  C   UNL     1     -12.157   7.958  71.084  1.00  0.00    -0.294 C  
BRANCH   6   7
HETATM    7  C   UNL     1     -11.077   7.217  70.317  1.00  0.00    -0.303 C  
HETATM    8  C   UNL     1     -10.191   8.045  69.423  1.00  0.00    -0.210 C  
HETATM    9  C   UNL     1     -10.959   5.877  70.402  1.00  0.00    -0.376 C  
BRANCH   9  10
HETATM   10  C   UNL     1      -9.984   5.011  69.670  1.00  0.00    -0.241 C  
HETATM   11  O   UNL     1      -9.154   4.369  70.625  1.00  0.00    -0.104 OA 
HETATM   12  H   UNL     1      -8.535   3.819  70.159  1.00  0.00     0.000 HD 
ENDBRANCH   9  10
ENDBRANCH   6   7
ENDBRANCH   5   6
ENDBRANCH   4   5
TORSDOF 4
ENDMDL
MODEL      180
REMARK 921   NORMALIZED FREE ENERGY PREDICTED BY IDOCK:   -2.63 KCAL/MOL
REMARK 922        TOTAL FREE ENERGY PREDICTED BY IDOCK:   -3.56 KCAL/MOL
REMARK 923 INTER-LIGAND FREE ENERGY PREDICTED BY IDOCK:   -2.90 KCAL/MOL
REMARK 924 INTRA-LIGAND FREE ENERGY PREDICTED BY IDOCK:   -0.65 KCAL/MOL
REMARK 927      BINDING AFFINITY PREDICTED BY RF-SCORE:    0.00 PKD
ROOT
HETATM    1  C   UNL     1     -11.802   6.277  72.252  1.00  0.00    -0.326 C  
HETATM    2  C   UNL     1     -11.250   7.646  71.964  1.00  0.00    -0.317 C  
HETATM    3  C   UNL     1      -9.878   7.958  72.495  1.00  0.00    -0.299 C  
HETATM    4  C   UNL     1     -11.983   8.540  71.269  1.00  0.00    -0.334 C  
ENDROOT
BRANCH   4   5
HETATM    5  C   UNL     1     -11.541   9.920  70.860  1.00  0.00    -0.456 C  
BRANCH   5   6
HETATM    6  C   UNL     1     -11.089   9.977  69.395  1.00  0.00    -0.265 C  
BRANCH   6   7
HETATM    7  C   UNL     1      -9.606   9.707  69.214  1.00  0.00    -0.190 C  
HETATM    8  C   UNL     1      -9.221   8.331  68.737  1.00  0.00    -0.143 C  
HETATM    9  C   UNL     1      -8.687  10.645  69.515  1.00  0.00     0.030 C  
BRANCH   9  10
HETATM   10  C   UNL     1      -7.200  10.507  69.438  1.00  0.00    -0.117 C  
HETATM   11  O   UNL     1      -6.618  11.442  70.332  1.00  0.00    -0.486 OA 
HETATM   12  H   UNL     1      -5.674  11.354  70.283  1.00  0.00     0.000 HD 
ENDBRANCH   9  10
ENDBRANCH   6   7
ENDBRANCH   5   6
ENDBRANCH   4   5
TORSDOF 4
ENDMDL
MODEL      181
REMARK 921   NORMALIZED FREE ENERGY PREDICTED BY IDOCK:   -2.62 KCAL/MOL
REMARK 922        TOTAL FREE ENERGY PREDICTED BY IDOCK:   -3.54 KCAL/MOL
REMARK 923 INTER-LIGAND FREE ENERGY PREDICTED BY IDOCK:   -3.30 KCAL/MOL
REMARK 924 INTRA-LIGAND FREE ENERGY PREDICTED BY IDOCK:   -0.25 KCAL/MOL
REMARK 927      BINDING AFFINITY PREDICTED BY RF-SCORE:    0.00 PKD
ROOT
HETATM    1  C   UNL     1      -6.260  19.148  65.751  1.00  0.00    -0.245 C  
HETATM    2  C   UNL     1      -7.261  19.093  66.873  1.00  0.00    -0.218 C  
HETATM    3  C   UNL     1      -8.047  20.344  67.151  1.00  0.00    -0.378 C  
HETATM    4  C   UNL     1      -7.413  17.961  67.590  1.00  0.00    -0.208 C  
ENDROOT
BRANCH   4   5
HETATM    5  C   UNL     1      -8.409  17.742  68.699  1.00  0.00    -0.274 C  
BRANCH   5   6
HETATM    6  C   UNL     1      -9.781  17.306  68.172  1.00  0.00    -0.284 C  
BRANCH   6   7
HETATM    7  C   UNL     1     -10.399  16.171  68.969  1.00  0.00    -0.258 C  
HETATM    8  C   UNL     1     -10.122  14.773  68.483  1.00  0.00    -0.230 C  
HETATM    9  C   UNL     1     -11.195  16.419  70.028  1.00  0.00    -0.266 C  
BRANCH   9  10
HETATM   10  C   UNL     1     -11.910  15.413  70.871  1.00  0.00    -0.356 C  
HETATM   11  O   UNL     1     -13.205  15.914  71.161  1.00  0.00    -0.580 OA 
HETATM   12  H   UNL     1     -13.660  15.275  71.697  1.00  0.00     0.000 HD 
ENDBRANCH   9  10
ENDBRANCH   6   7
ENDBRANCH   5   6
ENDBRANCH   4   5
TORSDOF 4
ENDMDL
MODEL      182
REMARK 921   NORMALIZED FREE ENERGY PREDICTED BY IDOCK:   -2.58 KCAL/MOL
REMARK 922        TOTAL FREE ENERGY PREDICTED BY IDOCK:   -3.51 KCAL/MOL
REMARK 923 INTER-LIGAND FREE ENERGY PREDICTED BY IDOCK:   -3.19 KCAL/MOL
REMARK 924 INTRA-LIGAND FREE ENERGY PREDICTED BY IDOCK:   -0.32 KCAL/MOL
REMARK 927      BINDING AFFINITY PREDICTED BY RF-SCORE:    0.00 PKD
ROOT
HETATM    1  C   UNL     1      -7.474  18.498  68.447  1.00  0.00    -0.315 C  
HETATM    2  C   UNL     1      -8.324  17.672  67.520  1.00  0.00    -0.221 C  
HETATM    3  C   UNL     1      -7.871  17.564  66.090  1.00  0.00    -0.281 C  
HETATM    4  C   UNL     1      -9.445  17.078  67.977  1.00  0.00    -0.256 C  
ENDROOT
BRANCH   4   5
HETATM    5  C   UNL     1     -10.358  16.180  67.185  1.00  0.00    -0.291 C  
BRANCH   5   6
HETATM    6  C   UNL     1     -10.751  14.917  67.961  1.00  0.00    -0.253 C  
BRANCH   6   7
HETATM    7  C   UNL     1     -10.359  13.631  67.256  1.00  0.00    -0.249 C  
HETATM    8  C   UNL     1      -9.271  12.812  67.899  1.00  0.00    -0.205 C  
HETATM    9  C   UNL     1     -10.929  13.278  66.087  1.00  0.00    -0.292 C  
BRANCH   9  10
HETATM   10  C   UNL     1     -10.609  12.076  65.257  1.00  0.00    -0.287 C  
HETATM   11  O   UNL     1      -9.740  12.477  64.210  1.00  0.00    -0.538 OA 
HETATM   12  H   UNL     1      -9.536  11.713  63.682  1.00  0.00     0.000 HD 
ENDBRANCH   9  10
ENDBRANCH   6   7
ENDBRANCH   5   6
ENDBRANCH   4   5
TORSDOF 4
ENDMDL
MODEL      183
REMARK 921   NORMALIZED FREE ENERGY PREDICTED BY IDOCK:   -2.58 KCAL/MOL
REMARK 922        TOTAL FREE ENERGY PREDICTED BY IDOCK:   -3.49 KCAL/MOL
REMARK 923 INTER-LIGAND FREE ENERGY PREDICTED BY IDOCK:   -3.53 KCAL/MOL
REMARK 924 INTRA-LIGAND FREE ENERGY PREDICTED BY IDOCK:    0.04 KCAL/MOL
REMARK 927      BINDING AFFINITY PREDICTED BY RF-SCORE:    0.00 PKD
ROOT
HETATM    1  C   UNL     1     -10.509   9.394  70.712  1.00  0.00    -0.372 C  
HETATM    2  C   UNL     1     -11.310  10.425  69.965  1.00  0.00    -0.384 C  
HETATM    3  C   UNL     1     -12.348  11.184  70.744  1.00  0.00    -0.504 C  
HETATM    4  C   UNL     1     -11.094  10.626  68.649  1.00  0.00    -0.315 C  
ENDROOT
BRANCH   4   5
HETATM    5  C   UNL     1     -11.776  11.657  67.787  1.00  0.00    -0.315 C  
BRANCH   5   6
HETATM    6  C   UNL     1     -11.162  11.742  66.384  1.00  0.00    -0.382 C  
BRANCH   6   7
HETATM    7  C   UNL     1      -9.808  11.063  66.278  1.00  0.00    -0.257 C  
HETATM    8  C   UNL     1      -9.809   9.612  65.874  1.00  0.00    -0.358 C  
HETATM    9  C   UNL     1      -8.674  11.723  66.582  1.00  0.00    -0.186 C  
BRANCH   9  10
HETATM   10  C   UNL     1      -7.283  11.174  66.575  1.00  0.00    -0.124 C  
HETATM   11  O   UNL     1      -6.388  12.223  66.909  1.00  0.00    -0.338 OA 
HETATM   12  H   UNL     1      -5.504  11.874  66.904  1.00  0.00     0.000 HD 
ENDBRANCH   9  10
ENDBRANCH   6   7
ENDBRANCH   5   6
ENDBRANCH   4   5
TORSDOF 4
ENDMDL
MODEL      184
REMARK 921   NORMALIZED FREE ENERGY PREDICTED BY IDOCK:   -2.57 KCAL/MOL
REMARK 922        TOTAL FREE ENERGY PREDICTED BY IDOCK:   -3.48 KCAL/MOL
REMARK 923 INTER-LIGAND FREE ENERGY PREDICTED BY IDOCK:   -3.22 KCAL/MOL
REMARK 924 INTRA-LIGAND FREE ENERGY PREDICTED BY IDOCK:   -0.26 KCAL/MOL
REMARK 927      BINDING AFFINITY PREDICTED BY RF-SCORE:    0.00 PKD
ROOT
HETATM    1  C   UNL     1      -8.477  10.939  68.365  1.00  0.00    -0.141 C  
HETATM    2  C   UNL     1      -8.297  12.252  67.652  1.00  0.00    -0.166 C  
HETATM    3  C   UNL     1      -6.888  12.742  67.464  1.00  0.00    -0.153 C  
HETATM    4  C   UNL     1      -9.373  12.944  67.224  1.00  0.00    -0.212 C  
ENDROOT
BRANCH   4   5
HETATM    5  C   UNL     1      -9.345  14.236  66.451  1.00  0.00    -0.270 C  
BRANCH   5   6
HETATM    6  C   UNL     1     -10.646  14.480  65.677  1.00  0.00    -0.343 C  
BRANCH   6   7
HETATM    7  C   UNL     1     -11.150  13.250  64.944  1.00  0.00    -0.345 C  
HETATM    8  C   UNL     1     -12.524  12.756  65.314  1.00  0.00    -0.528 C  
HETATM    9  C   UNL     1     -10.376  12.611  64.045  1.00  0.00    -0.414 C  
BRANCH   9  10
HETATM   10  C   UNL     1     -10.714  11.366  63.288  1.00  0.00    -0.257 C  
HETATM   11  O   UNL     1      -9.929  10.304  63.806  1.00  0.00    -0.391 OA 
HETATM   12  H   UNL     1     -10.144   9.513  63.325  1.00  0.00     0.000 HD 
ENDBRANCH   9  10
ENDBRANCH   6   7
ENDBRANCH   5   6
ENDBRANCH   4   5
TORSDOF 4
ENDMDL
MODEL      185
REMARK 921   NORMALIZED FREE ENERGY PREDICTED BY IDOCK:   -2.56 KCAL/MOL
REMARK 922        TOTAL FREE ENERGY PREDICTED BY IDOCK:   -3.47 KCAL/MOL
REMARK 923 INTER-LIGAND FREE ENERGY PREDICTED BY IDOCK:   -3.21 KCAL/MOL
REMARK 924 INTRA-LIGAND FREE ENERGY PREDICTED BY IDOCK:   -0.26 KCAL/MOL
REMARK 927      BINDING AFFINITY PREDICTED BY RF-SCORE:    0.00 PKD
ROOT
HETATM    1  C   UNL     1     -11.098  15.579  66.578  1.00  0.00    -0.182 C  
HETATM    2  C   UNL     1     -10.902  14.357  67.433  1.00  0.00    -0.293 C  
HETATM    3  C   UNL     1     -11.313  14.458  68.876  1.00  0.00    -0.300 C  
HETATM    4  C   UNL     1     -10.366  13.238  66.903  1.00  0.00    -0.255 C  
ENDROOT
BRANCH   4   5
HETATM    5  C   UNL     1     -10.164  11.929  67.619  1.00  0.00    -0.215 C  
BRANCH   5   6
HETATM    6  C   UNL     1     -11.101  10.831  67.101  1.00  0.00    -0.297 C  
BRANCH   6   7
HETATM    7  C   UNL     1     -10.779   9.454  67.655  1.00  0.00    -0.295 C  
HETATM    8  C   UNL     1     -10.618   9.346  69.149  1.00  0.00    -0.234 C  
HETATM    9  C   UNL     1     -10.599   8.400  66.835  1.00  0.00    -0.285 C  
BRANCH   9  10
HETATM   10  C   UNL     1     -10.228   7.006  67.229  1.00  0.00    -0.234 C  
HETATM   11  O   UNL     1     -11.421   6.283  67.483  1.00  0.00    -0.626 OA 
HETATM   12  H   UNL     1     -11.186   5.397  67.734  1.00  0.00     0.000 HD 
ENDBRANCH   9  10
ENDBRANCH   6   7
ENDBRANCH   5   6
ENDBRANCH   4   5
TORSDOF 4
ENDMDL
MODEL      186
REMARK 921   NORMALIZED FREE ENERGY PREDICTED BY IDOCK:   -2.55 KCAL/MOL
REMARK 922        TOTAL FREE ENERGY PREDICTED BY IDOCK:   -3.46 KCAL/MOL
REMARK 923 INTER-LIGAND FREE ENERGY PREDICTED BY IDOCK:   -3.12 KCAL/MOL
REMARK 924 INTRA-LIGAND FREE ENERGY PREDICTED BY IDOCK:   -0.34 KCAL/MOL
REMARK 927      BINDING AFFINITY PREDICTED BY RF-SCORE:    0.00 PKD
ROOT
HETATM    1  C   UNL     1     -10.658   4.710  65.556  1.00  0.00    -0.208 C  
HETATM    2  C   UNL     1     -10.432   5.202  66.959  1.00  0.00    -0.256 C  
HETATM    3  C   UNL     1      -9.614   4.327  67.868  1.00  0.00    -0.207 C  
HETATM    4  C   UNL     1     -10.965   6.374  67.360  1.00  0.00    -0.463 C  
ENDROOT
BRANCH   4   5
HETATM    5  C   UNL     1     -10.777   7.017  68.710  1.00  0.00    -0.226 C  
BRANCH   5   6
HETATM    6  C   UNL     1      -9.878   8.257  68.644  1.00  0.00    -0.186 C  
BRANCH   6   7
HETATM    7  C   UNL     1     -10.649   9.548  68.432  1.00  0.00    -0.261 C  
HETATM    8  C   UNL     1     -10.537  10.187  67.072  1.00  0.00    -0.290 C  
HETATM    9  C   UNL     1     -11.353  10.109  69.434  1.00  0.00    -0.233 C  
BRANCH   9  10
HETATM   10  C   UNL     1     -12.113  11.396  69.389  1.00  0.00    -0.291 C  
HETATM   11  O   UNL     1     -11.403  12.360  70.152  1.00  0.00    -0.504 OA 
HETATM   12  H   UNL     1     -11.886  13.177  70.124  1.00  0.00     0.000 HD 
ENDBRANCH   9  10
ENDBRANCH   6   7
ENDBRANCH   5   6
ENDBRANCH   4   5
TORSDOF 4
ENDMDL
MODEL      187
REMARK 921   NORMALIZED FREE ENERGY PREDICTED BY IDOCK:   -2.54 KCAL/MOL
REMARK 922        TOTAL FREE ENERGY PREDICTED BY IDOCK:   -3.45 KCAL/MOL
REMARK 923 INTER-LIGAND FREE ENERGY PREDICTED BY IDOCK:   -3.17 KCAL/MOL
REMARK 924 INTRA-LIGAND FREE ENERGY PREDICTED BY IDOCK:   -0.28 KCAL/MOL
REMARK 927      BINDING AFFINITY PREDICTED BY RF-SCORE:    0.00 PKD
ROOT
HETATM    1  C   UNL     1     -10.392   5.773  66.757  1.00  0.00    -0.312 C  
HETATM    2  C   UNL     1     -10.473   6.345  68.146  1.00  0.00    -0.267 C  
HETATM    3  C   UNL     1     -10.405   5.373  69.292  1.00  0.00    -0.322 C  
HETATM    4  C   UNL     1     -10.614   7.674  68.324  1.00  0.00    -0.175 C  
ENDROOT
BRANCH   4   5
HETATM    5  C   UNL     1     -10.651   8.391  69.649  1.00  0.00    -0.219 C  
BRANCH   5   6
HETATM    6  C   UNL     1      -9.994   9.775  69.581  1.00  0.00    -0.244 C  
BRANCH   6   7
HETATM    7  C   UNL     1     -10.974  10.893  69.276  1.00  0.00    -0.295 C  
HETATM    8  C   UNL     1     -12.068  11.128  70.285  1.00  0.00    -0.462 C  
HETATM    9  C   UNL     1     -10.889  11.599  68.132  1.00  0.00    -0.260 C  
BRANCH   9  10
HETATM   10  C   UNL     1     -11.808  12.686  67.673  1.00  0.00    -0.329 C  
HETATM   11  O   UNL     1     -11.156  13.418  66.649  1.00  0.00    -0.288 OA 
HETATM   12  H   UNL     1     -11.740  14.109  66.357  1.00  0.00     0.000 HD 
ENDBRANCH   9  10
ENDBRANCH   6   7
ENDBRANCH   5   6
ENDBRANCH   4   5
TORSDOF 4
ENDMDL
MODEL      188
REMARK 921   NORMALIZED FREE ENERGY PREDICTED BY IDOCK:   -2.53 KCAL/MOL
REMARK 922        TOTAL FREE ENERGY PREDICTED BY IDOCK:   -3.44 KCAL/MOL
REMARK 923 INTER-LIGAND FREE ENERGY PREDICTED BY IDOCK:   -3.29 KCAL/MOL
REMARK 924 INTRA-LIGAND FREE ENERGY PREDICTED BY IDOCK:   -0.16 KCAL/MOL
REMARK 927      BINDING AFFINITY PREDICTED BY RF-SCORE:    0.00 PKD
ROOT
HETATM    1  C   UNL     1      -9.746  15.938  65.801  1.00  0.00    -0.360 C  
HETATM    2  C   UNL     1     -10.855  14.941  65.994  1.00  0.00    -0.328 C  
HETATM    3  C   UNL     1     -11.627  14.530  64.771  1.00  0.00    -0.414 C  
HETATM    4  C   UNL     1     -11.131  14.464  67.225  1.00  0.00    -0.318 C  
ENDROOT
BRANCH   4   5
HETATM    5  C   UNL     1     -12.169  13.425  67.560  1.00  0.00    -0.231 C  
BRANCH   5   6
HETATM    6  C   UNL     1     -11.793  12.606  68.801  1.00  0.00    -0.341 C  
BRANCH   6   7
HETATM    7  C   UNL     1     -10.809  11.488  68.507  1.00  0.00    -0.254 C  
HETATM    8  C   UNL     1      -9.377  11.891  68.273  1.00  0.00    -0.193 C  
HETATM    9  C   UNL     1     -11.219  10.207  68.415  1.00  0.00    -0.238 C  
BRANCH   9  10
HETATM   10  C   UNL     1     -10.379   9.015  68.082  1.00  0.00    -0.214 C  
HETATM   11  O   UNL     1     -11.023   8.294  67.044  1.00  0.00    -0.399 OA 
HETATM   12  H   UNL     1     -10.489   7.536  66.833  1.00  0.00     0.000 HD 
ENDBRANCH   9  10
ENDBRANCH   6   7
ENDBRANCH   5   6
ENDBRANCH   4   5
TORSDOF 4
ENDMDL
MODEL      189
REMARK 921   NORMALIZED FREE ENERGY PREDICTED BY IDOCK:   -2.52 KCAL/MOL
REMARK 922        TOTAL FREE ENERGY PREDICTED BY IDOCK:   -3.43 KCAL/MOL
REMARK 923 INTER-LIGAND FREE ENERGY PREDICTED BY IDOCK:   -2.93 KCAL/MOL
REMARK 924 INTRA-LIGAND FREE ENERGY PREDICTED BY IDOCK:   -0.50 KCAL/MOL
REMARK 927      BINDING AFFINITY PREDICTED BY RF-SCORE:    0.00 PKD
ROOT
HETATM    1  C   UNL     1      -8.831   3.532  69.271  1.00  0.00    -0.156 C  
HETATM    2  C   UNL     1      -9.759   4.676  68.965  1.00  0.00    -0.242 C  
HETATM    3  C   UNL     1      -9.889   5.087  67.524  1.00  0.00    -0.201 C  
HETATM    4  C   UNL     1     -10.421   5.296  69.963  1.00  0.00    -0.351 C  
ENDROOT
BRANCH   4   5
HETATM    5  C   UNL     1     -11.420   6.412  69.803  1.00  0.00    -0.468 C  
BRANCH   5   6
HETATM    6  C   UNL     1     -10.972   7.700  70.506  1.00  0.00    -0.259 C  
BRANCH   6   7
HETATM    7  C   UNL     1     -10.164   8.623  69.612  1.00  0.00    -0.208 C  
HETATM    8  C   UNL     1     -10.480   8.587  68.140  1.00  0.00    -0.236 C  
HETATM    9  C   UNL     1      -9.181   9.394  70.117  1.00  0.00    -0.268 C  
BRANCH   9  10
HETATM   10  C   UNL     1      -8.273  10.307  69.357  1.00  0.00    -0.165 C  
HETATM   11  O   UNL     1      -8.987  11.494  69.052  1.00  0.00    -0.378 OA 
HETATM   12  H   UNL     1      -8.410  12.075  68.569  1.00  0.00     0.000 HD 
ENDBRANCH   9  10
ENDBRANCH   6   7
ENDBRANCH   5   6
ENDBRANCH   4   5
TORSDOF 4
ENDMDL
MODEL      190
REMARK 921   NORMALIZED FREE ENERGY PREDICTED BY IDOCK:   -2.51 KCAL/MOL
REMARK 922        TOTAL FREE ENERGY PREDICTED BY IDOCK:   -3.41 KCAL/MOL
REMARK 923 INTER-LIGAND FREE ENERGY PREDICTED BY IDOCK:   -2.99 KCAL/MOL
REMARK 924 INTRA-LIGAND FREE ENERGY PREDICTED BY IDOCK:   -0.42 KCAL/MOL
REMARK 927      BINDING AFFINITY PREDICTED BY RF-SCORE:    0.00 PKD
ROOT
HETATM    1  C   UNL     1      -7.212   8.936  69.015  1.00  0.00    -0.072 C  
HETATM    2  C   UNL     1      -8.302   8.084  68.423  1.00  0.00    -0.127 C  
HETATM    3  C   UNL     1      -8.983   8.604  67.187  1.00  0.00    -0.148 C  
HETATM    4  C   UNL     1      -8.642   6.917  69.006  1.00  0.00    -0.128 C  
ENDROOT
BRANCH   4   5
HETATM    5  C   UNL     1      -9.668   5.938  68.498  1.00  0.00    -0.151 C  
BRANCH   5   6
HETATM    6  C   UNL     1     -11.080   6.260  69.003  1.00  0.00    -0.446 C  
BRANCH   6   7
HETATM    7  C   UNL     1     -11.117   6.673  70.464  1.00  0.00    -0.359 C  
HETATM    8  C   UNL     1     -10.759   5.616  71.475  1.00  0.00    -0.306 C  
HETATM    9  C   UNL     1     -11.502   7.913  70.826  1.00  0.00    -0.273 C  
BRANCH   9  10
HETATM   10  C   UNL     1     -11.638   8.443  72.217  1.00  0.00    -0.383 C  
HETATM   11  O   UNL     1     -13.004   8.371  72.590  1.00  0.00    -0.597 OA 
HETATM   12  H   UNL     1     -13.090   8.708  73.475  1.00  0.00     0.000 HD 
ENDBRANCH   9  10
ENDBRANCH   6   7
ENDBRANCH   5   6
ENDBRANCH   4   5
TORSDOF 4
ENDMDL
MODEL      191
REMARK 921   NORMALIZED FREE ENERGY PREDICTED BY IDOCK:   -2.50 KCAL/MOL
REMARK 922        TOTAL FREE ENERGY PREDICTED BY IDOCK:   -3.41 KCAL/MOL
REMARK 923 INTER-LIGAND FREE ENERGY PREDICTED BY IDOCK:   -3.18 KCAL/MOL
REMARK 924 INTRA-LIGAND FREE ENERGY PREDICTED BY IDOCK:   -0.23 KCAL/MOL
REMARK 927      BINDING AFFINITY PREDICTED BY RF-SCORE:    0.00 PKD
ROOT
HETATM    1  C   UNL     1     -11.301  14.884  66.836  1.00  0.00    -0.338 C  
HETATM    2  C   UNL     1     -11.084  13.471  67.305  1.00  0.00    -0.302 C  
HETATM    3  C   UNL     1     -11.849  13.029  68.522  1.00  0.00    -0.360 C  
HETATM    4  C   UNL     1     -10.223  12.665  66.652  1.00  0.00    -0.246 C  
ENDROOT
BRANCH   4   5
HETATM    5  C   UNL     1      -9.948  11.219  66.971  1.00  0.00    -0.226 C  
BRANCH   5   6
HETATM    6  C   UNL     1      -9.993  10.328  65.724  1.00  0.00    -0.337 C  
BRANCH   6   7
HETATM    7  C   UNL     1      -9.617   8.884  66.003  1.00  0.00    -0.320 C  
HETATM    8  C   UNL     1     -10.393   8.178  67.083  1.00  0.00    -0.391 C  
HETATM    9  C   UNL     1      -8.603   8.290  65.343  1.00  0.00    -0.176 C  
BRANCH   9  10
HETATM   10  C   UNL     1      -8.087   6.901  65.546  1.00  0.00    -0.132 C  
HETATM   11  O   UNL     1      -8.763   6.039  64.646  1.00  0.00    -0.346 OA 
HETATM   12  H   UNL     1      -8.436   5.156  64.775  1.00  0.00     0.000 HD 
ENDBRANCH   9  10
ENDBRANCH   6   7
ENDBRANCH   5   6
ENDBRANCH   4   5
TORSDOF 4
ENDMDL
MODEL      192
REMARK 921   NORMALIZED FREE ENERGY PREDICTED BY IDOCK:   -2.49 KCAL/MOL
REMARK 922        TOTAL FREE ENERGY PREDICTED BY IDOCK:   -3.39 KCAL/MOL
REMARK 923 INTER-LIGAND FREE ENERGY PREDICTED BY IDOCK:   -3.14 KCAL/MOL
REMARK 924 INTRA-LIGAND FREE ENERGY PREDICTED BY IDOCK:   -0.25 KCAL/MOL
REMARK 927      BINDING AFFINITY PREDICTED BY RF-SCORE:    0.00 PKD
ROOT
HETATM    1  C   UNL     1      -6.359   8.495  65.797  1.00  0.00    -0.052 C  
HETATM    2  C   UNL     1      -7.061   9.798  66.067  1.00  0.00    -0.101 C  
HETATM    3  C   UNL     1      -6.306  10.835  66.851  1.00  0.00    -0.084 C  
HETATM    4  C   UNL     1      -8.320   9.993  65.624  1.00  0.00    -0.148 C  
ENDROOT
BRANCH   4   5
HETATM    5  C   UNL     1      -9.124  11.258  65.768  1.00  0.00    -0.216 C  
BRANCH   5   6
HETATM    6  C   UNL     1     -10.212  11.138  66.843  1.00  0.00    -0.260 C  
BRANCH   6   7
HETATM    7  C   UNL     1     -11.255  12.239  66.769  1.00  0.00    -0.371 C  
HETATM    8  C   UNL     1     -11.887  12.661  68.069  1.00  0.00    -0.376 C  
HETATM    9  C   UNL     1     -11.623  12.769  65.586  1.00  0.00    -0.410 C  
BRANCH   9  10
HETATM   10  C   UNL     1     -12.667  13.814  65.354  1.00  0.00    -0.472 C  
HETATM   11  O   UNL     1     -12.776  14.031  63.956  1.00  0.00    -0.654 OA 
HETATM   12  H   UNL     1     -13.440  14.695  63.808  1.00  0.00     0.000 HD 
ENDBRANCH   9  10
ENDBRANCH   6   7
ENDBRANCH   5   6
ENDBRANCH   4   5
TORSDOF 4
ENDMDL
MODEL      193
REMARK 921   NORMALIZED FREE ENERGY PREDICTED BY IDOCK:   -2.47 KCAL/MOL
REMARK 922        TOTAL FREE ENERGY PREDICTED BY IDOCK:   -3.37 KCAL/MOL
REMARK 923 INTER-LIGAND FREE ENERGY PREDICTED BY IDOCK:   -3.02 KCAL/MOL
REMARK 924 INTRA-LIGAND FREE ENERGY PREDICTED BY IDOCK:   -0.35 KCAL/MOL
REMARK 927      BINDING AFFINITY PREDICTED BY RF-SCORE:    0.00 PKD
ROOT
HETATM    1  C   UNL     1     -10.440  11.380  65.616  1.00  0.00    -0.316 C  
HETATM    2  C   UNL     1     -10.067  10.459  66.745  1.00  0.00    -0.267 C  
HETATM    3  C   UNL     1      -9.986   8.990  66.433  1.00  0.00    -0.370 C  
HETATM    4  C   UNL     1      -9.835  10.957  67.977  1.00  0.00    -0.185 C  
ENDROOT
BRANCH   4   5
HETATM    5  C   UNL     1      -9.401  10.167  69.184  1.00  0.00    -0.205 C  
BRANCH   5   6
HETATM    6  C   UNL     1     -10.580   9.798  70.094  1.00  0.00    -0.337 C  
BRANCH   6   7
HETATM    7  C   UNL     1     -10.343   8.535  70.903  1.00  0.00    -0.245 C  
HETATM    8  C   UNL     1      -9.813   8.716  72.301  1.00  0.00    -0.360 C  
HETATM    9  C   UNL     1     -10.554   7.317  70.366  1.00  0.00    -0.240 C  
BRANCH   9  10
HETATM   10  C   UNL     1     -10.316   5.993  71.019  1.00  0.00    -0.216 C  
HETATM   11  O   UNL     1     -10.436   4.982  70.031  1.00  0.00    -0.276 OA 
HETATM   12  H   UNL     1     -10.285   4.141  70.445  1.00  0.00     0.000 HD 
ENDBRANCH   9  10
ENDBRANCH   6   7
ENDBRANCH   5   6
ENDBRANCH   4   5
TORSDOF 4
ENDMDL
MODEL      194
REMARK 921   NORMALIZED FREE ENERGY PREDICTED BY IDOCK:   -2.46 KCAL/MOL
REMARK 922        TOTAL FREE ENERGY PREDICTED BY IDOCK:   -3.36 KCAL/MOL
REMARK 923 INTER-LIGAND FREE ENERGY PREDICTED BY IDOCK:   -3.15 KCAL/MOL
REMARK 924 INTRA-LIGAND FREE ENERGY PREDICTED BY IDOCK:   -0.20 KCAL/MOL
REMARK 927      BINDING AFFINITY PREDICTED BY RF-SCORE:    0.00 PKD
ROOT
HETATM    1  C   UNL     1     -11.133   5.771  71.626  1.00  0.00    -0.290 C  
HETATM    2  C   UNL     1     -10.972   7.232  71.305  1.00  0.00    -0.264 C  
HETATM    3  C   UNL     1     -10.822   8.176  72.466  1.00  0.00    -0.431 C  
HETATM    4  C   UNL     1     -10.980   7.648  70.022  1.00  0.00    -0.237 C  
ENDROOT
BRANCH   4   5
HETATM    5  C   UNL     1     -10.775   9.064  69.549  1.00  0.00    -0.215 C  
BRANCH   5   6
HETATM    6  C   UNL     1     -10.578   9.148  68.031  1.00  0.00    -0.253 C  
BRANCH   6   7
HETATM    7  C   UNL     1     -10.471  10.573  67.516  1.00  0.00    -0.284 C  
HETATM    8  C   UNL     1     -10.187  10.742  66.047  1.00  0.00    -0.310 C  
HETATM    9  C   UNL     1     -10.577  11.623  68.353  1.00  0.00    -0.235 C  
BRANCH   9  10
HETATM   10  C   UNL     1     -10.442  13.071  68.003  1.00  0.00    -0.228 C  
HETATM   11  O   UNL     1      -9.644  13.696  68.995  1.00  0.00    -0.407 OA 
HETATM   12  H   UNL     1      -9.558  14.616  68.772  1.00  0.00     0.000 HD 
ENDBRANCH   9  10
ENDBRANCH   6   7
ENDBRANCH   5   6
ENDBRANCH   4   5
TORSDOF 4
ENDMDL
MODEL      195
REMARK 921   NORMALIZED FREE ENERGY PREDICTED BY IDOCK:   -2.45 KCAL/MOL
REMARK 922        TOTAL FREE ENERGY PREDICTED BY IDOCK:   -3.34 KCAL/MOL
REMARK 923 INTER-LIGAND FREE ENERGY PREDICTED BY IDOCK:   -3.09 KCAL/MOL
REMARK 924 INTRA-LIGAND FREE ENERGY PREDICTED BY IDOCK:   -0.25 KCAL/MOL
REMARK 927      BINDING AFFINITY PREDICTED BY RF-SCORE:    0.00 PKD
ROOT
HETATM    1  C   UNL     1      -9.782  10.421  63.577  1.00  0.00    -0.333 C  
HETATM    2  C   UNL     1      -9.447  10.256  65.034  1.00  0.00    -0.314 C  
HETATM    3  C   UNL     1      -8.021   9.922  65.376  1.00  0.00    -0.134 C  
HETATM    4  C   UNL     1     -10.409  10.392  65.970  1.00  0.00    -0.262 C  
ENDROOT
BRANCH   4   5
HETATM    5  C   UNL     1     -10.212  10.311  67.461  1.00  0.00    -0.254 C  
BRANCH   5   6
HETATM    6  C   UNL     1     -11.382  10.925  68.238  1.00  0.00    -0.374 C  
BRANCH   6   7
HETATM    7  C   UNL     1     -11.107  12.338  68.723  1.00  0.00    -0.295 C  
HETATM    8  C   UNL     1     -11.960  12.843  69.857  1.00  0.00    -0.377 C  
HETATM    9  C   UNL     1     -10.177  13.108  68.125  1.00  0.00    -0.239 C  
BRANCH   9  10
HETATM   10  C   UNL     1      -9.835  14.526  68.455  1.00  0.00    -0.231 C  
HETATM   11  O   UNL     1     -10.545  15.374  67.566  1.00  0.00    -0.270 OA 
HETATM   12  H   UNL     1     -10.327  16.275  67.776  1.00  0.00     0.000 HD 
ENDBRANCH   9  10
ENDBRANCH   6   7
ENDBRANCH   5   6
ENDBRANCH   4   5
TORSDOF 4
ENDMDL
MODEL      196
REMARK 921   NORMALIZED FREE ENERGY PREDICTED BY IDOCK:   -2.44 KCAL/MOL
REMARK 922        TOTAL FREE ENERGY PREDICTED BY IDOCK:   -3.33 KCAL/MOL
REMARK 923 INTER-LIGAND FREE ENERGY PREDICTED BY IDOCK:   -3.07 KCAL/MOL
REMARK 924 INTRA-LIGAND FREE ENERGY PREDICTED BY IDOCK:   -0.26 KCAL/MOL
REMARK 927      BINDING AFFINITY PREDICTED BY RF-SCORE:    0.00 PKD
ROOT
HETATM    1  C   UNL     1     -10.913   6.349  66.797  1.00  0.00    -0.321 C  
HETATM    2  C   UNL     1     -10.045   5.645  67.804  1.00  0.00    -0.209 C  
HETATM    3  C   UNL     1      -8.678   5.214  67.349  1.00  0.00    -0.103 C  
HETATM    4  C   UNL     1     -10.505   5.413  69.051  1.00  0.00    -0.252 C  
ENDROOT
BRANCH   4   5
HETATM    5  C   UNL     1      -9.733   4.774  70.175  1.00  0.00    -0.288 C  
BRANCH   5   6
HETATM    6  C   UNL     1     -10.362   5.054  71.546  1.00  0.00    -0.252 C  
BRANCH   6   7
HETATM    7  C   UNL     1     -10.900   6.467  71.684  1.00  0.00    -0.281 C  
HETATM    8  C   UNL     1      -9.888   7.583  71.653  1.00  0.00    -0.185 C  
HETATM    9  C   UNL     1     -12.214   6.695  71.874  1.00  0.00    -0.381 C  
BRANCH   9  10
HETATM   10  C   UNL     1     -12.878   8.019  72.077  1.00  0.00    -0.287 C  
HETATM   11  O   UNL     1     -13.548   8.370  70.877  1.00  0.00    -0.509 OA 
HETATM   12  H   UNL     1     -13.970   9.212  71.007  1.00  0.00     0.000 HD 
ENDBRANCH   9  10
ENDBRANCH   6   7
ENDBRANCH   5   6
ENDBRANCH   4   5
TORSDOF 4
ENDMDL
MODEL      197
REMARK 921   NORMALIZED FREE ENERGY PREDICTED BY IDOCK:   -2.43 KCAL/MOL
REMARK 922        TOTAL FREE ENERGY PREDICTED BY IDOCK:   -3.31 KCAL/MOL
REMARK 923 INTER-LIGAND FREE ENERGY PREDICTED BY IDOCK:   -2.88 KCAL/MOL
REMARK 924 INTRA-LIGAND FREE ENERGY PREDICTED BY IDOCK:   -0.43 KCAL/MOL
REMARK 927      BINDING AFFINITY PREDICTED BY RF-SCORE:    0.00 PKD
ROOT
HETATM    1  C   UNL     1     -11.007   6.472  71.838  1.00  0.00    -0.288 C  
HETATM    2  C   UNL     1     -10.341   6.116  70.537  1.00  0.00    -0.270 C  
HETATM    3  C   UNL     1      -8.854   5.895  70.567  1.00  0.00    -0.147 C  
HETATM    4  C   UNL     1     -11.070   6.022  69.406  1.00  0.00    -0.445 C  
ENDROOT
BRANCH   4   5
HETATM    5  C   UNL     1     -10.553   5.622  68.050  1.00  0.00    -0.260 C  
BRANCH   5   6
HETATM    6  C   UNL     1     -10.925   6.636  66.962  1.00  0.00    -0.463 C  
BRANCH   6   7
HETATM    7  C   UNL     1      -9.740   7.443  66.461  1.00  0.00    -0.225 C  
HETATM    8  C   UNL     1      -8.415   6.730  66.394  1.00  0.00    -0.126 C  
HETATM    9  C   UNL     1      -9.871   8.746  66.143  1.00  0.00    -0.297 C  
BRANCH   9  10
HETATM   10  C   UNL     1      -8.791   9.675  65.690  1.00  0.00    -0.159 C  
HETATM   11  O   UNL     1      -8.840   9.758  64.274  1.00  0.00    -0.196 OA 
HETATM   12  H   UNL     1      -8.154  10.349  63.986  1.00  0.00     0.000 HD 
ENDBRANCH   9  10
ENDBRANCH   6   7
ENDBRANCH   5   6
ENDBRANCH   4   5
TORSDOF 4
ENDMDL
MODEL      198
REMARK 921   NORMALIZED FREE ENERGY PREDICTED BY IDOCK:   -2.43 KCAL/MOL
REMARK 922        TOTAL FREE ENERGY PREDICTED BY IDOCK:   -3.31 KCAL/MOL
REMARK 923 INTER-LIGAND FREE ENERGY PREDICTED BY IDOCK:   -3.11 KCAL/MOL
REMARK 924 INTRA-LIGAND FREE ENERGY PREDICTED BY IDOCK:   -0.20 KCAL/MOL
REMARK 927      BINDING AFFINITY PREDICTED BY RF-SCORE:    0.00 PKD
ROOT
HETATM    1  C   UNL     1     -10.692   5.228  66.448  1.00  0.00    -0.290 C  
HETATM    2  C   UNL     1     -10.760   6.423  67.359  1.00  0.00    -0.411 C  
HETATM    3  C   UNL     1     -10.907   6.156  68.831  1.00  0.00    -0.406 C  
HETATM    4  C   UNL     1     -10.704   7.670  66.846  1.00  0.00    -0.271 C  
ENDROOT
BRANCH   4   5
HETATM    5  C   UNL     1     -10.705   8.953  67.635  1.00  0.00    -0.221 C  
BRANCH   5   6
HETATM    6  C   UNL     1      -9.441   9.787  67.393  1.00  0.00    -0.178 C  
BRANCH   6   7
HETATM    7  C   UNL     1      -8.793   9.519  66.046  1.00  0.00    -0.183 C  
HETATM    8  C   UNL     1      -7.539   8.684  66.053  1.00  0.00    -0.093 C  
HETATM    9  C   UNL     1      -9.296  10.049  64.915  1.00  0.00    -0.324 C  
BRANCH   9  10
HETATM   10  C   UNL     1      -8.740   9.917  63.533  1.00  0.00    -0.214 C  
HETATM   11  O   UNL     1      -9.824   9.801  62.625  1.00  0.00    -0.518 OA 
HETATM   12  H   UNL     1      -9.471   9.717  61.747  1.00  0.00     0.000 HD 
ENDBRANCH   9  10
ENDBRANCH   6   7
ENDBRANCH   5   6
ENDBRANCH   4   5
TORSDOF 4
ENDMDL
MODEL      199
REMARK 921   NORMALIZED FREE ENERGY PREDICTED BY IDOCK:   -2.42 KCAL/MOL
REMARK 922        TOTAL FREE ENERGY PREDICTED BY IDOCK:   -3.31 KCAL/MOL
REMARK 923 INTER-LIGAND FREE ENERGY PREDICTED BY IDOCK:   -3.28 KCAL/MOL
REMARK 924 INTRA-LIGAND FREE ENERGY PREDICTED BY IDOCK:   -0.03 KCAL/MOL
REMARK 927      BINDING AFFINITY PREDICTED BY RF-SCORE:    0.00 PKD
ROOT
HETATM    1  C   UNL     1      -7.673  19.629  68.163  1.00  0.00    -0.344 C  
HETATM    2  C   UNL     1      -9.046  19.184  67.740  1.00  0.00    -0.344 C  
HETATM    3  C   UNL     1     -10.199  19.593  68.614  1.00  0.00    -0.498 C  
HETATM    4  C   UNL     1      -9.203  18.440  66.626  1.00  0.00    -0.305 C  
ENDROOT
BRANCH   4   5
HETATM    5  C   UNL     1     -10.515  17.972  66.051  1.00  0.00    -0.317 C  
BRANCH   5   6
HETATM    6  C   UNL     1     -10.474  16.498  65.630  1.00  0.00    -0.341 C  
BRANCH   6   7
HETATM    7  C   UNL     1      -9.652  15.628  66.564  1.00  0.00    -0.293 C  
HETATM    8  C   UNL     1     -10.411  14.835  67.595  1.00  0.00    -0.254 C  
HETATM    9  C   UNL     1      -8.306  15.614  66.496  1.00  0.00    -0.276 C  
BRANCH   9  10
HETATM   10  C   UNL     1      -7.368  14.854  67.377  1.00  0.00    -0.193 C  
HETATM   11  O   UNL     1      -6.763  15.768  68.278  1.00  0.00    -0.111 OA 
HETATM   12  H   UNL     1      -6.167  15.285  68.838  1.00  0.00     0.000 HD 
ENDBRANCH   9  10
ENDBRANCH   6   7
ENDBRANCH   5   6
ENDBRANCH   4   5
TORSDOF 4
ENDMDL
MODEL      200
REMARK 921   NORMALIZED FREE ENERGY PREDICTED BY IDOCK:   -2.42 KCAL/MOL
REMARK 922        TOTAL FREE ENERGY PREDICTED BY IDOCK:   -3.31 KCAL/MOL
REMARK 923 INTER-LIGAND FREE ENERGY PREDICTED BY IDOCK:   -2.98 KCAL/MOL
REMARK 924 INTRA-LIGAND FREE ENERGY PREDICTED BY IDOCK:   -0.32 KCAL/MOL
REMARK 927      BINDING AFFINITY PREDICTED BY RF-SCORE:    0.00 PKD
ROOT
HETATM    1  C   UNL     1      -5.902  12.837  67.782  1.00  0.00    -0.134 C  
HETATM    2  C   UNL     1      -6.819  13.676  68.629  1.00  0.00    -0.097 C  
HETATM    3  C   UNL     1      -6.452  13.842  70.078  1.00  0.00    -0.027 C  
HETATM    4  C   UNL     1      -7.922  14.231  68.087  1.00  0.00    -0.140 C  
ENDROOT
BRANCH   4   5
HETATM    5  C   UNL     1      -8.896  15.136  68.794  1.00  0.00    -0.196 C  
BRANCH   5   6
HETATM    6  C   UNL     1     -10.331  14.965  68.279  1.00  0.00    -0.232 C  
BRANCH   6   7
HETATM    7  C   UNL     1     -11.145  13.971  69.087  1.00  0.00    -0.294 C  
HETATM    8  C   UNL     1     -11.862  14.508  70.298  1.00  0.00    -0.373 C  
HETATM    9  C   UNL     1     -11.177  12.666  68.754  1.00  0.00    -0.325 C  
BRANCH   9  10
HETATM   10  C   UNL     1     -11.887  11.568  69.480  1.00  0.00    -0.351 C  
HETATM   11  O   UNL     1     -12.388  10.651  68.521  1.00  0.00    -0.814 OA 
HETATM   12  H   UNL     1     -12.839   9.953  68.983  1.00  0.00     0.000 HD 
ENDBRANCH   9  10
ENDBRANCH   6   7
ENDBRANCH   5   6
ENDBRANCH   4   5
TORSDOF 4
ENDMDL
MODEL      201
REMARK 921   NORMALIZED FREE ENERGY PREDICTED BY IDOCK:   -2.40 KCAL/MOL
REMARK 922        TOTAL FREE ENERGY PREDICTED BY IDOCK:   -3.28 KCAL/MOL
REMARK 923 INTER-LIGAND FREE ENERGY PREDICTED BY IDOCK:   -2.73 KCAL/MOL
REMARK 924 INTRA-LIGAND FREE ENERGY PREDICTED BY IDOCK:   -0.55 KCAL/MOL
REMARK 927      BINDING AFFINITY PREDICTED BY RF-SCORE:    0.00 PKD
ROOT
HETATM    1  C   UNL     1     -10.506   5.142  74.119  1.00  0.00    -0.326 C  
HETATM    2  C   UNL     1     -10.544   6.067  72.933  1.00  0.00    -0.262 C  
HETATM    3  C   UNL     1     -10.448   5.439  71.571  1.00  0.00    -0.289 C  
HETATM    4  C   UNL     1     -10.647   7.400  73.116  1.00  0.00    -0.424 C  
ENDROOT
BRANCH   4   5
HETATM    5  C   UNL     1     -10.753   8.437  72.030  1.00  0.00    -0.387 C  
BRANCH   5   6
HETATM    6  C   UNL     1      -9.379   8.875  71.506  1.00  0.00    -0.335 C  
BRANCH   6   7
HETATM    7  C   UNL     1      -9.128   8.470  70.065  1.00  0.00    -0.147 C  
HETATM    8  C   UNL     1     -10.163   8.888  69.054  1.00  0.00    -0.217 C  
HETATM    9  C   UNL     1      -8.053   7.730  69.729  1.00  0.00    -0.117 C  
BRANCH   9  10
HETATM   10  C   UNL     1      -7.704   7.214  68.369  1.00  0.00    -0.120 C  
HETATM   11  O   UNL     1      -8.269   5.921  68.225  1.00  0.00    -0.108 OA 
HETATM   12  H   UNL     1      -8.047   5.593  67.361  1.00  0.00     0.000 HD 
ENDBRANCH   9  10
ENDBRANCH   6   7
ENDBRANCH   5   6
ENDBRANCH   4   5
TORSDOF 4
ENDMDL
MODEL      202
REMARK 921   NORMALIZED FREE ENERGY PREDICTED BY IDOCK:   -2.39 KCAL/MOL
REMARK 922        TOTAL FREE ENERGY PREDICTED BY IDOCK:   -3.27 KCAL/MOL
REMARK 923 INTER-LIGAND FREE ENERGY PREDICTED BY IDOCK:   -3.05 KCAL/MOL
REMARK 924 INTRA-LIGAND FREE ENERGY PREDICTED BY IDOCK:   -0.22 KCAL/MOL
REMARK 927      BINDING AFFINITY PREDICTED BY RF-SCORE:    0.00 PKD
ROOT
HETATM    1  C   UNL     1     -10.160   4.680  70.253  1.00  0.00    -0.276 C  
HETATM    2  C   UNL     1      -9.275   5.808  70.708  1.00  0.00    -0.171 C  
HETATM    3  C   UNL     1      -8.883   5.828  72.160  1.00  0.00    -0.137 C  
HETATM    4  C   UNL     1      -8.878   6.753  69.832  1.00  0.00    -0.141 C  
ENDROOT
BRANCH   4   5
HETATM    5  C   UNL     1      -7.952   7.903  70.129  1.00  0.00    -0.107 C  
BRANCH   5   6
HETATM    6  C   UNL     1      -8.518   8.846  71.197  1.00  0.00    -0.250 C  
BRANCH   6   7
HETATM    7  C   UNL     1      -9.924   9.330  70.888  1.00  0.00    -0.367 C  
HETATM    8  C   UNL     1     -10.114  10.078  69.595  1.00  0.00    -0.263 C  
HETATM    9  C   UNL     1     -10.933   9.137  71.761  1.00  0.00    -0.429 C  
BRANCH   9  10
HETATM   10  C   UNL     1     -12.347   9.599  71.618  1.00  0.00    -0.404 C  
HETATM   11  O   UNL     1     -13.132   8.503  71.176  1.00  0.00    -0.502 OA 
HETATM   12  H   UNL     1     -14.031   8.797  71.086  1.00  0.00     0.000 HD 
ENDBRANCH   9  10
ENDBRANCH   6   7
ENDBRANCH   5   6
ENDBRANCH   4   5
TORSDOF 4
ENDMDL
MODEL      203
REMARK 921   NORMALIZED FREE ENERGY PREDICTED BY IDOCK:   -2.39 KCAL/MOL
REMARK 922        TOTAL FREE ENERGY PREDICTED BY IDOCK:   -3.27 KCAL/MOL
REMARK 923 INTER-LIGAND FREE ENERGY PREDICTED BY IDOCK:   -2.98 KCAL/MOL
REMARK 924 INTRA-LIGAND FREE ENERGY PREDICTED BY IDOCK:   -0.29 KCAL/MOL
REMARK 927      BINDING AFFINITY PREDICTED BY RF-SCORE:    0.00 PKD
ROOT
HETATM    1  C   UNL     1      -9.843   4.357  65.164  1.00  0.00    -0.193 C  
HETATM    2  C   UNL     1      -9.701   5.173  66.420  1.00  0.00    -0.186 C  
HETATM    3  C   UNL     1      -8.431   5.005  67.206  1.00  0.00    -0.105 C  
HETATM    4  C   UNL     1     -10.694   6.000  66.807  1.00  0.00    -0.374 C  
ENDROOT
BRANCH   4   5
HETATM    5  C   UNL     1     -10.670   6.915  68.003  1.00  0.00    -0.276 C  
BRANCH   5   6
HETATM    6  C   UNL     1     -11.232   6.243  69.262  1.00  0.00    -0.458 C  
BRANCH   6   7
HETATM    7  C   UNL     1     -11.020   7.058  70.525  1.00  0.00    -0.297 C  
HETATM    8  C   UNL     1     -11.766   8.363  70.621  1.00  0.00    -0.159 C  
HETATM    9  C   UNL     1     -10.165   6.648  71.482  1.00  0.00    -0.218 C  
BRANCH   9  10
HETATM   10  C   UNL     1      -9.816   7.366  72.746  1.00  0.00    -0.189 C  
HETATM   11  O   UNL     1     -10.803   7.060  73.719  1.00  0.00    -0.525 OA 
HETATM   12  H   UNL     1     -10.581   7.517  74.522  1.00  0.00     0.000 HD 
ENDBRANCH   9  10
ENDBRANCH   6   7
ENDBRANCH   5   6
ENDBRANCH   4   5
TORSDOF 4
ENDMDL
MODEL      204
REMARK 921   NORMALIZED FREE ENERGY PREDICTED BY IDOCK:   -2.39 KCAL/MOL
REMARK 922        TOTAL FREE ENERGY PREDICTED BY IDOCK:   -3.27 KCAL/MOL
REMARK 923 INTER-LIGAND FREE ENERGY PREDICTED BY IDOCK:   -2.78 KCAL/MOL
REMARK 924 INTRA-LIGAND FREE ENERGY PREDICTED BY IDOCK:   -0.49 KCAL/MOL
REMARK 927      BINDING AFFINITY PREDICTED BY RF-SCORE:    0.00 PKD
ROOT
HETATM    1  C   UNL     1      -6.707   5.736  66.884  1.00  0.00    -0.058 C  
HETATM    2  C   UNL     1      -7.580   5.895  68.098  1.00  0.00    -0.089 C  
HETATM    3  C   UNL     1      -7.131   6.881  69.141  1.00  0.00    -0.084 C  
HETATM    4  C   UNL     1      -8.705   5.162  68.225  1.00  0.00    -0.104 C  
ENDROOT
BRANCH   4   5
HETATM    5  C   UNL     1      -9.701   5.254  69.351  1.00  0.00    -0.241 C  
BRANCH   5   6
HETATM    6  C   UNL     1     -10.953   6.048  68.959  1.00  0.00    -0.409 C  
BRANCH   6   7
HETATM    7  C   UNL     1     -11.270   7.183  69.916  1.00  0.00    -0.241 C  
HETATM    8  C   UNL     1     -10.517   8.472  69.710  1.00  0.00    -0.220 C  
HETATM    9  C   UNL     1     -12.146   7.017  70.925  1.00  0.00    -0.403 C  
BRANCH   9  10
HETATM   10  C   UNL     1     -12.517   8.020  71.971  1.00  0.00    -0.320 C  
HETATM   11  O   UNL     1     -11.861   7.668  73.178  1.00  0.00    -0.607 OA 
HETATM   12  H   UNL     1     -12.096   8.305  73.842  1.00  0.00     0.000 HD 
ENDBRANCH   9  10
ENDBRANCH   6   7
ENDBRANCH   5   6
ENDBRANCH   4   5
TORSDOF 4
ENDMDL
MODEL      205
REMARK 921   NORMALIZED FREE ENERGY PREDICTED BY IDOCK:   -2.38 KCAL/MOL
REMARK 922        TOTAL FREE ENERGY PREDICTED BY IDOCK:   -3.25 KCAL/MOL
REMARK 923 INTER-LIGAND FREE ENERGY PREDICTED BY IDOCK:   -2.73 KCAL/MOL
REMARK 924 INTRA-LIGAND FREE ENERGY PREDICTED BY IDOCK:   -0.52 KCAL/MOL
REMARK 927      BINDING AFFINITY PREDICTED BY RF-SCORE:    0.00 PKD
ROOT
HETATM    1  C   UNL     1     -10.823  19.520  66.253  1.00  0.00    -0.430 C  
HETATM    2  C   UNL     1      -9.554  18.727  66.404  1.00  0.00    -0.354 C  
HETATM    3  C   UNL     1      -8.276  19.391  65.972  1.00  0.00    -0.245 C  
HETATM    4  C   UNL     1      -9.594  17.472  66.897  1.00  0.00    -0.279 C  
ENDROOT
BRANCH   4   5
HETATM    5  C   UNL     1      -8.405  16.584  67.156  1.00  0.00    -0.206 C  
BRANCH   5   6
HETATM    6  C   UNL     1      -8.036  16.525  68.644  1.00  0.00    -0.232 C  
BRANCH   6   7
HETATM    7  C   UNL     1      -6.668  17.109  68.948  1.00  0.00    -0.209 C  
HETATM    8  C   UNL     1      -5.486  16.190  68.778  1.00  0.00    -0.108 C  
HETATM    9  C   UNL     1      -6.537  18.373  69.395  1.00  0.00    -0.223 C  
BRANCH   9  10
HETATM   10  C   UNL     1      -5.268  19.063  69.784  1.00  0.00    -0.201 C  
HETATM   11  O   UNL     1      -5.166  19.043  71.199  1.00  0.00    -0.248 OA 
HETATM   12  H   UNL     1      -4.360  19.482  71.446  1.00  0.00     0.000 HD 
ENDBRANCH   9  10
ENDBRANCH   6   7
ENDBRANCH   5   6
ENDBRANCH   4   5
TORSDOF 4
ENDMDL
MODEL      206
REMARK 921   NORMALIZED FREE ENERGY PREDICTED BY IDOCK:   -2.37 KCAL/MOL
REMARK 922        TOTAL FREE ENERGY PREDICTED BY IDOCK:   -3.24 KCAL/MOL
REMARK 923 INTER-LIGAND FREE ENERGY PREDICTED BY IDOCK:   -2.97 KCAL/MOL
REMARK 924 INTRA-LIGAND FREE ENERGY PREDICTED BY IDOCK:   -0.27 KCAL/MOL
REMARK 927      BINDING AFFINITY PREDICTED BY RF-SCORE:    0.00 PKD
ROOT
HETATM    1  C   UNL     1      -8.439  15.389  67.757  1.00  0.00    -0.157 C  
HETATM    2  C   UNL     1      -9.582  14.873  66.926  1.00  0.00    -0.256 C  
HETATM    3  C   UNL     1     -10.628  15.868  66.506  1.00  0.00    -0.297 C  
HETATM    4  C   UNL     1      -9.647  13.565  66.601  1.00  0.00    -0.282 C  
ENDROOT
BRANCH   4   5
HETATM    5  C   UNL     1     -10.695  12.920  65.733  1.00  0.00    -0.293 C  
BRANCH   5   6
HETATM    6  C   UNL     1     -10.160  11.688  64.992  1.00  0.00    -0.305 C  
BRANCH   6   7
HETATM    7  C   UNL     1      -9.646  10.603  65.921  1.00  0.00    -0.253 C  
HETATM    8  C   UNL     1      -8.153  10.416  65.983  1.00  0.00    -0.143 C  
HETATM    9  C   UNL     1     -10.497   9.819  66.611  1.00  0.00    -0.233 C  
BRANCH   9  10
HETATM   10  C   UNL     1     -10.142   8.684  67.517  1.00  0.00    -0.216 C  
HETATM   11  O   UNL     1     -11.052   7.622  67.278  1.00  0.00    -0.538 OA 
HETATM   12  H   UNL     1     -10.826   6.900  67.854  1.00  0.00     0.000 HD 
ENDBRANCH   9  10
ENDBRANCH   6   7
ENDBRANCH   5   6
ENDBRANCH   4   5
TORSDOF 4
ENDMDL
MODEL      207
REMARK 921   NORMALIZED FREE ENERGY PREDICTED BY IDOCK:   -2.37 KCAL/MOL
REMARK 922        TOTAL FREE ENERGY PREDICTED BY IDOCK:   -3.24 KCAL/MOL
REMARK 923 INTER-LIGAND FREE ENERGY PREDICTED BY IDOCK:   -2.98 KCAL/MOL
REMARK 924 INTRA-LIGAND FREE ENERGY PREDICTED BY IDOCK:   -0.26 KCAL/MOL
REMARK 927      BINDING AFFINITY PREDICTED BY RF-SCORE:    0.00 PKD
ROOT
HETATM    1  C   UNL     1     -13.190  11.652  71.912  1.00  0.00    -0.475 C  
HETATM    2  C   UNL     1     -12.301  11.398  70.725  1.00  0.00    -0.483 C  
HETATM    3  C   UNL     1     -12.032  12.560  69.809  1.00  0.00    -0.359 C  
HETATM    4  C   UNL     1     -11.793  10.167  70.509  1.00  0.00    -0.408 C  
ENDROOT
BRANCH   4   5
HETATM    5  C   UNL     1     -10.849   9.780  69.401  1.00  0.00    -0.256 C  
BRANCH   5   6
HETATM    6  C   UNL     1      -9.753   8.819  69.879  1.00  0.00    -0.183 C  
BRANCH   6   7
HETATM    7  C   UNL     1      -9.648   7.560  69.037  1.00  0.00    -0.153 C  
HETATM    8  C   UNL     1     -10.792   6.586  69.130  1.00  0.00    -0.354 C  
HETATM    9  C   UNL     1      -8.556   7.316  68.286  1.00  0.00    -0.123 C  
BRANCH   9  10
HETATM   10  C   UNL     1      -8.289   6.104  67.452  1.00  0.00    -0.108 C  
HETATM   11  O   UNL     1      -7.621   5.147  68.258  1.00  0.00    -0.078 OA 
HETATM   12  H   UNL     1      -7.451   4.377  67.728  1.00  0.00     0.000 HD 
ENDBRANCH   9  10
ENDBRANCH   6   7
ENDBRANCH   5   6
ENDBRANCH   4   5
TORSDOF 4
ENDMDL
MODEL      208
REMARK 921   NORMALIZED FREE ENERGY PREDICTED BY IDOCK:   -2.36 KCAL/MOL
REMARK 922        TOTAL FREE ENERGY PREDICTED BY IDOCK:   -3.22 KCAL/MOL
REMARK 923 INTER-LIGAND FREE ENERGY PREDICTED BY IDOCK:   -2.79 KCAL/MOL
REMARK 924 INTRA-LIGAND FREE ENERGY PREDICTED BY IDOCK:   -0.43 KCAL/MOL
REMARK 927      BINDING AFFINITY PREDICTED BY RF-SCORE:    0.00 PKD
ROOT
HETATM    1  C   UNL     1      -7.913   8.569  68.329  1.00  0.00    -0.114 C  
HETATM    2  C   UNL     1      -9.357   8.810  67.982  1.00  0.00    -0.153 C  
HETATM    3  C   UNL     1      -9.990   7.873  66.992  1.00  0.00    -0.322 C  
HETATM    4  C   UNL     1     -10.025   9.840  68.542  1.00  0.00    -0.177 C  
ENDROOT
BRANCH   4   5
HETATM    5  C   UNL     1     -11.480  10.169  68.334  1.00  0.00    -0.086 C  
BRANCH   5   6
HETATM    6  C   UNL     1     -11.775  11.660  68.542  1.00  0.00    -0.378 C  
BRANCH   6   7
HETATM    7  C   UNL     1     -11.056  12.559  67.552  1.00  0.00    -0.311 C  
HETATM    8  C   UNL     1     -11.322  12.308  66.091  1.00  0.00    -0.402 C  
HETATM    9  C   UNL     1     -10.185  13.498  67.973  1.00  0.00    -0.243 C  
BRANCH   9  10
HETATM   10  C   UNL     1      -9.368  14.415  67.120  1.00  0.00    -0.220 C  
HETATM   11  O   UNL     1      -8.147  13.763  66.808  1.00  0.00    -0.387 OA 
HETATM   12  H   UNL     1      -7.628  14.346  66.265  1.00  0.00     0.000 HD 
ENDBRANCH   9  10
ENDBRANCH   6   7
ENDBRANCH   5   6
ENDBRANCH   4   5
TORSDOF 4
ENDMDL
MODEL      209
REMARK 921   NORMALIZED FREE ENERGY PREDICTED BY IDOCK:   -2.33 KCAL/MOL
REMARK 922        TOTAL FREE ENERGY PREDICTED BY IDOCK:   -3.19 KCAL/MOL
REMARK 923 INTER-LIGAND FREE ENERGY PREDICTED BY IDOCK:   -2.97 KCAL/MOL
REMARK 924 INTRA-LIGAND FREE ENERGY PREDICTED BY IDOCK:   -0.22 KCAL/MOL
REMARK 927      BINDING AFFINITY PREDICTED BY RF-SCORE:    0.00 PKD
ROOT
HETATM    1  C   UNL     1      -8.866   4.279  72.039  1.00  0.00    -0.134 C  
HETATM    2  C   UNL     1      -9.989   5.068  71.423  1.00  0.00    -0.259 C  
HETATM    3  C   UNL     1     -11.025   5.629  72.356  1.00  0.00    -0.311 C  
HETATM    4  C   UNL     1     -10.044   5.236  70.086  1.00  0.00    -0.333 C  
ENDROOT
BRANCH   4   5
HETATM    5  C   UNL     1     -11.071   6.044  69.336  1.00  0.00    -0.445 C  
BRANCH   5   6
HETATM    6  C   UNL     1     -10.487   6.712  68.085  1.00  0.00    -0.257 C  
BRANCH   6   7
HETATM    7  C   UNL     1     -10.032   8.141  68.323  1.00  0.00    -0.212 C  
HETATM    8  C   UNL     1     -10.307   9.131  67.221  1.00  0.00    -0.338 C  
HETATM    9  C   UNL     1      -9.372   8.482  69.447  1.00  0.00    -0.154 C  
BRANCH   9  10
HETATM   10  C   UNL     1      -8.820   9.828  69.794  1.00  0.00    -0.224 C  
HETATM   11  O   UNL     1      -8.309   9.772  71.116  1.00  0.00    -0.308 OA 
HETATM   12  H   UNL     1      -7.958  10.628  71.336  1.00  0.00     0.000 HD 
ENDBRANCH   9  10
ENDBRANCH   6   7
ENDBRANCH   5   6
ENDBRANCH   4   5
TORSDOF 4
ENDMDL
MODEL      210
REMARK 921   NORMALIZED FREE ENERGY PREDICTED BY IDOCK:   -2.32 KCAL/MOL
REMARK 922        TOTAL FREE ENERGY PREDICTED BY IDOCK:   -3.18 KCAL/MOL
REMARK 923 INTER-LIGAND FREE ENERGY PREDICTED BY IDOCK:   -2.94 KCAL/MOL
REMARK 924 INTRA-LIGAND FREE ENERGY PREDICTED BY IDOCK:   -0.25 KCAL/MOL
REMARK 927      BINDING AFFINITY PREDICTED BY RF-SCORE:    0.00 PKD
ROOT
HETATM    1  C   UNL     1      -8.690   4.367  71.713  1.00  0.00    -0.133 C  
HETATM    2  C   UNL     1      -9.869   5.096  71.129  1.00  0.00    -0.250 C  
HETATM    3  C   UNL     1     -10.895   5.623  72.093  1.00  0.00    -0.300 C  
HETATM    4  C   UNL     1      -9.980   5.242  69.792  1.00  0.00    -0.306 C  
ENDROOT
BRANCH   4   5
HETATM    5  C   UNL     1     -11.069   5.992  69.071  1.00  0.00    -0.377 C  
BRANCH   5   6
HETATM    6  C   UNL     1     -10.561   6.672  67.794  1.00  0.00    -0.311 C  
BRANCH   6   7
HETATM    7  C   UNL     1     -10.187   8.130  67.997  1.00  0.00    -0.263 C  
HETATM    8  C   UNL     1      -9.017   8.409  68.903  1.00  0.00    -0.146 C  
HETATM    9  C   UNL     1     -10.907   9.117  67.428  1.00  0.00    -0.140 C  
BRANCH   9  10
HETATM   10  C   UNL     1     -10.692  10.589  67.579  1.00  0.00    -0.276 C  
HETATM   11  O   UNL     1     -11.598  11.262  66.719  1.00  0.00    -0.433 OA 
HETATM   12  H   UNL     1     -11.462  12.197  66.815  1.00  0.00     0.000 HD 
ENDBRANCH   9  10
ENDBRANCH   6   7
ENDBRANCH   5   6
ENDBRANCH   4   5
TORSDOF 4
ENDMDL
MODEL      211
REMARK 921   NORMALIZED FREE ENERGY PREDICTED BY IDOCK:   -2.31 KCAL/MOL
REMARK 922        TOTAL FREE ENERGY PREDICTED BY IDOCK:   -3.17 KCAL/MOL
REMARK 923 INTER-LIGAND FREE ENERGY PREDICTED BY IDOCK:   -2.80 KCAL/MOL
REMARK 924 INTRA-LIGAND FREE ENERGY PREDICTED BY IDOCK:   -0.37 KCAL/MOL
REMARK 927      BINDING AFFINITY PREDICTED BY RF-SCORE:    0.00 PKD
ROOT
HETATM    1  C   UNL     1      -8.867  12.063  68.384  1.00  0.00    -0.149 C  
HETATM    2  C   UNL     1      -9.039  13.554  68.272  1.00  0.00    -0.189 C  
HETATM    3  C   UNL     1     -10.427  14.099  68.460  1.00  0.00    -0.252 C  
HETATM    4  C   UNL     1      -7.977  14.339  68.001  1.00  0.00    -0.142 C  
ENDROOT
BRANCH   4   5
HETATM    5  C   UNL     1      -7.986  15.843  67.916  1.00  0.00    -0.146 C  
BRANCH   5   6
HETATM    6  C   UNL     1      -8.431  16.346  66.537  1.00  0.00    -0.336 C  
BRANCH   6   7
HETATM    7  C   UNL     1      -9.269  17.611  66.599  1.00  0.00    -0.284 C  
HETATM    8  C   UNL     1     -10.575  17.596  65.848  1.00  0.00    -0.203 C  
HETATM    9  C   UNL     1      -8.831  18.702  67.256  1.00  0.00    -0.283 C  
BRANCH   9  10
HETATM   10  C   UNL     1      -9.517  20.027  67.359  1.00  0.00    -0.382 C  
HETATM   11  O   UNL     1     -10.184  20.088  68.609  1.00  0.00    -0.437 OA 
HETATM   12  H   UNL     1     -10.620  20.929  68.675  1.00  0.00     0.000 HD 
ENDBRANCH   9  10
ENDBRANCH   6   7
ENDBRANCH   5   6
ENDBRANCH   4   5
TORSDOF 4
ENDMDL
MODEL      212
REMARK 921   NORMALIZED FREE ENERGY PREDICTED BY IDOCK:   -2.30 KCAL/MOL
REMARK 922        TOTAL FREE ENERGY PREDICTED BY IDOCK:   -3.16 KCAL/MOL
REMARK 923 INTER-LIGAND FREE ENERGY PREDICTED BY IDOCK:   -2.66 KCAL/MOL
REMARK 924 INTRA-LIGAND FREE ENERGY PREDICTED BY IDOCK:   -0.50 KCAL/MOL
REMARK 927      BINDING AFFINITY PREDICTED BY RF-SCORE:    0.00 PKD
ROOT
HETATM    1  C   UNL     1      -7.777   4.048  71.548  1.00  0.00    -0.065 C  
HETATM    2  C   UNL     1      -8.647   5.023  70.803  1.00  0.00    -0.132 C  
HETATM    3  C   UNL     1      -7.955   6.029  69.926  1.00  0.00    -0.113 C  
HETATM    4  C   UNL     1      -9.988   4.981  70.947  1.00  0.00    -0.286 C  
ENDROOT
BRANCH   4   5
HETATM    5  C   UNL     1     -10.983   5.852  70.226  1.00  0.00    -0.390 C  
BRANCH   5   6
HETATM    6  C   UNL     1     -11.409   7.065  71.062  1.00  0.00    -0.325 C  
BRANCH   6   7
HETATM    7  C   UNL     1     -11.073   8.393  70.408  1.00  0.00    -0.240 C  
HETATM    8  C   UNL     1     -11.290   9.631  71.239  1.00  0.00    -0.458 C  
HETATM    9  C   UNL     1     -10.649   8.451  69.130  1.00  0.00    -0.177 C  
BRANCH   9  10
HETATM   10  C   UNL     1     -10.332   9.682  68.342  1.00  0.00    -0.204 C  
HETATM   11  O   UNL     1     -10.989   9.589  67.088  1.00  0.00    -0.265 OA 
HETATM   12  H   UNL     1     -10.787  10.371  66.587  1.00  0.00     0.000 HD 
ENDBRANCH   9  10
ENDBRANCH   6   7
ENDBRANCH   5   6
ENDBRANCH   4   5
TORSDOF 4
ENDMDL
MODEL      213
REMARK 921   NORMALIZED FREE ENERGY PREDICTED BY IDOCK:   -2.30 KCAL/MOL
REMARK 922        TOTAL FREE ENERGY PREDICTED BY IDOCK:   -3.15 KCAL/MOL
REMARK 923 INTER-LIGAND FREE ENERGY PREDICTED BY IDOCK:   -3.18 KCAL/MOL
REMARK 924 INTRA-LIGAND FREE ENERGY PREDICTED BY IDOCK:    0.02 KCAL/MOL
REMARK 927      BINDING AFFINITY PREDICTED BY RF-SCORE:    0.00 PKD
ROOT
HETATM    1  C   UNL     1     -11.511  14.287  67.831  1.00  0.00    -0.341 C  
HETATM    2  C   UNL     1     -11.737  13.552  69.123  1.00  0.00    -0.374 C  
HETATM    3  C   UNL     1     -11.833  14.379  70.375  1.00  0.00    -0.381 C  
HETATM    4  C   UNL     1     -11.833  12.206  69.129  1.00  0.00    -0.361 C  
ENDROOT
BRANCH   4   5
HETATM    5  C   UNL     1     -12.113  11.343  70.331  1.00  0.00    -0.473 C  
BRANCH   5   6
HETATM    6  C   UNL     1     -11.534   9.931  70.184  1.00  0.00    -0.309 C  
BRANCH   6   7
HETATM    7  C   UNL     1     -10.425   9.842  69.150  1.00  0.00    -0.232 C  
HETATM    8  C   UNL     1     -10.847   9.601  67.724  1.00  0.00    -0.278 C  
HETATM    9  C   UNL     1      -9.130   9.925  69.511  1.00  0.00    -0.237 C  
BRANCH   9  10
HETATM   10  C   UNL     1      -7.936   9.802  68.619  1.00  0.00    -0.089 C  
HETATM   11  O   UNL     1      -7.772  11.027  67.923  1.00  0.00    -0.100 OA 
HETATM   12  H   UNL     1      -7.014  10.949  67.356  1.00  0.00     0.000 HD 
ENDBRANCH   9  10
ENDBRANCH   6   7
ENDBRANCH   5   6
ENDBRANCH   4   5
TORSDOF 4
ENDMDL
MODEL      214
REMARK 921   NORMALIZED FREE ENERGY PREDICTED BY IDOCK:   -2.30 KCAL/MOL
REMARK 922        TOTAL FREE ENERGY PREDICTED BY IDOCK:   -3.15 KCAL/MOL
REMARK 923 INTER-LIGAND FREE ENERGY PREDICTED BY IDOCK:   -2.91 KCAL/MOL
REMARK 924 INTRA-LIGAND FREE ENERGY PREDICTED BY IDOCK:   -0.24 KCAL/MOL
REMARK 927      BINDING AFFINITY PREDICTED BY RF-SCORE:    0.00 PKD
ROOT
HETATM    1  C   UNL     1      -5.131  19.155  67.650  1.00  0.00    -0.170 C  
HETATM    2  C   UNL     1      -6.332  18.640  68.395  1.00  0.00    -0.221 C  
HETATM    3  C   UNL     1      -6.324  18.784  69.891  1.00  0.00    -0.140 C  
HETATM    4  C   UNL     1      -7.351  18.066  67.723  1.00  0.00    -0.213 C  
ENDROOT
BRANCH   4   5
HETATM    5  C   UNL     1      -8.635  17.559  68.325  1.00  0.00    -0.266 C  
BRANCH   5   6
HETATM    6  C   UNL     1      -8.756  16.032  68.240  1.00  0.00    -0.177 C  
BRANCH   6   7
HETATM    7  C   UNL     1     -10.184  15.533  68.371  1.00  0.00    -0.215 C  
HETATM    8  C   UNL     1     -11.007  16.123  69.487  1.00  0.00    -0.341 C  
HETATM    9  C   UNL     1     -10.662  14.574  67.556  1.00  0.00    -0.276 C  
BRANCH   9  10
HETATM   10  C   UNL     1     -12.021  13.950  67.599  1.00  0.00    -0.368 C  
HETATM   11  O   UNL     1     -12.723  14.330  66.427  1.00  0.00    -0.524 OA 
HETATM   12  H   UNL     1     -13.586  13.934  66.455  1.00  0.00     0.000 HD 
ENDBRANCH   9  10
ENDBRANCH   6   7
ENDBRANCH   5   6
ENDBRANCH   4   5
TORSDOF 4
ENDMDL
MODEL      215
REMARK 921   NORMALIZED FREE ENERGY PREDICTED BY IDOCK:   -2.26 KCAL/MOL
REMARK 922        TOTAL FREE ENERGY PREDICTED BY IDOCK:   -3.10 KCAL/MOL
REMARK 923 INTER-LIGAND FREE ENERGY PREDICTED BY IDOCK:   -2.53 KCAL/MOL
REMARK 924 INTRA-LIGAND FREE ENERGY PREDICTED BY IDOCK:   -0.57 KCAL/MOL
REMARK 927      BINDING AFFINITY PREDICTED BY RF-SCORE:    0.00 PKD
ROOT
HETATM    1  C   UNL     1      -6.639   7.482  66.866  1.00  0.00    -0.061 C  
HETATM    2  C   UNL     1      -8.015   7.844  67.356  1.00  0.00    -0.122 C  
HETATM    3  C   UNL     1      -8.119   8.997  68.314  1.00  0.00    -0.109 C  
HETATM    4  C   UNL     1      -9.088   7.136  66.946  1.00  0.00    -0.159 C  
ENDROOT
BRANCH   4   5
HETATM    5  C   UNL     1     -10.523   7.416  67.306  1.00  0.00    -0.385 C  
BRANCH   5   6
HETATM    6  C   UNL     1     -11.148   6.286  68.133  1.00  0.00    -0.364 C  
BRANCH   6   7
HETATM    7  C   UNL     1     -10.928   6.441  69.627  1.00  0.00    -0.420 C  
HETATM    8  C   UNL     1     -11.110   7.823  70.198  1.00  0.00    -0.216 C  
HETATM    9  C   UNL     1     -10.542   5.396  70.385  1.00  0.00    -0.322 C  
BRANCH   9  10
HETATM   10  C   UNL     1     -10.239   5.409  71.849  1.00  0.00    -0.203 C  
HETATM   11  O   UNL     1     -10.445   4.101  72.358  1.00  0.00    -0.170 OA 
HETATM   12  H   UNL     1     -10.252   4.110  73.289  1.00  0.00     0.000 HD 
ENDBRANCH   9  10
ENDBRANCH   6   7
ENDBRANCH   5   6
ENDBRANCH   4   5
TORSDOF 4
ENDMDL
MODEL      216
REMARK 921   NORMALIZED FREE ENERGY PREDICTED BY IDOCK:   -2.25 KCAL/MOL
REMARK 922        TOTAL FREE ENERGY PREDICTED BY IDOCK:   -3.10 KCAL/MOL
REMARK 923 INTER-LIGAND FREE ENERGY PREDICTED BY IDOCK:   -2.79 KCAL/MOL
REMARK 924 INTRA-LIGAND FREE ENERGY PREDICTED BY IDOCK:   -0.30 KCAL/MOL
REMARK 927      BINDING AFFINITY PREDICTED BY RF-SCORE:    0.00 PKD
ROOT
HETATM    1  C   UNL     1      -8.577   9.728  68.766  1.00  0.00    -0.127 C  
HETATM    2  C   UNL     1      -9.364   9.988  67.510  1.00  0.00    -0.162 C  
HETATM    3  C   UNL     1      -9.381   8.898  66.474  1.00  0.00    -0.252 C  
HETATM    4  C   UNL     1     -10.005  11.163  67.344  1.00  0.00    -0.204 C  
ENDROOT
BRANCH   4   5
HETATM    5  C   UNL     1     -10.872  11.540  66.172  1.00  0.00    -0.330 C  
BRANCH   5   6
HETATM    6  C   UNL     1     -10.105  12.343  65.113  1.00  0.00    -0.276 C  
BRANCH   6   7
HETATM    7  C   UNL     1     -10.263  13.845  65.266  1.00  0.00    -0.366 C  
HETATM    8  C   UNL     1     -11.313  14.506  64.413  1.00  0.00    -0.247 C  
HETATM    9  C   UNL     1      -9.462  14.547  66.091  1.00  0.00    -0.290 C  
BRANCH   9  10
HETATM   10  C   UNL     1      -9.464  16.027  66.305  1.00  0.00    -0.315 C  
HETATM   11  O   UNL     1      -8.157  16.424  66.689  1.00  0.00    -0.225 OA 
HETATM   12  H   UNL     1      -8.159  17.364  66.824  1.00  0.00     0.000 HD 
ENDBRANCH   9  10
ENDBRANCH   6   7
ENDBRANCH   5   6
ENDBRANCH   4   5
TORSDOF 4
ENDMDL
MODEL      217
REMARK 921   NORMALIZED FREE ENERGY PREDICTED BY IDOCK:   -2.24 KCAL/MOL
REMARK 922        TOTAL FREE ENERGY PREDICTED BY IDOCK:   -3.08 KCAL/MOL
REMARK 923 INTER-LIGAND FREE ENERGY PREDICTED BY IDOCK:   -2.73 KCAL/MOL
REMARK 924 INTRA-LIGAND FREE ENERGY PREDICTED BY IDOCK:   -0.35 KCAL/MOL
REMARK 927      BINDING AFFINITY PREDICTED BY RF-SCORE:    0.00 PKD
ROOT
HETATM    1  C   UNL     1     -11.043   6.421  68.130  1.00  0.00    -0.358 C  
HETATM    2  C   UNL     1      -9.803   6.959  67.470  1.00  0.00    -0.173 C  
HETATM    3  C   UNL     1      -8.484   6.410  67.939  1.00  0.00    -0.118 C  
HETATM    4  C   UNL     1      -9.901   7.903  66.511  1.00  0.00    -0.272 C  
ENDROOT
BRANCH   4   5
HETATM    5  C   UNL     1      -8.757   8.491  65.728  1.00  0.00    -0.210 C  
BRANCH   5   6
HETATM    6  C   UNL     1      -9.189   9.695  64.881  1.00  0.00    -0.306 C  
BRANCH   6   7
HETATM    7  C   UNL     1      -9.405  10.957  65.697  1.00  0.00    -0.236 C  
HETATM    8  C   UNL     1     -10.686  11.711  65.451  1.00  0.00    -0.341 C  
HETATM    9  C   UNL     1      -8.468  11.396  66.559  1.00  0.00    -0.170 C  
BRANCH   9  10
HETATM   10  C   UNL     1      -8.517  12.641  67.385  1.00  0.00    -0.186 C  
HETATM   11  O   UNL     1      -8.661  12.267  68.746  1.00  0.00    -0.362 OA 
HETATM   12  H   UNL     1      -8.693  13.058  69.272  1.00  0.00     0.000 HD 
ENDBRANCH   9  10
ENDBRANCH   6   7
ENDBRANCH   5   6
ENDBRANCH   4   5
TORSDOF 4
ENDMDL
MODEL      218
REMARK 921   NORMALIZED FREE ENERGY PREDICTED BY IDOCK:   -2.24 KCAL/MOL
REMARK 922        TOTAL FREE ENERGY PREDICTED BY IDOCK:   -3.08 KCAL/MOL
REMARK 923 INTER-LIGAND FREE ENERGY PREDICTED BY IDOCK:   -2.72 KCAL/MOL
REMARK 924 INTRA-LIGAND FREE ENERGY PREDICTED BY IDOCK:   -0.36 KCAL/MOL
REMARK 927      BINDING AFFINITY PREDICTED BY RF-SCORE:    0.00 PKD
ROOT
HETATM    1  C   UNL     1      -5.130  19.963  65.252  1.00  0.00    -0.180 C  
HETATM    2  C   UNL     1      -6.511  19.842  65.837  1.00  0.00    -0.240 C  
HETATM    3  C   UNL     1      -7.416  18.797  65.247  1.00  0.00     0.572 C  
HETATM    4  C   UNL     1      -6.895  20.660  66.839  1.00  0.00    -0.353 C  
ENDROOT
BRANCH   4   5
HETATM    5  C   UNL     1      -8.219  20.618  67.557  1.00  0.00    -0.254 C  
BRANCH   5   6
HETATM    6  C   UNL     1      -8.359  19.378  68.448  1.00  0.00    -0.385 C  
BRANCH   6   7
HETATM    7  C   UNL     1      -9.567  18.525  68.104  1.00  0.00    -0.353 C  
HETATM    8  C   UNL     1     -10.677  19.198  67.341  1.00  0.00    -0.578 C  
HETATM    9  C   UNL     1      -9.651  17.243  68.513  1.00  0.00    -0.291 C  
BRANCH   9  10
HETATM   10  C   UNL     1     -10.794  16.303  68.297  1.00  0.00    -0.340 C  
HETATM   11  O   UNL     1     -10.678  15.752  66.994  1.00  0.00    -0.315 OA 
HETATM   12  H   UNL     1     -11.404  15.155  66.857  1.00  0.00     0.000 HD 
ENDBRANCH   9  10
ENDBRANCH   6   7
ENDBRANCH   5   6
ENDBRANCH   4   5
TORSDOF 4
ENDMDL
MODEL      219
REMARK 921   NORMALIZED FREE ENERGY PREDICTED BY IDOCK:   -2.23 KCAL/MOL
REMARK 922        TOTAL FREE ENERGY PREDICTED BY IDOCK:   -3.07 KCAL/MOL
REMARK 923 INTER-LIGAND FREE ENERGY PREDICTED BY IDOCK:   -2.79 KCAL/MOL
REMARK 924 INTRA-LIGAND FREE ENERGY PREDICTED BY IDOCK:   -0.27 KCAL/MOL
REMARK 927      BINDING AFFINITY PREDICTED BY RF-SCORE:    0.00 PKD
ROOT
HETATM    1  C   UNL     1      -9.064   3.900  72.541  1.00  0.00    -0.137 C  
HETATM    2  C   UNL     1     -10.199   4.818  72.175  1.00  0.00    -0.258 C  
HETATM    3  C   UNL     1     -11.175   5.168  73.264  1.00  0.00    -0.389 C  
HETATM    4  C   UNL     1     -10.317   5.280  70.914  1.00  0.00    -0.303 C  
ENDROOT
BRANCH   4   5
HETATM    5  C   UNL     1     -11.362   6.245  70.418  1.00  0.00    -0.440 C  
BRANCH   5   6
HETATM    6  C   UNL     1     -10.746   7.533  69.859  1.00  0.00    -0.254 C  
BRANCH   6   7
HETATM    7  C   UNL     1     -10.327   7.418  68.404  1.00  0.00    -0.224 C  
HETATM    8  C   UNL     1     -11.056   6.398  67.568  1.00  0.00    -0.401 C  
HETATM    9  C   UNL     1      -9.317   8.161  67.911  1.00  0.00    -0.145 C  
BRANCH   9  10
HETATM   10  C   UNL     1      -8.762   8.118  66.523  1.00  0.00    -0.143 C  
HETATM   11  O   UNL     1      -7.814   9.165  66.390  1.00  0.00    -0.098 OA 
HETATM   12  H   UNL     1      -7.462   9.138  65.508  1.00  0.00     0.000 HD 
ENDBRANCH   9  10
ENDBRANCH   6   7
ENDBRANCH   5   6
ENDBRANCH   4   5
TORSDOF 4
ENDMDL
MODEL      220
REMARK 921   NORMALIZED FREE ENERGY PREDICTED BY IDOCK:   -2.22 KCAL/MOL
REMARK 922        TOTAL FREE ENERGY PREDICTED BY IDOCK:   -3.06 KCAL/MOL
REMARK 923 INTER-LIGAND FREE ENERGY PREDICTED BY IDOCK:   -2.86 KCAL/MOL
REMARK 924 INTRA-LIGAND FREE ENERGY PREDICTED BY IDOCK:   -0.20 KCAL/MOL
REMARK 927      BINDING AFFINITY PREDICTED BY RF-SCORE:    0.00 PKD
ROOT
HETATM    1  C   UNL     1      -6.372  12.366  69.356  1.00  0.00    -0.119 C  
HETATM    2  C   UNL     1      -6.582  13.830  69.631  1.00  0.00    -0.061 C  
HETATM    3  C   UNL     1      -5.854  14.417  70.809  1.00  0.00    -0.195 C  
HETATM    4  C   UNL     1      -7.405  14.556  68.847  1.00  0.00    -0.128 C  
ENDROOT
BRANCH   4   5
HETATM    5  C   UNL     1      -7.667  16.034  68.967  1.00  0.00    -0.216 C  
BRANCH   5   6
HETATM    6  C   UNL     1      -7.902  16.697  67.604  1.00  0.00    -0.189 C  
BRANCH   6   7
HETATM    7  C   UNL     1      -8.562  18.061  67.704  1.00  0.00    -0.247 C  
HETATM    8  C   UNL     1      -8.063  18.976  68.792  1.00  0.00    -0.372 C  
HETATM    9  C   UNL     1      -9.577  18.403  66.887  1.00  0.00    -0.305 C  
BRANCH   9  10
HETATM   10  C   UNL     1     -10.354  19.681  66.903  1.00  0.00    -0.465 C  
HETATM   11  O   UNL     1     -10.111  20.365  65.684  1.00  0.00    -0.560 OA 
HETATM   12  H   UNL     1     -10.604  21.177  65.694  1.00  0.00     0.000 HD 
ENDBRANCH   9  10
ENDBRANCH   6   7
ENDBRANCH   5   6
ENDBRANCH   4   5
TORSDOF 4
ENDMDL
MODEL      221
REMARK 921   NORMALIZED FREE ENERGY PREDICTED BY IDOCK:   -2.22 KCAL/MOL
REMARK 922        TOTAL FREE ENERGY PREDICTED BY IDOCK:   -3.05 KCAL/MOL
REMARK 923 INTER-LIGAND FREE ENERGY PREDICTED BY IDOCK:   -2.68 KCAL/MOL
REMARK 924 INTRA-LIGAND FREE ENERGY PREDICTED BY IDOCK:   -0.37 KCAL/MOL
REMARK 927      BINDING AFFINITY PREDICTED BY RF-SCORE:    0.00 PKD
ROOT
HETATM    1  C   UNL     1      -6.916   9.141  63.810  1.00  0.00    -0.089 C  
HETATM    2  C   UNL     1      -7.785   9.878  64.792  1.00  0.00    -0.138 C  
HETATM    3  C   UNL     1      -7.090  10.644  65.883  1.00  0.00    -0.115 C  
HETATM    4  C   UNL     1      -9.128   9.823  64.681  1.00  0.00    -0.294 C  
ENDROOT
BRANCH   4   5
HETATM    5  C   UNL     1     -10.119  10.551  65.552  1.00  0.00    -0.349 C  
BRANCH   5   6
HETATM    6  C   UNL     1     -10.409   9.801  66.858  1.00  0.00    -0.301 C  
BRANCH   6   7
HETATM    7  C   UNL     1     -10.681  10.723  68.033  1.00  0.00    -0.270 C  
HETATM    8  C   UNL     1     -10.199  12.144  67.905  1.00  0.00    -0.203 C  
HETATM    9  C   UNL     1     -11.281  10.266  69.150  1.00  0.00    -0.268 C  
BRANCH   9  10
HETATM   10  C   UNL     1     -11.566  11.037  70.399  1.00  0.00    -0.293 C  
HETATM   11  O   UNL     1     -12.862  10.684  70.854  1.00  0.00    -0.363 OA 
HETATM   12  H   UNL     1     -13.043  11.174  71.648  1.00  0.00     0.000 HD 
ENDBRANCH   9  10
ENDBRANCH   6   7
ENDBRANCH   5   6
ENDBRANCH   4   5
TORSDOF 4
ENDMDL
MODEL      222
REMARK 921   NORMALIZED FREE ENERGY PREDICTED BY IDOCK:   -2.17 KCAL/MOL
REMARK 922        TOTAL FREE ENERGY PREDICTED BY IDOCK:   -3.00 KCAL/MOL
REMARK 923 INTER-LIGAND FREE ENERGY PREDICTED BY IDOCK:   -2.69 KCAL/MOL
REMARK 924 INTRA-LIGAND FREE ENERGY PREDICTED BY IDOCK:   -0.31 KCAL/MOL
REMARK 927      BINDING AFFINITY PREDICTED BY RF-SCORE:    0.00 PKD
ROOT
HETATM    1  C   UNL     1     -10.114   5.368  67.388  1.00  0.00    -0.223 C  
HETATM    2  C   UNL     1      -9.637   5.279  68.812  1.00  0.00    -0.187 C  
HETATM    3  C   UNL     1      -8.152   5.316  69.041  1.00  0.00    -0.086 C  
HETATM    4  C   UNL     1     -10.528   5.159  69.818  1.00  0.00    -0.274 C  
ENDROOT
BRANCH   4   5
HETATM    5  C   UNL     1     -10.202   5.116  71.288  1.00  0.00    -0.292 C  
BRANCH   5   6
HETATM    6  C   UNL     1     -11.102   6.047  72.111  1.00  0.00    -0.328 C  
BRANCH   6   7
HETATM    7  C   UNL     1     -10.772   7.518  71.930  1.00  0.00    -0.253 C  
HETATM    8  C   UNL     1     -11.861   8.502  72.265  1.00  0.00    -0.453 C  
HETATM    9  C   UNL     1      -9.576   7.907  71.445  1.00  0.00    -0.187 C  
BRANCH   9  10
HETATM   10  C   UNL     1      -9.131   9.306  71.165  1.00  0.00    -0.127 C  
HETATM   11  O   UNL     1      -7.712   9.326  71.141  1.00  0.00    -0.282 OA 
HETATM   12  H   UNL     1      -7.429  10.215  70.963  1.00  0.00     0.000 HD 
ENDBRANCH   9  10
ENDBRANCH   6   7
ENDBRANCH   5   6
ENDBRANCH   4   5
TORSDOF 4
ENDMDL
MODEL      223
REMARK 921   NORMALIZED FREE ENERGY PREDICTED BY IDOCK:   -2.17 KCAL/MOL
REMARK 922        TOTAL FREE ENERGY PREDICTED BY IDOCK:   -3.00 KCAL/MOL
REMARK 923 INTER-LIGAND FREE ENERGY PREDICTED BY IDOCK:   -2.72 KCAL/MOL
REMARK 924 INTRA-LIGAND FREE ENERGY PREDICTED BY IDOCK:   -0.28 KCAL/MOL
REMARK 927      BINDING AFFINITY PREDICTED BY RF-SCORE:    0.00 PKD
ROOT
HETATM    1  C   UNL     1      -5.856  12.960  67.634  1.00  0.00    -0.136 C  
HETATM    2  C   UNL     1      -6.747  13.831  68.478  1.00  0.00    -0.094 C  
HETATM    3  C   UNL     1      -6.427  13.922  69.944  1.00  0.00    -0.077 C  
HETATM    4  C   UNL     1      -7.788  14.480  67.916  1.00  0.00    -0.153 C  
ENDROOT
BRANCH   4   5
HETATM    5  C   UNL     1      -8.725  15.426  68.620  1.00  0.00    -0.191 C  
BRANCH   5   6
HETATM    6  C   UNL     1     -10.102  15.489  67.948  1.00  0.00    -0.224 C  
BRANCH   6   7
HETATM    7  C   UNL     1     -11.206  14.854  68.775  1.00  0.00    -0.288 C  
HETATM    8  C   UNL     1     -11.619  13.457  68.394  1.00  0.00    -0.368 C  
HETATM    9  C   UNL     1     -11.811  15.537  69.766  1.00  0.00    -0.376 C  
BRANCH   9  10
HETATM   10  C   UNL     1     -12.940  15.066  70.625  1.00  0.00    -0.345 C  
HETATM   11  O   UNL     1     -13.150  16.024  71.650  1.00  0.00    -0.470 OA 
HETATM   12  H   UNL     1     -13.868  15.724  72.196  1.00  0.00     0.000 HD 
ENDBRANCH   9  10
ENDBRANCH   6   7
ENDBRANCH   5   6
ENDBRANCH   4   5
TORSDOF 4
ENDMDL
MODEL      224
REMARK 921   NORMALIZED FREE ENERGY PREDICTED BY IDOCK:   -2.17 KCAL/MOL
REMARK 922        TOTAL FREE ENERGY PREDICTED BY IDOCK:   -2.99 KCAL/MOL
REMARK 923 INTER-LIGAND FREE ENERGY PREDICTED BY IDOCK:   -2.45 KCAL/MOL
REMARK 924 INTRA-LIGAND FREE ENERGY PREDICTED BY IDOCK:   -0.54 KCAL/MOL
REMARK 927      BINDING AFFINITY PREDICTED BY RF-SCORE:    0.00 PKD
ROOT
HETATM    1  C   UNL     1      -8.458   6.874  72.884  1.00  0.00    -0.127 C  
HETATM    2  C   UNL     1      -8.930   7.224  71.499  1.00  0.00    -0.133 C  
HETATM    3  C   UNL     1      -7.874   7.461  70.455  1.00  0.00    -0.098 C  
HETATM    4  C   UNL     1     -10.249   7.326  71.238  1.00  0.00    -0.198 C  
ENDROOT
BRANCH   4   5
HETATM    5  C   UNL     1     -10.867   7.611  69.895  1.00  0.00    -0.241 C  
BRANCH   5   6
HETATM    6  C   UNL     1     -11.524   6.369  69.279  1.00  0.00    -0.318 C  
BRANCH   6   7
HETATM    7  C   UNL     1     -10.697   5.736  68.175  1.00  0.00    -0.288 C  
HETATM    8  C   UNL     1     -10.980   6.195  66.769  1.00  0.00    -0.322 C  
HETATM    9  C   UNL     1      -9.792   4.775  68.449  1.00  0.00    -0.187 C  
BRANCH   9  10
HETATM   10  C   UNL     1      -8.948   4.028  67.467  1.00  0.00    -0.129 C  
HETATM   11  O   UNL     1      -9.739   3.003  66.888  1.00  0.00    -0.412 OA 
HETATM   12  H   UNL     1      -9.203   2.528  66.264  1.00  0.00     0.000 HD 
ENDBRANCH   9  10
ENDBRANCH   6   7
ENDBRANCH   5   6
ENDBRANCH   4   5
TORSDOF 4
ENDMDL
MODEL      225
REMARK 921   NORMALIZED FREE ENERGY PREDICTED BY IDOCK:   -2.17 KCAL/MOL
REMARK 922        TOTAL FREE ENERGY PREDICTED BY IDOCK:   -2.99 KCAL/MOL
REMARK 923 INTER-LIGAND FREE ENERGY PREDICTED BY IDOCK:   -2.75 KCAL/MOL
REMARK 924 INTRA-LIGAND FREE ENERGY PREDICTED BY IDOCK:   -0.23 KCAL/MOL
REMARK 927      BINDING AFFINITY PREDICTED BY RF-SCORE:    0.00 PKD
ROOT
HETATM    1  C   UNL     1      -9.416   1.776  74.192  1.00  0.00    -0.085 C  
HETATM    2  C   UNL     1      -9.148   2.996  73.355  1.00  0.00    -0.093 C  
HETATM    3  C   UNL     1      -7.719   3.261  72.968  1.00  0.00    -0.060 C  
HETATM    4  C   UNL     1     -10.163   3.807  72.993  1.00  0.00    -0.229 C  
ENDROOT
BRANCH   4   5
HETATM    5  C   UNL     1     -10.054   5.026  72.115  1.00  0.00    -0.252 C  
BRANCH   5   6
HETATM    6  C   UNL     1     -10.088   4.673  70.623  1.00  0.00    -0.261 C  
BRANCH   6   7
HETATM    7  C   UNL     1     -10.647   5.787  69.755  1.00  0.00    -0.388 C  
HETATM    8  C   UNL     1     -11.756   6.615  70.347  1.00  0.00    -0.446 C  
HETATM    9  C   UNL     1     -10.197   5.981  68.499  1.00  0.00    -0.227 C  
BRANCH   9  10
HETATM   10  C   UNL     1     -10.685   6.995  67.515  1.00  0.00    -0.281 C  
HETATM   11  O   UNL     1     -10.244   6.610  66.223  1.00  0.00    -0.431 OA 
HETATM   12  H   UNL     1     -10.554   7.255  65.598  1.00  0.00     0.000 HD 
ENDBRANCH   9  10
ENDBRANCH   6   7
ENDBRANCH   5   6
ENDBRANCH   4   5
TORSDOF 4
ENDMDL
MODEL      226
REMARK 921   NORMALIZED FREE ENERGY PREDICTED BY IDOCK:   -2.16 KCAL/MOL
REMARK 922        TOTAL FREE ENERGY PREDICTED BY IDOCK:   -2.98 KCAL/MOL
REMARK 923 INTER-LIGAND FREE ENERGY PREDICTED BY IDOCK:   -2.48 KCAL/MOL
REMARK 924 INTRA-LIGAND FREE ENERGY PREDICTED BY IDOCK:   -0.50 KCAL/MOL
REMARK 927      BINDING AFFINITY PREDICTED BY RF-SCORE:    0.00 PKD
ROOT
HETATM    1  C   UNL     1      -6.882  18.773  68.069  1.00  0.00    -0.244 C  
HETATM    2  C   UNL     1      -7.821  17.677  67.644  1.00  0.00    -0.212 C  
HETATM    3  C   UNL     1      -7.668  17.147  66.246  1.00  0.00    -0.350 C  
HETATM    4  C   UNL     1      -8.759  17.221  68.499  1.00  0.00    -0.273 C  
ENDROOT
BRANCH   4   5
HETATM    5  C   UNL     1      -9.726  16.096  68.235  1.00  0.00    -0.220 C  
BRANCH   5   6
HETATM    6  C   UNL     1      -9.173  14.736  68.678  1.00  0.00    -0.194 C  
BRANCH   6   7
HETATM    7  C   UNL     1      -9.152  13.704  67.565  1.00  0.00    -0.213 C  
HETATM    8  C   UNL     1      -9.860  14.072  66.287  1.00  0.00    -0.318 C  
HETATM    9  C   UNL     1      -8.569  12.503  67.742  1.00  0.00    -0.178 C  
BRANCH   9  10
HETATM   10  C   UNL     1      -8.515  11.374  66.763  1.00  0.00    -0.165 C  
HETATM   11  O   UNL     1      -8.199  10.185  67.470  1.00  0.00    -0.113 OA 
HETATM   12  H   UNL     1      -8.165   9.468  66.847  1.00  0.00     0.000 HD 
ENDBRANCH   9  10
ENDBRANCH   6   7
ENDBRANCH   5   6
ENDBRANCH   4   5
TORSDOF 4
ENDMDL
MODEL      227
REMARK 921   NORMALIZED FREE ENERGY PREDICTED BY IDOCK:   -2.15 KCAL/MOL
REMARK 922        TOTAL FREE ENERGY PREDICTED BY IDOCK:   -2.97 KCAL/MOL
REMARK 923 INTER-LIGAND FREE ENERGY PREDICTED BY IDOCK:   -2.49 KCAL/MOL
REMARK 924 INTRA-LIGAND FREE ENERGY PREDICTED BY IDOCK:   -0.48 KCAL/MOL
REMARK 927      BINDING AFFINITY PREDICTED BY RF-SCORE:    0.00 PKD
ROOT
HETATM    1  C   UNL     1      -8.951   3.437  69.269  1.00  0.00    -0.178 C  
HETATM    2  C   UNL     1      -9.883   4.612  69.146  1.00  0.00    -0.242 C  
HETATM    3  C   UNL     1     -10.111   5.164  67.766  1.00  0.00    -0.197 C  
HETATM    4  C   UNL     1     -10.463   5.135  70.246  1.00  0.00    -0.296 C  
ENDROOT
BRANCH   4   5
HETATM    5  C   UNL     1     -11.455   6.267  70.270  1.00  0.00    -0.428 C  
BRANCH   5   6
HETATM    6  C   UNL     1     -10.988   7.433  71.152  1.00  0.00    -0.265 C  
BRANCH   6   7
HETATM    7  C   UNL     1      -9.650   8.010  70.726  1.00  0.00    -0.174 C  
HETATM    8  C   UNL     1      -9.589   8.645  69.362  1.00  0.00    -0.166 C  
HETATM    9  C   UNL     1      -8.565   7.908  71.520  1.00  0.00    -0.144 C  
BRANCH   9  10
HETATM   10  C   UNL     1      -7.179   8.378  71.214  1.00  0.00    -0.073 C  
HETATM   11  O   UNL     1      -7.185   9.796  71.192  1.00  0.00    -0.327 OA 
HETATM   12  H   UNL     1      -6.304  10.095  70.998  1.00  0.00     0.000 HD 
ENDBRANCH   9  10
ENDBRANCH   6   7
ENDBRANCH   5   6
ENDBRANCH   4   5
TORSDOF 4
ENDMDL
MODEL      228
REMARK 921   NORMALIZED FREE ENERGY PREDICTED BY IDOCK:   -2.15 KCAL/MOL
REMARK 922        TOTAL FREE ENERGY PREDICTED BY IDOCK:   -2.97 KCAL/MOL
REMARK 923 INTER-LIGAND FREE ENERGY PREDICTED BY IDOCK:   -2.85 KCAL/MOL
REMARK 924 INTRA-LIGAND FREE ENERGY PREDICTED BY IDOCK:   -0.12 KCAL/MOL
REMARK 927      BINDING AFFINITY PREDICTED BY RF-SCORE:    0.00 PKD
ROOT
HETATM    1  C   UNL     1     -10.515   5.827  66.799  1.00  0.00    -0.350 C  
HETATM    2  C   UNL     1     -10.571   6.509  68.139  1.00  0.00    -0.307 C  
HETATM    3  C   UNL     1     -10.599   5.627  69.356  1.00  0.00    -0.374 C  
HETATM    4  C   UNL     1     -10.608   7.856  68.212  1.00  0.00    -0.163 C  
ENDROOT
BRANCH   4   5
HETATM    5  C   UNL     1     -10.609   8.674  69.477  1.00  0.00    -0.218 C  
BRANCH   5   6
HETATM    6  C   UNL     1      -9.790   9.963  69.338  1.00  0.00    -0.231 C  
BRANCH   6   7
HETATM    7  C   UNL     1      -9.827  10.550  67.938  1.00  0.00    -0.181 C  
HETATM    8  C   UNL     1     -11.091  11.264  67.536  1.00  0.00    -0.346 C  
HETATM    9  C   UNL     1      -8.792  10.390  67.090  1.00  0.00    -0.141 C  
BRANCH   9  10
HETATM   10  C   UNL     1      -8.707  10.863  65.674  1.00  0.00    -0.183 C  
HETATM   11  O   UNL     1      -7.344  10.849  65.281  1.00  0.00    -0.356 OA 
HETATM   12  H   UNL     1      -7.290  11.149  64.381  1.00  0.00     0.000 HD 
ENDBRANCH   9  10
ENDBRANCH   6   7
ENDBRANCH   5   6
ENDBRANCH   4   5
TORSDOF 4
ENDMDL
MODEL      229
REMARK 921   NORMALIZED FREE ENERGY PREDICTED BY IDOCK:   -2.14 KCAL/MOL
REMARK 922        TOTAL FREE ENERGY PREDICTED BY IDOCK:   -2.96 KCAL/MOL
REMARK 923 INTER-LIGAND FREE ENERGY PREDICTED BY IDOCK:   -2.56 KCAL/MOL
REMARK 924 INTRA-LIGAND FREE ENERGY PREDICTED BY IDOCK:   -0.40 KCAL/MOL
REMARK 927      BINDING AFFINITY PREDICTED BY RF-SCORE:    0.00 PKD
ROOT
HETATM    1  C   UNL     1      -9.190   4.089  64.793  1.00  0.00    -0.152 C  
HETATM    2  C   UNL     1      -9.496   5.232  65.722  1.00  0.00    -0.132 C  
HETATM    3  C   UNL     1      -8.495   6.352  65.783  1.00  0.00    -0.148 C  
HETATM    4  C   UNL     1     -10.621   5.218  66.466  1.00  0.00    -0.348 C  
ENDROOT
BRANCH   4   5
HETATM    5  C   UNL     1     -11.084   6.312  67.392  1.00  0.00    -0.384 C  
BRANCH   5   6
HETATM    6  C   UNL     1     -10.759   6.009  68.860  1.00  0.00    -0.384 C  
BRANCH   6   7
HETATM    7  C   UNL     1     -10.099   7.170  69.582  1.00  0.00    -0.196 C  
HETATM    8  C   UNL     1      -9.113   6.821  70.665  1.00  0.00    -0.155 C  
HETATM    9  C   UNL     1     -10.427   8.444  69.292  1.00  0.00    -0.223 C  
BRANCH   9  10
HETATM   10  C   UNL     1      -9.903   9.681  69.951  1.00  0.00    -0.239 C  
HETATM   11  O   UNL     1      -9.909  10.730  68.997  1.00  0.00    -0.197 OA 
HETATM   12  H   UNL     1      -9.576  11.516  69.415  1.00  0.00     0.000 HD 
ENDBRANCH   9  10
ENDBRANCH   6   7
ENDBRANCH   5   6
ENDBRANCH   4   5
TORSDOF 4
ENDMDL
MODEL      230
REMARK 921   NORMALIZED FREE ENERGY PREDICTED BY IDOCK:   -2.10 KCAL/MOL
REMARK 922        TOTAL FREE ENERGY PREDICTED BY IDOCK:   -2.91 KCAL/MOL
REMARK 923 INTER-LIGAND FREE ENERGY PREDICTED BY IDOCK:   -2.41 KCAL/MOL
REMARK 924 INTRA-LIGAND FREE ENERGY PREDICTED BY IDOCK:   -0.50 KCAL/MOL
REMARK 927      BINDING AFFINITY PREDICTED BY RF-SCORE:    0.00 PKD
ROOT
HETATM    1  C   UNL     1      -8.084   4.715  66.902  1.00  0.00    -0.103 C  
HETATM    2  C   UNL     1      -9.085   5.625  67.559  1.00  0.00    -0.106 C  
HETATM    3  C   UNL     1      -9.753   5.121  68.809  1.00  0.00    -0.215 C  
HETATM    4  C   UNL     1      -9.361   6.830  67.020  1.00  0.00    -0.165 C  
ENDROOT
BRANCH   4   5
HETATM    5  C   UNL     1     -10.293   7.865  67.595  1.00  0.00    -0.307 C  
BRANCH   5   6
HETATM    6  C   UNL     1      -9.539   9.051  68.209  1.00  0.00    -0.158 C  
BRANCH   6   7
HETATM    7  C   UNL     1      -9.738   9.178  69.709  1.00  0.00    -0.191 C  
HETATM    8  C   UNL     1      -8.534   8.918  70.576  1.00  0.00    -0.198 C  
HETATM    9  C   UNL     1     -10.949   9.461  70.228  1.00  0.00    -0.305 C  
BRANCH   9  10
HETATM   10  C   UNL     1     -11.305   9.565  71.676  1.00  0.00    -0.341 C  
HETATM   11  O   UNL     1     -11.805   8.307  72.104  1.00  0.00    -0.321 OA 
HETATM   12  H   UNL     1     -12.031   8.373  73.024  1.00  0.00     0.000 HD 
ENDBRANCH   9  10
ENDBRANCH   6   7
ENDBRANCH   5   6
ENDBRANCH   4   5
TORSDOF 4
ENDMDL
MODEL      231
REMARK 921   NORMALIZED FREE ENERGY PREDICTED BY IDOCK:   -2.10 KCAL/MOL
REMARK 922        TOTAL FREE ENERGY PREDICTED BY IDOCK:   -2.90 KCAL/MOL
REMARK 923 INTER-LIGAND FREE ENERGY PREDICTED BY IDOCK:   -3.44 KCAL/MOL
REMARK 924 INTRA-LIGAND FREE ENERGY PREDICTED BY IDOCK:    0.54 KCAL/MOL
REMARK 927      BINDING AFFINITY PREDICTED BY RF-SCORE:    0.00 PKD
ROOT
HETATM    1  C   UNL     1      -9.928  11.037  64.888  1.00  0.00    -0.343 C  
HETATM    2  C   UNL     1     -10.815  11.651  65.936  1.00  0.00    -0.339 C  
HETATM    3  C   UNL     1     -11.117  10.818  67.152  1.00  0.00    -0.297 C  
HETATM    4  C   UNL     1     -11.314  12.891  65.759  1.00  0.00    -0.349 C  
ENDROOT
BRANCH   4   5
HETATM    5  C   UNL     1     -12.165  13.652  66.742  1.00  0.00    -0.416 C  
BRANCH   5   6
HETATM    6  C   UNL     1     -11.982  13.152  68.180  1.00  0.00    -0.333 C  
BRANCH   6   7
HETATM    7  C   UNL     1     -11.145  14.083  69.039  1.00  0.00    -0.296 C  
HETATM    8  C   UNL     1     -11.812  14.662  70.259  1.00  0.00    -0.363 C  
HETATM    9  C   UNL     1      -9.885  14.406  68.687  1.00  0.00    -0.231 C  
BRANCH   9  10
HETATM   10  C   UNL     1      -8.964  15.344  69.400  1.00  0.00    -0.258 C  
HETATM   11  O   UNL     1      -8.849  16.528  68.626  1.00  0.00    -0.218 OA 
HETATM   12  H   UNL     1      -8.263  17.124  69.079  1.00  0.00     0.000 HD 
ENDBRANCH   9  10
ENDBRANCH   6   7
ENDBRANCH   5   6
ENDBRANCH   4   5
TORSDOF 4
ENDMDL
MODEL      232
REMARK 921   NORMALIZED FREE ENERGY PREDICTED BY IDOCK:   -2.09 KCAL/MOL
REMARK 922        TOTAL FREE ENERGY PREDICTED BY IDOCK:   -2.89 KCAL/MOL
REMARK 923 INTER-LIGAND FREE ENERGY PREDICTED BY IDOCK:   -2.56 KCAL/MOL
REMARK 924 INTRA-LIGAND FREE ENERGY PREDICTED BY IDOCK:   -0.33 KCAL/MOL
REMARK 927      BINDING AFFINITY PREDICTED BY RF-SCORE:    0.00 PKD
ROOT
HETATM    1  C   UNL     1     -12.472   6.937  71.330  1.00  0.00    -0.409 C  
HETATM    2  C   UNL     1     -11.162   7.642  71.106  1.00  0.00    -0.280 C  
HETATM    3  C   UNL     1     -11.092   9.094  71.489  1.00  0.00    -0.436 C  
HETATM    4  C   UNL     1     -10.118   6.978  70.569  1.00  0.00    -0.202 C  
ENDROOT
BRANCH   4   5
HETATM    5  C   UNL     1      -8.738   7.535  70.340  1.00  0.00    -0.144 C  
BRANCH   5   6
HETATM    6  C   UNL     1      -7.952   6.733  69.295  1.00  0.00    -0.115 C  
BRANCH   6   7
HETATM    7  C   UNL     1      -8.694   6.567  67.981  1.00  0.00    -0.116 C  
HETATM    8  C   UNL     1      -9.010   7.826  67.218  1.00  0.00    -0.136 C  
HETATM    9  C   UNL     1      -9.089   5.351  67.555  1.00  0.00    -0.107 C  
BRANCH   9  10
HETATM   10  C   UNL     1      -9.868   5.040  66.318  1.00  0.00    -0.200 C  
HETATM   11  O   UNL     1     -10.115   3.643  66.286  1.00  0.00    -0.414 OA 
HETATM   12  H   UNL     1     -10.610   3.446  65.500  1.00  0.00     0.000 HD 
ENDBRANCH   9  10
ENDBRANCH   6   7
ENDBRANCH   5   6
ENDBRANCH   4   5
TORSDOF 4
ENDMDL
MODEL      233
REMARK 921   NORMALIZED FREE ENERGY PREDICTED BY IDOCK:   -2.08 KCAL/MOL
REMARK 922        TOTAL FREE ENERGY PREDICTED BY IDOCK:   -2.89 KCAL/MOL
REMARK 923 INTER-LIGAND FREE ENERGY PREDICTED BY IDOCK:   -2.66 KCAL/MOL
REMARK 924 INTRA-LIGAND FREE ENERGY PREDICTED BY IDOCK:   -0.23 KCAL/MOL
REMARK 927      BINDING AFFINITY PREDICTED BY RF-SCORE:    0.00 PKD
ROOT
HETATM    1  C   UNL     1      -9.744   1.880  74.408  1.00  0.00    -0.114 C  
HETATM    2  C   UNL     1      -9.627   3.112  73.553  1.00  0.00    -0.132 C  
HETATM    3  C   UNL     1      -8.372   3.265  72.739  1.00  0.00    -0.080 C  
HETATM    4  C   UNL     1     -10.615   4.030  73.549  1.00  0.00    -0.282 C  
ENDROOT
BRANCH   4   5
HETATM    5  C   UNL     1     -10.661   5.278  72.706  1.00  0.00    -0.292 C  
BRANCH   5   6
HETATM    6  C   UNL     1     -12.086   5.822  72.548  1.00  0.00    -0.084 C  
BRANCH   6   7
HETATM    7  C   UNL     1     -12.155   7.101  71.732  1.00  0.00    -0.363 C  
HETATM    8  C   UNL     1     -13.519   7.712  71.545  1.00  0.00    -0.394 C  
HETATM    9  C   UNL     1     -11.049   7.624  71.167  1.00  0.00    -0.269 C  
BRANCH   9  10
HETATM   10  C   UNL     1     -10.971   8.839  70.299  1.00  0.00    -0.235 C  
HETATM   11  O   UNL     1     -11.227   8.448  68.960  1.00  0.00    -0.412 OA 
HETATM   12  H   UNL     1     -11.177   9.220  68.408  1.00  0.00     0.000 HD 
ENDBRANCH   9  10
ENDBRANCH   6   7
ENDBRANCH   5   6
ENDBRANCH   4   5
TORSDOF 4
ENDMDL
MODEL      234
REMARK 921   NORMALIZED FREE ENERGY PREDICTED BY IDOCK:   -2.08 KCAL/MOL
REMARK 922        TOTAL FREE ENERGY PREDICTED BY IDOCK:   -2.88 KCAL/MOL
REMARK 923 INTER-LIGAND FREE ENERGY PREDICTED BY IDOCK:   -2.65 KCAL/MOL
REMARK 924 INTRA-LIGAND FREE ENERGY PREDICTED BY IDOCK:   -0.23 KCAL/MOL
REMARK 927      BINDING AFFINITY PREDICTED BY RF-SCORE:    0.00 PKD
ROOT
HETATM    1  C   UNL     1     -11.963   6.688  70.468  1.00  0.00    -0.377 C  
HETATM    2  C   UNL     1     -11.184   7.900  70.903  1.00  0.00    -0.284 C  
HETATM    3  C   UNL     1     -11.860   8.840  71.862  1.00  0.00    -0.437 C  
HETATM    4  C   UNL     1      -9.942   8.114  70.424  1.00  0.00    -0.190 C  
ENDROOT
BRANCH   4   5
HETATM    5  C   UNL     1      -9.028   9.247  70.811  1.00  0.00    -0.292 C  
BRANCH   5   6
HETATM    6  C   UNL     1      -7.735   9.260  69.986  1.00  0.00    -0.104 C  
BRANCH   6   7
HETATM    7  C   UNL     1      -7.197  10.657  69.732  1.00  0.00    -0.135 C  
HETATM    8  C   UNL     1      -7.700  11.362  68.500  1.00  0.00    -0.133 C  
HETATM    9  C   UNL     1      -6.278  11.207  70.549  1.00  0.00    -0.024 C  
BRANCH   9  10
HETATM   10  C   UNL     1      -5.623  12.543  70.398  1.00  0.00    -0.161 C  
HETATM   11  O   UNL     1      -6.360  13.489  71.155  1.00  0.00    -0.513 OA 
HETATM   12  H   UNL     1      -5.944  14.338  71.059  1.00  0.00     0.000 HD 
ENDBRANCH   9  10
ENDBRANCH   6   7
ENDBRANCH   5   6
ENDBRANCH   4   5
TORSDOF 4
ENDMDL
MODEL      235
REMARK 921   NORMALIZED FREE ENERGY PREDICTED BY IDOCK:   -2.07 KCAL/MOL
REMARK 922        TOTAL FREE ENERGY PREDICTED BY IDOCK:   -2.88 KCAL/MOL
REMARK 923 INTER-LIGAND FREE ENERGY PREDICTED BY IDOCK:   -2.58 KCAL/MOL
REMARK 924 INTRA-LIGAND FREE ENERGY PREDICTED BY IDOCK:   -0.29 KCAL/MOL
REMARK 927      BINDING AFFINITY PREDICTED BY RF-SCORE:    0.00 PKD
ROOT
HETATM    1  C   UNL     1      -7.656   6.399  67.230  1.00  0.00    -0.096 C  
HETATM    2  C   UNL     1      -8.877   5.778  67.851  1.00  0.00    -0.108 C  
HETATM    3  C   UNL     1      -9.980   5.356  66.920  1.00  0.00    -0.209 C  
HETATM    4  C   UNL     1      -8.957   5.633  69.189  1.00  0.00    -0.120 C  
ENDROOT
BRANCH   4   5
HETATM    5  C   UNL     1     -10.086   4.982  69.944  1.00  0.00    -0.344 C  
BRANCH   5   6
HETATM    6  C   UNL     1     -10.883   5.988  70.783  1.00  0.00    -0.358 C  
BRANCH   6   7
HETATM    7  C   UNL     1     -10.553   5.930  72.264  1.00  0.00    -0.260 C  
HETATM    8  C   UNL     1     -11.516   5.177  73.144  1.00  0.00    -0.348 C  
HETATM    9  C   UNL     1      -9.475   6.568  72.761  1.00  0.00    -0.150 C  
BRANCH   9  10
HETATM   10  C   UNL     1      -9.055   6.644  74.194  1.00  0.00    -0.181 C  
HETATM   11  O   UNL     1      -8.890   8.010  74.538  1.00  0.00    -0.409 OA 
HETATM   12  H   UNL     1      -8.623   8.058  75.449  1.00  0.00     0.000 HD 
ENDBRANCH   9  10
ENDBRANCH   6   7
ENDBRANCH   5   6
ENDBRANCH   4   5
TORSDOF 4
ENDMDL
MODEL      236
REMARK 921   NORMALIZED FREE ENERGY PREDICTED BY IDOCK:   -2.06 KCAL/MOL
REMARK 922        TOTAL FREE ENERGY PREDICTED BY IDOCK:   -2.86 KCAL/MOL
REMARK 923 INTER-LIGAND FREE ENERGY PREDICTED BY IDOCK:   -2.60 KCAL/MOL
REMARK 924 INTRA-LIGAND FREE ENERGY PREDICTED BY IDOCK:   -0.26 KCAL/MOL
REMARK 927      BINDING AFFINITY PREDICTED BY RF-SCORE:    0.00 PKD
ROOT
HETATM    1  C   UNL     1      -8.522   7.990  74.263  1.00  0.00    -0.251 C  
HETATM    2  C   UNL     1      -9.410   7.168  73.369  1.00  0.00    -0.220 C  
HETATM    3  C   UNL     1      -9.576   5.715  73.717  1.00  0.00    -0.143 C  
HETATM    4  C   UNL     1     -10.006   7.735  72.300  1.00  0.00    -0.259 C  
ENDROOT
BRANCH   4   5
HETATM    5  C   UNL     1     -10.961   7.055  71.354  1.00  0.00    -0.266 C  
BRANCH   5   6
HETATM    6  C   UNL     1     -10.257   6.518  70.102  1.00  0.00    -0.226 C  
BRANCH   6   7
HETATM    7  C   UNL     1     -10.621   7.275  68.837  1.00  0.00    -0.207 C  
HETATM    8  C   UNL     1     -11.110   6.453  67.673  1.00  0.00    -0.388 C  
HETATM    9  C   UNL     1     -10.462   8.610  68.756  1.00  0.00    -0.209 C  
BRANCH   9  10
HETATM   10  C   UNL     1     -10.726   9.478  67.567  1.00  0.00    -0.245 C  
HETATM   11  O   UNL     1      -9.667   9.297  66.640  1.00  0.00    -0.183 OA 
HETATM   12  H   UNL     1      -9.835   9.848  65.884  1.00  0.00     0.000 HD 
ENDBRANCH   9  10
ENDBRANCH   6   7
ENDBRANCH   5   6
ENDBRANCH   4   5
TORSDOF 4
ENDMDL
MODEL      237
REMARK 921   NORMALIZED FREE ENERGY PREDICTED BY IDOCK:   -2.05 KCAL/MOL
REMARK 922        TOTAL FREE ENERGY PREDICTED BY IDOCK:   -2.85 KCAL/MOL
REMARK 923 INTER-LIGAND FREE ENERGY PREDICTED BY IDOCK:   -2.51 KCAL/MOL
REMARK 924 INTRA-LIGAND FREE ENERGY PREDICTED BY IDOCK:   -0.33 KCAL/MOL
REMARK 927      BINDING AFFINITY PREDICTED BY RF-SCORE:    0.00 PKD
ROOT
HETATM    1  C   UNL     1     -10.989   5.388  71.955  1.00  0.00    -0.244 C  
HETATM    2  C   UNL     1     -10.613   6.838  71.812  1.00  0.00    -0.237 C  
HETATM    3  C   UNL     1     -10.202   7.566  73.061  1.00  0.00    -0.360 C  
HETATM    4  C   UNL     1     -10.666   7.435  70.603  1.00  0.00    -0.242 C  
ENDROOT
BRANCH   4   5
HETATM    5  C   UNL     1     -10.268   8.855  70.299  1.00  0.00    -0.230 C  
BRANCH   5   6
HETATM    6  C   UNL     1     -10.286   9.156  68.795  1.00  0.00    -0.235 C  
BRANCH   6   7
HETATM    7  C   UNL     1      -9.173   8.463  68.029  1.00  0.00    -0.143 C  
HETATM    8  C   UNL     1      -7.768   8.698  68.517  1.00  0.00    -0.100 C  
HETATM    9  C   UNL     1      -9.439   7.718  66.939  1.00  0.00    -0.238 C  
BRANCH   9  10
HETATM   10  C   UNL     1      -8.449   7.023  66.059  1.00  0.00    -0.139 C  
HETATM   11  O   UNL     1      -9.161   6.349  65.034  1.00  0.00    -0.347 OA 
HETATM   12  H   UNL     1      -8.531   5.908  64.475  1.00  0.00     0.000 HD 
ENDBRANCH   9  10
ENDBRANCH   6   7
ENDBRANCH   5   6
ENDBRANCH   4   5
TORSDOF 4
ENDMDL
MODEL      238
REMARK 921   NORMALIZED FREE ENERGY PREDICTED BY IDOCK:   -2.05 KCAL/MOL
REMARK 922        TOTAL FREE ENERGY PREDICTED BY IDOCK:   -2.84 KCAL/MOL
REMARK 923 INTER-LIGAND FREE ENERGY PREDICTED BY IDOCK:   -2.55 KCAL/MOL
REMARK 924 INTRA-LIGAND FREE ENERGY PREDICTED BY IDOCK:   -0.29 KCAL/MOL
REMARK 927      BINDING AFFINITY PREDICTED BY RF-SCORE:    0.00 PKD
ROOT
HETATM    1  C   UNL     1      -9.436  16.321  67.226  1.00  0.00    -0.231 C  
HETATM    2  C   UNL     1     -10.413  15.193  67.033  1.00  0.00    -0.282 C  
HETATM    3  C   UNL     1     -11.293  15.249  65.816  1.00  0.00    -0.180 C  
HETATM    4  C   UNL     1     -10.483  14.195  67.938  1.00  0.00    -0.237 C  
ENDROOT
BRANCH   4   5
HETATM    5  C   UNL     1     -11.366  12.979  67.849  1.00  0.00    -0.327 C  
BRANCH   5   6
HETATM    6  C   UNL     1     -10.739  11.864  67.003  1.00  0.00    -0.280 C  
BRANCH   6   7
HETATM    7  C   UNL     1     -10.367  10.633  67.811  1.00  0.00    -0.239 C  
HETATM    8  C   UNL     1     -10.740   9.298  67.222  1.00  0.00    -0.244 C  
HETATM    9  C   UNL     1      -9.776  10.747  69.017  1.00  0.00    -0.201 C  
BRANCH   9  10
HETATM   10  C   UNL     1      -9.401   9.635  69.944  1.00  0.00    -0.228 C  
HETATM   11  O   UNL     1      -8.134   9.134  69.548  1.00  0.00    -0.097 OA 
HETATM   12  H   UNL     1      -7.896   8.427  70.137  1.00  0.00     0.000 HD 
ENDBRANCH   9  10
ENDBRANCH   6   7
ENDBRANCH   5   6
ENDBRANCH   4   5
TORSDOF 4
ENDMDL
MODEL      239
REMARK 921   NORMALIZED FREE ENERGY PREDICTED BY IDOCK:   -2.04 KCAL/MOL
REMARK 922        TOTAL FREE ENERGY PREDICTED BY IDOCK:   -2.84 KCAL/MOL
REMARK 923 INTER-LIGAND FREE ENERGY PREDICTED BY IDOCK:   -2.32 KCAL/MOL
REMARK 924 INTRA-LIGAND FREE ENERGY PREDICTED BY IDOCK:   -0.52 KCAL/MOL
REMARK 927      BINDING AFFINITY PREDICTED BY RF-SCORE:    0.00 PKD
ROOT
HETATM    1  C   UNL     1      -9.637   4.202  64.808  1.00  0.00    -0.176 C  
HETATM    2  C   UNL     1      -9.482   5.140  65.974  1.00  0.00    -0.170 C  
HETATM    3  C   UNL     1      -8.085   5.571  66.325  1.00  0.00    -0.106 C  
HETATM    4  C   UNL     1     -10.566   5.548  66.664  1.00  0.00    -0.365 C  
ENDROOT
BRANCH   4   5
HETATM    5  C   UNL     1     -10.570   6.524  67.812  1.00  0.00    -0.321 C  
BRANCH   5   6
HETATM    6  C   UNL     1     -10.960   5.861  69.139  1.00  0.00    -0.382 C  
BRANCH   6   7
HETATM    7  C   UNL     1      -9.766   5.500  70.004  1.00  0.00    -0.238 C  
HETATM    8  C   UNL     1      -9.776   4.131  70.634  1.00  0.00    -0.273 C  
HETATM    9  C   UNL     1      -8.778   6.387  70.230  1.00  0.00    -0.143 C  
BRANCH   9  10
HETATM   10  C   UNL     1      -7.575   6.194  71.097  1.00  0.00    -0.093 C  
HETATM   11  O   UNL     1      -6.537   7.030  70.611  1.00  0.00    -0.049 OA 
HETATM   12  H   UNL     1      -5.773   6.907  71.162  1.00  0.00     0.000 HD 
ENDBRANCH   9  10
ENDBRANCH   6   7
ENDBRANCH   5   6
ENDBRANCH   4   5
TORSDOF 4
ENDMDL
MODEL      240
REMARK 921   NORMALIZED FREE ENERGY PREDICTED BY IDOCK:   -2.04 KCAL/MOL
REMARK 922        TOTAL FREE ENERGY PREDICTED BY IDOCK:   -2.83 KCAL/MOL
REMARK 923 INTER-LIGAND FREE ENERGY PREDICTED BY IDOCK:   -2.49 KCAL/MOL
REMARK 924 INTRA-LIGAND FREE ENERGY PREDICTED BY IDOCK:   -0.34 KCAL/MOL
REMARK 927      BINDING AFFINITY PREDICTED BY RF-SCORE:    0.00 PKD
ROOT
HETATM    1  C   UNL     1     -10.019   8.422  72.357  1.00  0.00    -0.380 C  
HETATM    2  C   UNL     1     -11.117   9.100  71.584  1.00  0.00    -0.445 C  
HETATM    3  C   UNL     1     -12.459   8.422  71.562  1.00  0.00    -0.342 C  
HETATM    4  C   UNL     1     -10.875  10.260  70.939  1.00  0.00     0.005 C  
ENDROOT
BRANCH   4   5
HETATM    5  C   UNL     1     -11.885  11.077  70.177  1.00  0.00    -0.441 C  
BRANCH   5   6
HETATM    6  C   UNL     1     -12.043  10.604  68.726  1.00  0.00     0.056 C  
BRANCH   6   7
HETATM    7  C   UNL     1     -10.732  10.184  68.085  1.00  0.00    -0.285 C  
HETATM    8  C   UNL     1     -10.633   8.755  67.620  1.00  0.00    -0.281 C  
HETATM    9  C   UNL     1      -9.699  11.044  67.988  1.00  0.00    -0.181 C  
BRANCH   9  10
HETATM   10  C   UNL     1      -8.340  10.759  67.434  1.00  0.00    -0.119 C  
HETATM   11  O   UNL     1      -7.526  10.260  68.483  1.00  0.00    -0.080 OA 
HETATM   12  H   UNL     1      -6.663  10.079  68.130  1.00  0.00     0.000 HD 
ENDBRANCH   9  10
ENDBRANCH   6   7
ENDBRANCH   5   6
ENDBRANCH   4   5
TORSDOF 4
ENDMDL
MODEL      241
REMARK 921   NORMALIZED FREE ENERGY PREDICTED BY IDOCK:   -2.04 KCAL/MOL
REMARK 922        TOTAL FREE ENERGY PREDICTED BY IDOCK:   -2.83 KCAL/MOL
REMARK 923 INTER-LIGAND FREE ENERGY PREDICTED BY IDOCK:   -2.53 KCAL/MOL
REMARK 924 INTRA-LIGAND FREE ENERGY PREDICTED BY IDOCK:   -0.30 KCAL/MOL
REMARK 927      BINDING AFFINITY PREDICTED BY RF-SCORE:    0.00 PKD
ROOT
HETATM    1  C   UNL     1      -7.489   3.484  69.546  1.00  0.00    -0.048 C  
HETATM    2  C   UNL     1      -8.776   3.999  68.962  1.00  0.00    -0.130 C  
HETATM    3  C   UNL     1      -9.375   3.215  67.827  1.00  0.00    -0.252 C  
HETATM    4  C   UNL     1      -9.337   5.125  69.447  1.00  0.00    -0.176 C  
ENDROOT
BRANCH   4   5
HETATM    5  C   UNL     1     -10.645   5.725  69.003  1.00  0.00    -0.351 C  
BRANCH   5   6
HETATM    6  C   UNL     1     -10.867   7.130  69.578  1.00  0.00    -0.244 C  
BRANCH   6   7
HETATM    7  C   UNL     1     -10.934   7.154  71.095  1.00  0.00    -0.272 C  
HETATM    8  C   UNL     1     -12.187   6.604  71.726  1.00  0.00    -0.400 C  
HETATM    9  C   UNL     1      -9.938   7.691  71.826  1.00  0.00    -0.208 C  
BRANCH   9  10
HETATM   10  C   UNL     1      -9.888   7.832  73.313  1.00  0.00    -0.299 C  
HETATM   11  O   UNL     1      -9.307   6.656  73.854  1.00  0.00    -0.153 OA 
HETATM   12  H   UNL     1      -9.275   6.746  74.799  1.00  0.00     0.000 HD 
ENDBRANCH   9  10
ENDBRANCH   6   7
ENDBRANCH   5   6
ENDBRANCH   4   5
TORSDOF 4
ENDMDL
MODEL      242
REMARK 921   NORMALIZED FREE ENERGY PREDICTED BY IDOCK:   -2.01 KCAL/MOL
REMARK 922        TOTAL FREE ENERGY PREDICTED BY IDOCK:   -2.80 KCAL/MOL
REMARK 923 INTER-LIGAND FREE ENERGY PREDICTED BY IDOCK:   -2.60 KCAL/MOL
REMARK 924 INTRA-LIGAND FREE ENERGY PREDICTED BY IDOCK:   -0.20 KCAL/MOL
REMARK 927      BINDING AFFINITY PREDICTED BY RF-SCORE:    0.00 PKD
ROOT
HETATM    1  C   UNL     1      -7.564   8.353  74.561  1.00  0.00    -0.275 C  
HETATM    2  C   UNL     1      -7.719   7.621  73.256  1.00  0.00    -0.142 C  
HETATM    3  C   UNL     1      -7.472   6.138  73.269  1.00  0.00    -0.092 C  
HETATM    4  C   UNL     1      -8.052   8.296  72.136  1.00  0.00    -0.195 C  
ENDROOT
BRANCH   4   5
HETATM    5  C   UNL     1      -8.296   7.691  70.778  1.00  0.00    -0.117 C  
BRANCH   5   6
HETATM    6  C   UNL     1      -7.972   8.667  69.640  1.00  0.00    -0.096 C  
BRANCH   6   7
HETATM    7  C   UNL     1      -9.002   9.771  69.482  1.00  0.00    -0.215 C  
HETATM    8  C   UNL     1      -8.519  11.068  68.889  1.00  0.00    -0.124 C  
HETATM    9  C   UNL     1     -10.271   9.602  69.902  1.00  0.00    -0.279 C  
BRANCH   9  10
HETATM   10  C   UNL     1     -11.375  10.609  69.861  1.00  0.00    -0.313 C  
HETATM   11  O   UNL     1     -12.136  10.389  68.684  1.00  0.00    -0.751 OA 
HETATM   12  H   UNL     1     -12.837  11.030  68.658  1.00  0.00     0.000 HD 
ENDBRANCH   9  10
ENDBRANCH   6   7
ENDBRANCH   5   6
ENDBRANCH   4   5
TORSDOF 4
ENDMDL
MODEL      243
REMARK 921   NORMALIZED FREE ENERGY PREDICTED BY IDOCK:   -2.01 KCAL/MOL
REMARK 922        TOTAL FREE ENERGY PREDICTED BY IDOCK:   -2.80 KCAL/MOL
REMARK 923 INTER-LIGAND FREE ENERGY PREDICTED BY IDOCK:   -2.49 KCAL/MOL
REMARK 924 INTRA-LIGAND FREE ENERGY PREDICTED BY IDOCK:   -0.31 KCAL/MOL
REMARK 927      BINDING AFFINITY PREDICTED BY RF-SCORE:    0.00 PKD
ROOT
HETATM    1  C   UNL     1      -9.881   4.098  69.915  1.00  0.00    -0.233 C  
HETATM    2  C   UNL     1     -10.442   5.372  70.486  1.00  0.00    -0.335 C  
HETATM    3  C   UNL     1     -10.806   6.457  69.511  1.00  0.00    -0.381 C  
HETATM    4  C   UNL     1     -10.587   5.510  71.819  1.00  0.00    -0.296 C  
ENDROOT
BRANCH   4   5
HETATM    5  C   UNL     1     -11.184   6.699  72.526  1.00  0.00    -0.302 C  
BRANCH   5   6
HETATM    6  C   UNL     1     -10.172   7.400  73.443  1.00  0.00    -0.402 C  
BRANCH   6   7
HETATM    7  C   UNL     1      -8.732   7.219  72.998  1.00  0.00    -0.160 C  
HETATM    8  C   UNL     1      -7.962   6.094  73.638  1.00  0.00    -0.101 C  
HETATM    9  C   UNL     1      -8.168   8.062  72.111  1.00  0.00    -0.178 C  
BRANCH   9  10
HETATM   10  C   UNL     1      -6.755   8.041  71.622  1.00  0.00    -0.055 C  
HETATM   11  O   UNL     1      -6.694   7.211  70.473  1.00  0.00    -0.050 OA 
HETATM   12  H   UNL     1      -5.796   7.198  70.163  1.00  0.00     0.000 HD 
ENDBRANCH   9  10
ENDBRANCH   6   7
ENDBRANCH   5   6
ENDBRANCH   4   5
TORSDOF 4
ENDMDL
MODEL      244
REMARK 921   NORMALIZED FREE ENERGY PREDICTED BY IDOCK:   -1.99 KCAL/MOL
REMARK 922        TOTAL FREE ENERGY PREDICTED BY IDOCK:   -2.77 KCAL/MOL
REMARK 923 INTER-LIGAND FREE ENERGY PREDICTED BY IDOCK:   -2.44 KCAL/MOL
REMARK 924 INTRA-LIGAND FREE ENERGY PREDICTED BY IDOCK:   -0.33 KCAL/MOL
REMARK 927      BINDING AFFINITY PREDICTED BY RF-SCORE:    0.00 PKD
ROOT
HETATM    1  C   UNL     1      -5.542  10.586  65.202  1.00  0.00    -0.142 C  
HETATM    2  C   UNL     1      -6.323  11.064  66.395  1.00  0.00    -0.133 C  
HETATM    3  C   UNL     1      -5.544  11.386  67.640  1.00  0.00    -0.050 C  
HETATM    4  C   UNL     1      -7.666  11.176  66.326  1.00  0.00    -0.097 C  
ENDROOT
BRANCH   4   5
HETATM    5  C   UNL     1      -8.569  11.692  67.415  1.00  0.00    -0.149 C  
BRANCH   5   6
HETATM    6  C   UNL     1      -9.882  10.905  67.504  1.00  0.00    -0.192 C  
BRANCH   6   7
HETATM    7  C   UNL     1     -10.237  10.485  68.920  1.00  0.00    -0.223 C  
HETATM    8  C   UNL     1      -9.190   9.712  69.678  1.00  0.00    -0.225 C  
HETATM    9  C   UNL     1     -11.449  10.755  69.441  1.00  0.00    -0.366 C  
BRANCH   9  10
HETATM   10  C   UNL     1     -11.957  10.361  70.792  1.00  0.00    -0.363 C  
HETATM   11  O   UNL     1     -12.879   9.295  70.628  1.00  0.00    -0.504 OA 
HETATM   12  H   UNL     1     -13.201   9.045  71.486  1.00  0.00     0.000 HD 
ENDBRANCH   9  10
ENDBRANCH   6   7
ENDBRANCH   5   6
ENDBRANCH   4   5
TORSDOF 4
ENDMDL
MODEL      245
REMARK 921   NORMALIZED FREE ENERGY PREDICTED BY IDOCK:   -1.99 KCAL/MOL
REMARK 922        TOTAL FREE ENERGY PREDICTED BY IDOCK:   -2.77 KCAL/MOL
REMARK 923 INTER-LIGAND FREE ENERGY PREDICTED BY IDOCK:   -2.55 KCAL/MOL
REMARK 924 INTRA-LIGAND FREE ENERGY PREDICTED BY IDOCK:   -0.23 KCAL/MOL
REMARK 927      BINDING AFFINITY PREDICTED BY RF-SCORE:    0.00 PKD
ROOT
HETATM    1  C   UNL     1     -10.092   7.830  66.611  1.00  0.00    -0.294 C  
HETATM    2  C   UNL     1      -9.876   6.714  67.597  1.00  0.00    -0.150 C  
HETATM    3  C   UNL     1      -8.971   5.591  67.173  1.00  0.00    -0.112 C  
HETATM    4  C   UNL     1     -10.492   6.742  68.796  1.00  0.00    -0.231 C  
ENDROOT
BRANCH   4   5
HETATM    5  C   UNL     1     -10.328   5.730  69.900  1.00  0.00    -0.330 C  
BRANCH   5   6
HETATM    6  C   UNL     1     -11.085   6.128  71.173  1.00  0.00    -0.360 C  
BRANCH   6   7
HETATM    7  C   UNL     1     -10.552   5.454  72.425  1.00  0.00    -0.276 C  
HETATM    8  C   UNL     1     -10.477   6.300  73.669  1.00  0.00    -0.299 C  
HETATM    9  C   UNL     1     -10.124   4.177  72.398  1.00  0.00    -0.243 C  
BRANCH   9  10
HETATM   10  C   UNL     1      -9.529   3.403  73.530  1.00  0.00    -0.102 C  
HETATM   11  O   UNL     1     -10.561   2.647  74.144  1.00  0.00    -0.148 OA 
HETATM   12  H   UNL     1     -10.183   2.155  74.863  1.00  0.00     0.000 HD 
ENDBRANCH   9  10
ENDBRANCH   6   7
ENDBRANCH   5   6
ENDBRANCH   4   5
TORSDOF 4
ENDMDL
MODEL      246
REMARK 921   NORMALIZED FREE ENERGY PREDICTED BY IDOCK:   -1.98 KCAL/MOL
REMARK 922        TOTAL FREE ENERGY PREDICTED BY IDOCK:   -2.76 KCAL/MOL
REMARK 923 INTER-LIGAND FREE ENERGY PREDICTED BY IDOCK:   -2.51 KCAL/MOL
REMARK 924 INTRA-LIGAND FREE ENERGY PREDICTED BY IDOCK:   -0.25 KCAL/MOL
REMARK 927      BINDING AFFINITY PREDICTED BY RF-SCORE:    0.00 PKD
ROOT
HETATM    1  C   UNL     1      -9.604   3.772  65.251  1.00  0.00    -0.174 C  
HETATM    2  C   UNL     1      -9.096   5.154  65.560  1.00  0.00    -0.157 C  
HETATM    3  C   UNL     1      -7.976   5.679  64.705  1.00  0.00    -0.119 C  
HETATM    4  C   UNL     1      -9.632   5.861  66.575  1.00  0.00    -0.180 C  
ENDROOT
BRANCH   4   5
HETATM    5  C   UNL     1      -9.266   7.270  66.963  1.00  0.00    -0.170 C  
BRANCH   5   6
HETATM    6  C   UNL     1     -10.494   8.184  67.065  1.00  0.00    -0.396 C  
BRANCH   6   7
HETATM    7  C   UNL     1     -10.298   9.350  68.018  1.00  0.00    -0.267 C  
HETATM    8  C   UNL     1      -9.233   9.192  69.071  1.00  0.00    -0.143 C  
HETATM    9  C   UNL     1     -11.080  10.445  67.945  1.00  0.00    -0.363 C  
BRANCH   9  10
HETATM   10  C   UNL     1     -11.040  11.641  68.842  1.00  0.00    -0.232 C  
HETATM   11  O   UNL     1     -12.031  11.479  69.844  1.00  0.00    -0.310 OA 
HETATM   12  H   UNL     1     -12.005  12.239  70.414  1.00  0.00     0.000 HD 
ENDBRANCH   9  10
ENDBRANCH   6   7
ENDBRANCH   5   6
ENDBRANCH   4   5
TORSDOF 4
ENDMDL
MODEL      247
REMARK 921   NORMALIZED FREE ENERGY PREDICTED BY IDOCK:   -1.96 KCAL/MOL
REMARK 922        TOTAL FREE ENERGY PREDICTED BY IDOCK:   -2.74 KCAL/MOL
REMARK 923 INTER-LIGAND FREE ENERGY PREDICTED BY IDOCK:   -2.51 KCAL/MOL
REMARK 924 INTRA-LIGAND FREE ENERGY PREDICTED BY IDOCK:   -0.23 KCAL/MOL
REMARK 927      BINDING AFFINITY PREDICTED BY RF-SCORE:    0.00 PKD
ROOT
HETATM    1  C   UNL     1      -9.749  10.427  63.582  1.00  0.00    -0.338 C  
HETATM    2  C   UNL     1      -9.019  10.053  64.844  1.00  0.00    -0.241 C  
HETATM    3  C   UNL     1      -7.570   9.675  64.710  1.00  0.00    -0.122 C  
HETATM    4  C   UNL     1      -9.668  10.053  66.026  1.00  0.00    -0.301 C  
ENDROOT
BRANCH   4   5
HETATM    5  C   UNL     1      -9.056   9.758  67.371  1.00  0.00    -0.148 C  
BRANCH   5   6
HETATM    6  C   UNL     1      -9.895  10.317  68.527  1.00  0.00    -0.174 C  
BRANCH   6   7
HETATM    7  C   UNL     1      -9.960   9.388  69.727  1.00  0.00    -0.217 C  
HETATM    8  C   UNL     1      -8.645   8.966  70.328  1.00  0.00    -0.178 C  
HETATM    9  C   UNL     1     -11.140   8.932  70.189  1.00  0.00    -0.217 C  
BRANCH   9  10
HETATM   10  C   UNL     1     -11.356   7.977  71.319  1.00  0.00    -0.264 C  
HETATM   11  O   UNL     1     -11.463   6.668  70.783  1.00  0.00    -0.309 OA 
HETATM   12  H   UNL     1     -11.601   6.062  71.501  1.00  0.00     0.000 HD 
ENDBRANCH   9  10
ENDBRANCH   6   7
ENDBRANCH   5   6
ENDBRANCH   4   5
TORSDOF 4
ENDMDL
MODEL      248
REMARK 921   NORMALIZED FREE ENERGY PREDICTED BY IDOCK:   -1.96 KCAL/MOL
REMARK 922        TOTAL FREE ENERGY PREDICTED BY IDOCK:   -2.73 KCAL/MOL
REMARK 923 INTER-LIGAND FREE ENERGY PREDICTED BY IDOCK:   -2.22 KCAL/MOL
REMARK 924 INTRA-LIGAND FREE ENERGY PREDICTED BY IDOCK:   -0.51 KCAL/MOL
REMARK 927      BINDING AFFINITY PREDICTED BY RF-SCORE:    0.00 PKD
ROOT
HETATM    1  C   UNL     1      -6.208   6.863  65.100  1.00  0.00    -0.036 C  
HETATM    2  C   UNL     1      -7.226   7.596  65.929  1.00  0.00    -0.069 C  
HETATM    3  C   UNL     1      -6.784   8.090  67.278  1.00  0.00    -0.065 C  
HETATM    4  C   UNL     1      -8.479   7.775  65.461  1.00  0.00    -0.146 C  
ENDROOT
BRANCH   4   5
HETATM    5  C   UNL     1      -9.582   8.534  66.151  1.00  0.00    -0.276 C  
BRANCH   5   6
HETATM    6  C   UNL     1     -10.494   7.616  66.974  1.00  0.00    -0.419 C  
BRANCH   6   7
HETATM    7  C   UNL     1     -10.516   7.958  68.453  1.00  0.00    -0.207 C  
HETATM    8  C   UNL     1     -10.033   9.332  68.837  1.00  0.00    -0.190 C  
HETATM    9  C   UNL     1     -10.903   7.051  69.371  1.00  0.00    -0.253 C  
BRANCH   9  10
HETATM   10  C   UNL     1     -10.926   7.225  70.856  1.00  0.00    -0.253 C  
HETATM   11  O   UNL     1     -11.842   6.288  71.400  1.00  0.00    -0.304 OA 
HETATM   12  H   UNL     1     -11.856   6.399  72.343  1.00  0.00     0.000 HD 
ENDBRANCH   9  10
ENDBRANCH   6   7
ENDBRANCH   5   6
ENDBRANCH   4   5
TORSDOF 4
ENDMDL
MODEL      249
REMARK 921   NORMALIZED FREE ENERGY PREDICTED BY IDOCK:   -1.95 KCAL/MOL
REMARK 922        TOTAL FREE ENERGY PREDICTED BY IDOCK:   -2.73 KCAL/MOL
REMARK 923 INTER-LIGAND FREE ENERGY PREDICTED BY IDOCK:   -2.57 KCAL/MOL
REMARK 924 INTRA-LIGAND FREE ENERGY PREDICTED BY IDOCK:   -0.16 KCAL/MOL
REMARK 927      BINDING AFFINITY PREDICTED BY RF-SCORE:    0.00 PKD
ROOT
HETATM    1  C   UNL     1      -8.272   4.886  67.885  1.00  0.00    -0.100 C  
HETATM    2  C   UNL     1      -9.637   5.512  67.978  1.00  0.00    -0.147 C  
HETATM    3  C   UNL     1     -10.302   5.899  66.686  1.00  0.00    -0.283 C  
HETATM    4  C   UNL     1     -10.208   5.718  69.182  1.00  0.00    -0.289 C  
ENDROOT
BRANCH   4   5
HETATM    5  C   UNL     1     -11.584   6.279  69.426  1.00  0.00    -0.172 C  
BRANCH   5   6
HETATM    6  C   UNL     1     -11.564   7.476  70.384  1.00  0.00    -0.172 C  
BRANCH   6   7
HETATM    7  C   UNL     1     -11.048   7.130  71.769  1.00  0.00    -0.267 C  
HETATM    8  C   UNL     1     -10.246   8.190  72.477  1.00  0.00    -0.383 C  
HETATM    9  C   UNL     1     -11.262   5.913  72.306  1.00  0.00    -0.343 C  
BRANCH   9  10
HETATM   10  C   UNL     1     -10.773   5.413  73.627  1.00  0.00    -0.293 C  
HETATM   11  O   UNL     1      -9.616   4.622  73.405  1.00  0.00    -0.121 OA 
HETATM   12  H   UNL     1      -9.306   4.305  74.245  1.00  0.00     0.000 HD 
ENDBRANCH   9  10
ENDBRANCH   6   7
ENDBRANCH   5   6
ENDBRANCH   4   5
TORSDOF 4
ENDMDL
MODEL      250
REMARK 921   NORMALIZED FREE ENERGY PREDICTED BY IDOCK:   -1.95 KCAL/MOL
REMARK 922        TOTAL FREE ENERGY PREDICTED BY IDOCK:   -2.72 KCAL/MOL
REMARK 923 INTER-LIGAND FREE ENERGY PREDICTED BY IDOCK:   -2.50 KCAL/MOL
REMARK 924 INTRA-LIGAND FREE ENERGY PREDICTED BY IDOCK:   -0.22 KCAL/MOL
REMARK 927      BINDING AFFINITY PREDICTED BY RF-SCORE:    0.00 PKD
ROOT
HETATM    1  C   UNL     1      -9.122  14.914  69.483  1.00  0.00     0.018 C  
HETATM    2  C   UNL     1      -9.619  15.415  68.154  1.00  0.00    -0.203 C  
HETATM    3  C   UNL     1      -9.663  14.427  67.022  1.00  0.00    -0.256 C  
HETATM    4  C   UNL     1      -9.989  16.705  68.012  1.00  0.00    -0.258 C  
ENDROOT
BRANCH   4   5
HETATM    5  C   UNL     1     -10.556  17.331  66.766  1.00  0.00    -0.192 C  
BRANCH   5   6
HETATM    6  C   UNL     1     -10.729  18.849  66.903  1.00  0.00    -0.447 C  
BRANCH   6   7
HETATM    7  C   UNL     1      -9.462  19.628  66.599  1.00  0.00    -0.467 C  
HETATM    8  C   UNL     1      -9.462  21.090  66.964  1.00  0.00    -0.117 C  
HETATM    9  C   UNL     1      -8.415  19.041  65.988  1.00  0.00    -0.101 C  
BRANCH   9  10
HETATM   10  C   UNL     1      -7.131  19.690  65.580  1.00  0.00    -0.300 C  
HETATM   11  O   UNL     1      -6.077  18.765  65.794  1.00  0.00    -0.176 OA 
HETATM   12  H   UNL     1      -5.261  19.177  65.535  1.00  0.00     0.000 HD 
ENDBRANCH   9  10
ENDBRANCH   6   7
ENDBRANCH   5   6
ENDBRANCH   4   5
TORSDOF 4
ENDMDL
MODEL      251
REMARK 921   NORMALIZED FREE ENERGY PREDICTED BY IDOCK:   -1.94 KCAL/MOL
REMARK 922        TOTAL FREE ENERGY PREDICTED BY IDOCK:   -2.71 KCAL/MOL
REMARK 923 INTER-LIGAND FREE ENERGY PREDICTED BY IDOCK:   -2.22 KCAL/MOL
REMARK 924 INTRA-LIGAND FREE ENERGY PREDICTED BY IDOCK:   -0.49 KCAL/MOL
REMARK 927      BINDING AFFINITY PREDICTED BY RF-SCORE:    0.00 PKD
ROOT
HETATM    1  C   UNL     1     -10.123   3.487  64.060  1.00  0.00    -0.207 C  
HETATM    2  C   UNL     1      -9.322   3.952  65.245  1.00  0.00    -0.159 C  
HETATM    3  C   UNL     1      -9.228   3.016  66.419  1.00  0.00    -0.133 C  
HETATM    4  C   UNL     1      -8.736   5.167  65.233  1.00  0.00    -0.150 C  
ENDROOT
BRANCH   4   5
HETATM    5  C   UNL     1      -7.863   5.741  66.317  1.00  0.00    -0.101 C  
BRANCH   5   6
HETATM    6  C   UNL     1      -8.270   7.169  66.699  1.00  0.00    -0.112 C  
BRANCH   6   7
HETATM    7  C   UNL     1      -9.575   7.236  67.474  1.00  0.00    -0.171 C  
HETATM    8  C   UNL     1     -10.522   8.348  67.109  1.00  0.00    -0.380 C  
HETATM    9  C   UNL     1      -9.837   6.367  68.469  1.00  0.00    -0.145 C  
BRANCH   9  10
HETATM   10  C   UNL     1     -11.046   6.343  69.348  1.00  0.00    -0.387 C  
HETATM   11  O   UNL     1     -10.776   5.498  70.455  1.00  0.00    -0.275 OA 
HETATM   12  H   UNL     1     -11.544   5.482  71.014  1.00  0.00     0.000 HD 
ENDBRANCH   9  10
ENDBRANCH   6   7
ENDBRANCH   5   6
ENDBRANCH   4   5
TORSDOF 4
ENDMDL
MODEL      252
REMARK 921   NORMALIZED FREE ENERGY PREDICTED BY IDOCK:   -1.88 KCAL/MOL
REMARK 922        TOTAL FREE ENERGY PREDICTED BY IDOCK:   -2.64 KCAL/MOL
REMARK 923 INTER-LIGAND FREE ENERGY PREDICTED BY IDOCK:   -2.18 KCAL/MOL
REMARK 924 INTRA-LIGAND FREE ENERGY PREDICTED BY IDOCK:   -0.46 KCAL/MOL
REMARK 927      BINDING AFFINITY PREDICTED BY RF-SCORE:    0.00 PKD
ROOT
HETATM    1  C   UNL     1      -7.220   9.093  68.601  1.00  0.00    -0.075 C  
HETATM    2  C   UNL     1      -8.380   9.982  68.244  1.00  0.00    -0.110 C  
HETATM    3  C   UNL     1      -9.530   9.348  67.512  1.00  0.00    -0.154 C  
HETATM    4  C   UNL     1      -8.354  11.291  68.569  1.00  0.00    -0.155 C  
ENDROOT
BRANCH   4   5
HETATM    5  C   UNL     1      -9.461  12.284  68.328  1.00  0.00    -0.209 C  
BRANCH   5   6
HETATM    6  C   UNL     1      -9.163  13.212  67.144  1.00  0.00    -0.227 C  
BRANCH   6   7
HETATM    7  C   UNL     1     -10.335  13.365  66.191  1.00  0.00    -0.295 C  
HETATM    8  C   UNL     1     -11.183  14.600  66.353  1.00  0.00    -0.336 C  
HETATM    9  C   UNL     1     -10.620  12.412  65.282  1.00  0.00    -0.322 C  
BRANCH   9  10
HETATM   10  C   UNL     1     -11.764  12.400  64.319  1.00  0.00    -0.380 C  
HETATM   11  O   UNL     1     -12.878  11.798  64.959  1.00  0.00     0.085 OA 
HETATM   12  H   UNL     1     -13.605  11.791  64.347  1.00  0.00     0.000 HD 
ENDBRANCH   9  10
ENDBRANCH   6   7
ENDBRANCH   5   6
ENDBRANCH   4   5
TORSDOF 4
ENDMDL
MODEL      253
REMARK 921   NORMALIZED FREE ENERGY PREDICTED BY IDOCK:   -1.86 KCAL/MOL
REMARK 922        TOTAL FREE ENERGY PREDICTED BY IDOCK:   -2.61 KCAL/MOL
REMARK 923 INTER-LIGAND FREE ENERGY PREDICTED BY IDOCK:   -2.34 KCAL/MOL
REMARK 924 INTRA-LIGAND FREE ENERGY PREDICTED BY IDOCK:   -0.28 KCAL/MOL
REMARK 927      BINDING AFFINITY PREDICTED BY RF-SCORE:    0.00 PKD
ROOT
HETATM    1  C   UNL     1      -8.747  13.631  67.353  1.00  0.00    -0.214 C  
HETATM    2  C   UNL     1      -9.422  12.294  67.215  1.00  0.00    -0.186 C  
HETATM    3  C   UNL     1     -10.925  12.288  67.152  1.00  0.00    -0.308 C  
HETATM    4  C   UNL     1      -8.686  11.165  67.166  1.00  0.00    -0.141 C  
ENDROOT
BRANCH   4   5
HETATM    5  C   UNL     1      -9.217   9.769  66.974  1.00  0.00    -0.166 C  
BRANCH   5   6
HETATM    6  C   UNL     1      -8.260   8.701  67.521  1.00  0.00    -0.110 C  
BRANCH   6   7
HETATM    7  C   UNL     1      -8.948   7.669  68.396  1.00  0.00    -0.128 C  
HETATM    8  C   UNL     1      -8.104   6.515  68.872  1.00  0.00    -0.115 C  
HETATM    9  C   UNL     1     -10.260   7.766  68.684  1.00  0.00    -0.217 C  
BRANCH   9  10
HETATM   10  C   UNL     1     -11.080   6.804  69.483  1.00  0.00    -0.273 C  
HETATM   11  O   UNL     1     -12.085   7.536  70.166  1.00  0.00    -0.481 OA 
HETATM   12  H   UNL     1     -12.606   6.924  70.674  1.00  0.00     0.000 HD 
ENDBRANCH   9  10
ENDBRANCH   6   7
ENDBRANCH   5   6
ENDBRANCH   4   5
TORSDOF 4
ENDMDL
MODEL      254
REMARK 921   NORMALIZED FREE ENERGY PREDICTED BY IDOCK:   -1.86 KCAL/MOL
REMARK 922        TOTAL FREE ENERGY PREDICTED BY IDOCK:   -2.61 KCAL/MOL
REMARK 923 INTER-LIGAND FREE ENERGY PREDICTED BY IDOCK:   -2.45 KCAL/MOL
REMARK 924 INTRA-LIGAND FREE ENERGY PREDICTED BY IDOCK:   -0.16 KCAL/MOL
REMARK 927      BINDING AFFINITY PREDICTED BY RF-SCORE:    0.00 PKD
ROOT
HETATM    1  C   UNL     1     -12.016  15.462  68.599  1.00  0.00    -0.240 C  
HETATM    2  C   UNL     1     -11.748  14.099  68.020  1.00  0.00    -0.394 C  
HETATM    3  C   UNL     1     -12.269  13.828  66.636  1.00  0.00    -0.454 C  
HETATM    4  C   UNL     1     -11.080  13.176  68.742  1.00  0.00    -0.309 C  
ENDROOT
BRANCH   4   5
HETATM    5  C   UNL     1     -10.692  11.798  68.274  1.00  0.00    -0.246 C  
BRANCH   5   6
HETATM    6  C   UNL     1      -9.172  11.626  68.162  1.00  0.00    -0.184 C  
BRANCH   6   7
HETATM    7  C   UNL     1      -8.697  10.226  68.507  1.00  0.00    -0.130 C  
HETATM    8  C   UNL     1      -7.428   9.759  67.845  1.00  0.00    -0.086 C  
HETATM    9  C   UNL     1      -9.413   9.433  69.329  1.00  0.00    -0.164 C  
BRANCH   9  10
HETATM   10  C   UNL     1      -9.100   8.023  69.717  1.00  0.00    -0.149 C  
HETATM   11  O   UNL     1      -7.957   8.035  70.557  1.00  0.00    -0.092 OA 
HETATM   12  H   UNL     1      -7.759   7.139  70.803  1.00  0.00     0.000 HD 
ENDBRANCH   9  10
ENDBRANCH   6   7
ENDBRANCH   5   6
ENDBRANCH   4   5
TORSDOF 4
ENDMDL
MODEL      255
REMARK 921   NORMALIZED FREE ENERGY PREDICTED BY IDOCK:   -1.83 KCAL/MOL
REMARK 922        TOTAL FREE ENERGY PREDICTED BY IDOCK:   -2.58 KCAL/MOL
REMARK 923 INTER-LIGAND FREE ENERGY PREDICTED BY IDOCK:   -2.29 KCAL/MOL
REMARK 924 INTRA-LIGAND FREE ENERGY PREDICTED BY IDOCK:   -0.28 KCAL/MOL
REMARK 927      BINDING AFFINITY PREDICTED BY RF-SCORE:    0.00 PKD
ROOT
HETATM    1  C   UNL     1      -5.416  10.550  65.133  1.00  0.00    -0.146 C  
HETATM    2  C   UNL     1      -6.061  11.125  66.365  1.00  0.00    -0.137 C  
HETATM    3  C   UNL     1      -5.183  11.923  67.289  1.00  0.00    -0.109 C  
HETATM    4  C   UNL     1      -7.368  10.904  66.610  1.00  0.00    -0.139 C  
ENDROOT
BRANCH   4   5
HETATM    5  C   UNL     1      -8.158  11.459  67.767  1.00  0.00    -0.121 C  
BRANCH   5   6
HETATM    6  C   UNL     1      -8.935  10.371  68.518  1.00  0.00    -0.139 C  
BRANCH   6   7
HETATM    7  C   UNL     1      -9.779   9.497  67.607  1.00  0.00    -0.188 C  
HETATM    8  C   UNL     1     -10.750  10.205  66.699  1.00  0.00    -0.156 C  
HETATM    9  C   UNL     1      -9.690   8.154  67.654  1.00  0.00    -0.200 C  
BRANCH   9  10
HETATM   10  C   UNL     1     -10.489   7.169  66.862  1.00  0.00    -0.294 C  
HETATM   11  O   UNL     1     -11.440   6.569  67.726  1.00  0.00    -0.664 OA 
HETATM   12  H   UNL     1     -11.948   5.944  67.222  1.00  0.00     0.000 HD 
ENDBRANCH   9  10
ENDBRANCH   6   7
ENDBRANCH   5   6
ENDBRANCH   4   5
TORSDOF 4
ENDMDL
MODEL      256
REMARK 921   NORMALIZED FREE ENERGY PREDICTED BY IDOCK:   -1.82 KCAL/MOL
REMARK 922        TOTAL FREE ENERGY PREDICTED BY IDOCK:   -2.56 KCAL/MOL
REMARK 923 INTER-LIGAND FREE ENERGY PREDICTED BY IDOCK:   -2.55 KCAL/MOL
REMARK 924 INTRA-LIGAND FREE ENERGY PREDICTED BY IDOCK:   -0.01 KCAL/MOL
REMARK 927      BINDING AFFINITY PREDICTED BY RF-SCORE:    0.00 PKD
ROOT
HETATM    1  C   UNL     1     -10.507   5.292  66.602  1.00  0.00    -0.345 C  
HETATM    2  C   UNL     1     -10.753   6.537  67.409  1.00  0.00    -0.412 C  
HETATM    3  C   UNL     1     -11.153   6.354  68.847  1.00  0.00    -0.420 C  
HETATM    4  C   UNL     1     -10.626   7.751  66.836  1.00  0.00    -0.347 C  
ENDROOT
BRANCH   4   5
HETATM    5  C   UNL     1     -10.785   9.079  67.530  1.00  0.00    -0.239 C  
BRANCH   5   6
HETATM    6  C   UNL     1      -9.961  10.187  66.863  1.00  0.00    -0.259 C  
BRANCH   6   7
HETATM    7  C   UNL     1      -8.715   9.673  66.163  1.00  0.00    -0.152 C  
HETATM    8  C   UNL     1      -8.583   9.989  64.697  1.00  0.00    -0.191 C  
HETATM    9  C   UNL     1      -7.806   8.928  66.822  1.00  0.00    -0.097 C  
BRANCH   9  10
HETATM   10  C   UNL     1      -6.566   8.313  66.257  1.00  0.00    -0.050 C  
HETATM   11  O   UNL     1      -5.610   8.200  67.298  1.00  0.00    -0.036 OA 
HETATM   12  H   UNL     1      -4.822   7.809  66.939  1.00  0.00     0.000 HD 
ENDBRANCH   9  10
ENDBRANCH   6   7
ENDBRANCH   5   6
ENDBRANCH   4   5
TORSDOF 4
ENDMDL
MODEL      257
REMARK 921   NORMALIZED FREE ENERGY PREDICTED BY IDOCK:   -1.82 KCAL/MOL
REMARK 922        TOTAL FREE ENERGY PREDICTED BY IDOCK:   -2.56 KCAL/MOL
REMARK 923 INTER-LIGAND FREE ENERGY PREDICTED BY IDOCK:   -2.24 KCAL/MOL
REMARK 924 INTRA-LIGAND FREE ENERGY PREDICTED BY IDOCK:   -0.32 KCAL/MOL
REMARK 927      BINDING AFFINITY PREDICTED BY RF-SCORE:    0.00 PKD
ROOT
HETATM    1  C   UNL     1      -6.936  12.321  67.068  1.00  0.00    -0.036 C  
HETATM    2  C   UNL     1      -8.294  12.045  67.653  1.00  0.00    -0.160 C  
HETATM    3  C   UNL     1      -9.446  12.854  67.124  1.00  0.00    -0.229 C  
HETATM    4  C   UNL     1      -8.439  11.116  68.621  1.00  0.00    -0.153 C  
ENDROOT
BRANCH   4   5
HETATM    5  C   UNL     1      -9.737  10.695  69.257  1.00  0.00    -0.181 C  
BRANCH   5   6
HETATM    6  C   UNL     1     -10.237   9.346  68.726  1.00  0.00    -0.221 C  
BRANCH   6   7
HETATM    7  C   UNL     1     -10.403   8.297  69.811  1.00  0.00    -0.216 C  
HETATM    8  C   UNL     1     -11.153   7.046  69.433  1.00  0.00    -0.194 C  
HETATM    9  C   UNL     1      -9.942   8.509  71.059  1.00  0.00    -0.255 C  
BRANCH   9  10
HETATM   10  C   UNL     1     -10.078   7.596  72.236  1.00  0.00    -0.208 C  
HETATM   11  O   UNL     1     -11.193   8.022  73.003  1.00  0.00    -0.388 OA 
HETATM   12  H   UNL     1     -11.280   7.442  73.750  1.00  0.00     0.000 HD 
ENDBRANCH   9  10
ENDBRANCH   6   7
ENDBRANCH   5   6
ENDBRANCH   4   5
TORSDOF 4
ENDMDL
MODEL      258
REMARK 921   NORMALIZED FREE ENERGY PREDICTED BY IDOCK:   -1.80 KCAL/MOL
REMARK 922        TOTAL FREE ENERGY PREDICTED BY IDOCK:   -2.53 KCAL/MOL
REMARK 923 INTER-LIGAND FREE ENERGY PREDICTED BY IDOCK:   -2.24 KCAL/MOL
REMARK 924 INTRA-LIGAND FREE ENERGY PREDICTED BY IDOCK:   -0.29 KCAL/MOL
REMARK 927      BINDING AFFINITY PREDICTED BY RF-SCORE:    0.00 PKD
ROOT
HETATM    1  C   UNL     1      -8.602   8.916  68.813  1.00  0.00    -0.136 C  
HETATM    2  C   UNL     1      -8.320  10.119  67.954  1.00  0.00    -0.117 C  
HETATM    3  C   UNL     1      -7.408   9.920  66.775  1.00  0.00    -0.095 C  
HETATM    4  C   UNL     1      -8.866  11.313  68.261  1.00  0.00    -0.158 C  
ENDROOT
BRANCH   4   5
HETATM    5  C   UNL     1      -8.720  12.584  67.466  1.00  0.00    -0.182 C  
BRANCH   5   6
HETATM    6  C   UNL     1     -10.063  13.089  66.923  1.00  0.00    -0.243 C  
BRANCH   6   7
HETATM    7  C   UNL     1     -10.498  14.410  67.530  1.00  0.00    -0.252 C  
HETATM    8  C   UNL     1     -11.823  14.422  68.247  1.00  0.00    -0.361 C  
HETATM    9  C   UNL     1      -9.751  15.522  67.385  1.00  0.00    -0.218 C  
BRANCH   9  10
HETATM   10  C   UNL     1     -10.075  16.896  67.879  1.00  0.00    -0.288 C  
HETATM   11  O   UNL     1     -10.815  17.568  66.873  1.00  0.00    -0.190 OA 
HETATM   12  H   UNL     1     -11.021  18.441  67.187  1.00  0.00     0.000 HD 
ENDBRANCH   9  10
ENDBRANCH   6   7
ENDBRANCH   5   6
ENDBRANCH   4   5
TORSDOF 4
ENDMDL
MODEL      259
REMARK 921   NORMALIZED FREE ENERGY PREDICTED BY IDOCK:   -1.78 KCAL/MOL
REMARK 922        TOTAL FREE ENERGY PREDICTED BY IDOCK:   -2.51 KCAL/MOL
REMARK 923 INTER-LIGAND FREE ENERGY PREDICTED BY IDOCK:   -2.24 KCAL/MOL
REMARK 924 INTRA-LIGAND FREE ENERGY PREDICTED BY IDOCK:   -0.27 KCAL/MOL
REMARK 927      BINDING AFFINITY PREDICTED BY RF-SCORE:    0.00 PKD
ROOT
HETATM    1  C   UNL     1      -6.096  10.483  65.406  1.00  0.00    -0.122 C  
HETATM    2  C   UNL     1      -6.965  10.512  66.634  1.00  0.00    -0.113 C  
HETATM    3  C   UNL     1      -6.341  10.061  67.926  1.00  0.00    -0.058 C  
HETATM    4  C   UNL     1      -8.248  10.917  66.546  1.00  0.00    -0.157 C  
ENDROOT
BRANCH   4   5
HETATM    5  C   UNL     1      -9.215  11.051  67.693  1.00  0.00    -0.151 C  
BRANCH   5   6
HETATM    6  C   UNL     1     -10.676  10.939  67.239  1.00  0.00    -0.317 C  
BRANCH   6   7
HETATM    7  C   UNL     1     -11.453  12.236  67.387  1.00  0.00    -0.422 C  
HETATM    8  C   UNL     1     -12.336  12.631  66.233  1.00  0.00    -0.031 C  
HETATM    9  C   UNL     1     -11.311  13.009  68.481  1.00  0.00    -0.323 C  
BRANCH   9  10
HETATM   10  C   UNL     1     -11.965  14.328  68.742  1.00  0.00    -0.311 C  
HETATM   11  O   UNL     1     -10.975  15.341  68.660  1.00  0.00    -0.237 OA 
HETATM   12  H   UNL     1     -11.391  16.179  68.825  1.00  0.00     0.000 HD 
ENDBRANCH   9  10
ENDBRANCH   6   7
ENDBRANCH   5   6
ENDBRANCH   4   5
TORSDOF 4
ENDMDL
MODEL      260
REMARK 921   NORMALIZED FREE ENERGY PREDICTED BY IDOCK:   -1.78 KCAL/MOL
REMARK 922        TOTAL FREE ENERGY PREDICTED BY IDOCK:   -2.51 KCAL/MOL
REMARK 923 INTER-LIGAND FREE ENERGY PREDICTED BY IDOCK:   -2.18 KCAL/MOL
REMARK 924 INTRA-LIGAND FREE ENERGY PREDICTED BY IDOCK:   -0.33 KCAL/MOL
REMARK 927      BINDING AFFINITY PREDICTED BY RF-SCORE:    0.00 PKD
ROOT
HETATM    1  C   UNL     1      -7.483  18.522  68.418  1.00  0.00    -0.315 C  
HETATM    2  C   UNL     1      -8.316  17.863  67.352  1.00  0.00    -0.227 C  
HETATM    3  C   UNL     1      -7.758  17.853  65.956  1.00  0.00    -0.216 C  
HETATM    4  C   UNL     1      -9.513  17.326  67.663  1.00  0.00    -0.246 C  
ENDROOT
BRANCH   4   5
HETATM    5  C   UNL     1     -10.425  16.589  66.719  1.00  0.00    -0.269 C  
BRANCH   5   6
HETATM    6  C   UNL     1     -10.965  15.288  67.326  1.00  0.00    -0.327 C  
BRANCH   6   7
HETATM    7  C   UNL     1      -9.977  14.601  68.252  1.00  0.00    -0.222 C  
HETATM    8  C   UNL     1     -10.317  14.594  69.719  1.00  0.00     0.041 C  
HETATM    9  C   UNL     1      -8.833  14.072  67.777  1.00  0.00    -0.187 C  
BRANCH   9  10
HETATM   10  C   UNL     1      -7.748  13.416  68.570  1.00  0.00    -0.124 C  
HETATM   11  O   UNL     1      -6.713  14.363  68.778  1.00  0.00    -0.083 OA 
HETATM   12  H   UNL     1      -6.023  13.946  69.281  1.00  0.00     0.000 HD 
ENDBRANCH   9  10
ENDBRANCH   6   7
ENDBRANCH   5   6
ENDBRANCH   4   5
TORSDOF 4
ENDMDL
MODEL      261
REMARK 921   NORMALIZED FREE ENERGY PREDICTED BY IDOCK:   -1.78 KCAL/MOL
REMARK 922        TOTAL FREE ENERGY PREDICTED BY IDOCK:   -2.51 KCAL/MOL
REMARK 923 INTER-LIGAND FREE ENERGY PREDICTED BY IDOCK:   -1.95 KCAL/MOL
REMARK 924 INTRA-LIGAND FREE ENERGY PREDICTED BY IDOCK:   -0.56 KCAL/MOL
REMARK 927      BINDING AFFINITY PREDICTED BY RF-SCORE:    0.00 PKD
ROOT
HETATM    1  C   UNL     1      -6.534   7.500  67.079  1.00  0.00    -0.060 C  
HETATM    2  C   UNL     1      -7.998   7.689  67.366  1.00  0.00    -0.119 C  
HETATM    3  C   UNL     1      -8.555   6.991  68.576  1.00  0.00    -0.123 C  
HETATM    4  C   UNL     1      -8.757   8.445  66.546  1.00  0.00    -0.151 C  
ENDROOT
BRANCH   4   5
HETATM    5  C   UNL     1     -10.216   8.767  66.737  1.00  0.00    -0.354 C  
BRANCH   5   6
HETATM    6  C   UNL     1     -10.492  10.275  66.681  1.00  0.00    -0.260 C  
BRANCH   6   7
HETATM    7  C   UNL     1      -9.699  11.070  67.702  1.00  0.00    -0.184 C  
HETATM    8  C   UNL     1      -9.907  10.712  69.150  1.00  0.00    -0.217 C  
HETATM    9  C   UNL     1      -8.890  12.078  67.322  1.00  0.00    -0.183 C  
BRANCH   9  10
HETATM   10  C   UNL     1      -8.092  12.978  68.211  1.00  0.00    -0.151 C  
HETATM   11  O   UNL     1      -8.350  14.320  67.833  1.00  0.00    -0.141 OA 
HETATM   12  H   UNL     1      -7.843  14.892  68.398  1.00  0.00     0.000 HD 
ENDBRANCH   9  10
ENDBRANCH   6   7
ENDBRANCH   5   6
ENDBRANCH   4   5
TORSDOF 4
ENDMDL
MODEL      262
REMARK 921   NORMALIZED FREE ENERGY PREDICTED BY IDOCK:   -1.76 KCAL/MOL
REMARK 922        TOTAL FREE ENERGY PREDICTED BY IDOCK:   -2.49 KCAL/MOL
REMARK 923 INTER-LIGAND FREE ENERGY PREDICTED BY IDOCK:   -2.15 KCAL/MOL
REMARK 924 INTRA-LIGAND FREE ENERGY PREDICTED BY IDOCK:   -0.33 KCAL/MOL
REMARK 927      BINDING AFFINITY PREDICTED BY RF-SCORE:    0.00 PKD
ROOT
HETATM    1  C   UNL     1     -10.386   4.983  65.976  1.00  0.00    -0.276 C  
HETATM    2  C   UNL     1      -9.225   5.939  65.974  1.00  0.00    -0.143 C  
HETATM    3  C   UNL     1      -7.851   5.348  65.825  1.00  0.00    -0.100 C  
HETATM    4  C   UNL     1      -9.438   7.264  66.115  1.00  0.00    -0.064 C  
ENDROOT
BRANCH   4   5
HETATM    5  C   UNL     1      -8.384   8.339  66.075  1.00  0.00    -0.130 C  
BRANCH   5   6
HETATM    6  C   UNL     1      -8.859   9.644  66.727  1.00  0.00    -0.148 C  
BRANCH   6   7
HETATM    7  C   UNL     1      -9.755  10.475  65.826  1.00  0.00    -0.277 C  
HETATM    8  C   UNL     1     -11.209  10.562  66.211  1.00  0.00     0.328 C  
HETATM    9  C   UNL     1      -9.271  11.059  64.712  1.00  0.00    -0.198 C  
BRANCH   9  10
HETATM   10  C   UNL     1     -10.039  11.857  63.707  1.00  0.00    -0.398 C  
HETATM   11  O   UNL     1     -10.440  10.988  62.660  1.00  0.00    -0.748 OA 
HETATM   12  H   UNL     1     -10.928  11.495  62.022  1.00  0.00     0.000 HD 
ENDBRANCH   9  10
ENDBRANCH   6   7
ENDBRANCH   5   6
ENDBRANCH   4   5
TORSDOF 4
ENDMDL
MODEL      263
REMARK 921   NORMALIZED FREE ENERGY PREDICTED BY IDOCK:   -1.76 KCAL/MOL
REMARK 922        TOTAL FREE ENERGY PREDICTED BY IDOCK:   -2.48 KCAL/MOL
REMARK 923 INTER-LIGAND FREE ENERGY PREDICTED BY IDOCK:   -2.19 KCAL/MOL
REMARK 924 INTRA-LIGAND FREE ENERGY PREDICTED BY IDOCK:   -0.29 KCAL/MOL
REMARK 927      BINDING AFFINITY PREDICTED BY RF-SCORE:    0.00 PKD
ROOT
HETATM    1  C   UNL     1     -10.252  15.108  67.524  1.00  0.00    -0.238 C  
HETATM    2  C   UNL     1     -10.014  13.638  67.738  1.00  0.00    -0.235 C  
HETATM    3  C   UNL     1     -11.093  12.865  68.444  1.00  0.00    -0.293 C  
HETATM    4  C   UNL     1      -8.866  13.069  67.316  1.00  0.00    -0.208 C  
ENDROOT
BRANCH   4   5
HETATM    5  C   UNL     1      -8.515  11.607  67.411  1.00  0.00    -0.150 C  
BRANCH   5   6
HETATM    6  C   UNL     1      -8.651  10.886  66.064  1.00  0.00    -0.179 C  
BRANCH   6   7
HETATM    7  C   UNL     1      -8.694   9.374  66.193  1.00  0.00    -0.165 C  
HETATM    8  C   UNL     1      -7.561   8.608  65.561  1.00  0.00    -0.087 C  
HETATM    9  C   UNL     1      -9.727   8.758  66.800  1.00  0.00    -0.286 C  
BRANCH   9  10
HETATM   10  C   UNL     1      -9.931   7.285  66.955  1.00  0.00    -0.232 C  
HETATM   11  O   UNL     1      -9.099   6.828  68.009  1.00  0.00    -0.122 OA 
HETATM   12  H   UNL     1      -9.229   5.891  68.107  1.00  0.00     0.000 HD 
ENDBRANCH   9  10
ENDBRANCH   6   7
ENDBRANCH   5   6
ENDBRANCH   4   5
TORSDOF 4
ENDMDL
MODEL      264
REMARK 921   NORMALIZED FREE ENERGY PREDICTED BY IDOCK:   -1.73 KCAL/MOL
REMARK 922        TOTAL FREE ENERGY PREDICTED BY IDOCK:   -2.46 KCAL/MOL
REMARK 923 INTER-LIGAND FREE ENERGY PREDICTED BY IDOCK:   -2.12 KCAL/MOL
REMARK 924 INTRA-LIGAND FREE ENERGY PREDICTED BY IDOCK:   -0.34 KCAL/MOL
REMARK 927      BINDING AFFINITY PREDICTED BY RF-SCORE:    0.00 PKD
ROOT
HETATM    1  C   UNL     1      -9.724   8.251  72.433  1.00  0.00    -0.373 C  
HETATM    2  C   UNL     1      -9.429   8.733  71.039  1.00  0.00    -0.287 C  
HETATM    3  C   UNL     1     -10.487   8.501  69.996  1.00  0.00    -0.226 C  
HETATM    4  C   UNL     1      -8.252   9.331  70.764  1.00  0.00    -0.210 C  
ENDROOT
BRANCH   4   5
HETATM    5  C   UNL     1      -7.843   9.911  69.436  1.00  0.00    -0.127 C  
BRANCH   5   6
HETATM    6  C   UNL     1      -7.045   8.915  68.585  1.00  0.00    -0.071 C  
BRANCH   6   7
HETATM    7  C   UNL     1      -7.020   9.270  67.109  1.00  0.00    -0.085 C  
HETATM    8  C   UNL     1      -5.663   9.416  66.471  1.00  0.00    -0.054 C  
HETATM    9  C   UNL     1      -8.161   9.488  66.427  1.00  0.00    -0.115 C  
BRANCH   9  10
HETATM   10  C   UNL     1      -8.290   9.894  64.994  1.00  0.00    -0.148 C  
HETATM   11  O   UNL     1      -9.555   9.460  64.520  1.00  0.00    -0.418 OA 
HETATM   12  H   UNL     1      -9.637   9.718  63.609  1.00  0.00     0.000 HD 
ENDBRANCH   9  10
ENDBRANCH   6   7
ENDBRANCH   5   6
ENDBRANCH   4   5
TORSDOF 4
ENDMDL
MODEL      265
REMARK 921   NORMALIZED FREE ENERGY PREDICTED BY IDOCK:   -1.73 KCAL/MOL
REMARK 922        TOTAL FREE ENERGY PREDICTED BY IDOCK:   -2.45 KCAL/MOL
REMARK 923 INTER-LIGAND FREE ENERGY PREDICTED BY IDOCK:   -2.14 KCAL/MOL
REMARK 924 INTRA-LIGAND FREE ENERGY PREDICTED BY IDOCK:   -0.31 KCAL/MOL
REMARK 927      BINDING AFFINITY PREDICTED BY RF-SCORE:    0.00 PKD
ROOT
HETATM    1  C   UNL     1      -6.880   8.993  74.557  1.00  0.00     0.026 C  
HETATM    2  C   UNL     1      -7.126   7.910  73.542  1.00  0.00    -0.133 C  
HETATM    3  C   UNL     1      -6.768   6.505  73.939  1.00  0.00    -0.073 C  
HETATM    4  C   UNL     1      -7.634   8.219  72.331  1.00  0.00    -0.160 C  
ENDROOT
BRANCH   4   5
HETATM    5  C   UNL     1      -7.983   7.240  71.241  1.00  0.00    -0.098 C  
BRANCH   5   6
HETATM    6  C   UNL     1      -9.468   6.853  71.260  1.00  0.00    -0.165 C  
BRANCH   6   7
HETATM    7  C   UNL     1     -10.197   7.209  69.977  1.00  0.00    -0.205 C  
HETATM    8  C   UNL     1     -11.138   6.171  69.423  1.00  0.00    -0.479 C  
HETATM    9  C   UNL     1      -9.968   8.378  69.348  1.00  0.00    -0.191 C  
BRANCH   9  10
HETATM   10  C   UNL     1     -10.568   8.840  68.059  1.00  0.00    -0.159 C  
HETATM   11  O   UNL     1     -11.383   9.970  68.327  1.00  0.00    -0.506 OA 
HETATM   12  H   UNL     1     -11.764  10.264  67.508  1.00  0.00     0.000 HD 
ENDBRANCH   9  10
ENDBRANCH   6   7
ENDBRANCH   5   6
ENDBRANCH   4   5
TORSDOF 4
ENDMDL
MODEL      266
REMARK 921   NORMALIZED FREE ENERGY PREDICTED BY IDOCK:   -1.71 KCAL/MOL
REMARK 922        TOTAL FREE ENERGY PREDICTED BY IDOCK:   -2.43 KCAL/MOL
REMARK 923 INTER-LIGAND FREE ENERGY PREDICTED BY IDOCK:   -2.05 KCAL/MOL
REMARK 924 INTRA-LIGAND FREE ENERGY PREDICTED BY IDOCK:   -0.38 KCAL/MOL
REMARK 927      BINDING AFFINITY PREDICTED BY RF-SCORE:    0.00 PKD
ROOT
HETATM    1  C   UNL     1      -9.911   4.562  69.394  1.00  0.00    -0.260 C  
HETATM    2  C   UNL     1      -9.719   5.246  68.068  1.00  0.00    -0.179 C  
HETATM    3  C   UNL     1      -8.615   4.733  67.186  1.00  0.00    -0.104 C  
HETATM    4  C   UNL     1     -10.510   6.281  67.720  1.00  0.00    -0.289 C  
ENDROOT
BRANCH   4   5
HETATM    5  C   UNL     1     -10.472   7.022  66.409  1.00  0.00     0.121 C  
BRANCH   5   6
HETATM    6  C   UNL     1     -10.107   8.502  66.586  1.00  0.00    -0.364 C  
BRANCH   6   7
HETATM    7  C   UNL     1      -9.274   9.056  65.445  1.00  0.00    -0.241 C  
HETATM    8  C   UNL     1      -9.401  10.531  65.168  1.00  0.00    -0.262 C  
HETATM    9  C   UNL     1      -8.501   8.249  64.693  1.00  0.00    -0.069 C  
BRANCH   9  10
HETATM   10  C   UNL     1      -7.672   8.640  63.511  1.00  0.00    -0.136 C  
HETATM   11  O   UNL     1      -8.415   8.365  62.335  1.00  0.00    -0.265 OA 
HETATM   12  H   UNL     1      -7.888   8.614  61.584  1.00  0.00     0.000 HD 
ENDBRANCH   9  10
ENDBRANCH   6   7
ENDBRANCH   5   6
ENDBRANCH   4   5
TORSDOF 4
ENDMDL
MODEL      267
REMARK 921   NORMALIZED FREE ENERGY PREDICTED BY IDOCK:   -1.70 KCAL/MOL
REMARK 922        TOTAL FREE ENERGY PREDICTED BY IDOCK:   -2.42 KCAL/MOL
REMARK 923 INTER-LIGAND FREE ENERGY PREDICTED BY IDOCK:   -2.36 KCAL/MOL
REMARK 924 INTRA-LIGAND FREE ENERGY PREDICTED BY IDOCK:   -0.06 KCAL/MOL
REMARK 927      BINDING AFFINITY PREDICTED BY RF-SCORE:    0.00 PKD
ROOT
HETATM    1  C   UNL     1      -6.969   5.803  66.272  1.00  0.00    -0.060 C  
HETATM    2  C   UNL     1      -8.459   5.592  66.288  1.00  0.00    -0.122 C  
HETATM    3  C   UNL     1      -9.056   4.835  65.134  1.00  0.00    -0.155 C  
HETATM    4  C   UNL     1      -9.201   6.085  67.300  1.00  0.00    -0.114 C  
ENDROOT
BRANCH   4   5
HETATM    5  C   UNL     1     -10.686   5.905  67.478  1.00  0.00    -0.359 C  
BRANCH   5   6
HETATM    6  C   UNL     1     -11.147   6.239  68.902  1.00  0.00    -0.434 C  
BRANCH   6   7
HETATM    7  C   UNL     1     -10.357   5.514  69.976  1.00  0.00    -0.358 C  
HETATM    8  C   UNL     1      -9.878   4.125  69.643  1.00  0.00    -0.208 C  
HETATM    9  C   UNL     1     -10.145   6.076  71.182  1.00  0.00    -0.241 C  
BRANCH   9  10
HETATM   10  C   UNL     1      -9.435   5.465  72.348  1.00  0.00    -0.143 C  
HETATM   11  O   UNL     1     -10.405   4.885  73.205  1.00  0.00    -0.162 OA 
HETATM   12  H   UNL     1      -9.954   4.497  73.946  1.00  0.00     0.000 HD 
ENDBRANCH   9  10
ENDBRANCH   6   7
ENDBRANCH   5   6
ENDBRANCH   4   5
TORSDOF 4
ENDMDL
MODEL      268
REMARK 921   NORMALIZED FREE ENERGY PREDICTED BY IDOCK:   -1.67 KCAL/MOL
REMARK 922        TOTAL FREE ENERGY PREDICTED BY IDOCK:   -2.38 KCAL/MOL
REMARK 923 INTER-LIGAND FREE ENERGY PREDICTED BY IDOCK:   -2.21 KCAL/MOL
REMARK 924 INTRA-LIGAND FREE ENERGY PREDICTED BY IDOCK:   -0.17 KCAL/MOL
REMARK 927      BINDING AFFINITY PREDICTED BY RF-SCORE:    0.00 PKD
ROOT
HETATM    1  C   UNL     1      -6.068  10.509  70.017  1.00  0.00    -0.091 C  
HETATM    2  C   UNL     1      -6.626  10.195  68.656  1.00  0.00    -0.053 C  
HETATM    3  C   UNL     1      -6.003  10.896  67.481  1.00  0.00    -0.045 C  
HETATM    4  C   UNL     1      -7.652   9.328  68.528  1.00  0.00    -0.085 C  
ENDROOT
BRANCH   4   5
HETATM    5  C   UNL     1      -8.274   8.878  67.232  1.00  0.00    -0.104 C  
BRANCH   5   6
HETATM    6  C   UNL     1      -9.799   9.041  67.230  1.00  0.00    -0.252 C  
BRANCH   6   7
HETATM    7  C   UNL     1     -10.399   9.111  68.623  1.00  0.00    -0.233 C  
HETATM    8  C   UNL     1     -10.574   7.804  69.351  1.00  0.00    -0.211 C  
HETATM    9  C   UNL     1     -10.796  10.286  69.149  1.00  0.00    -0.270 C  
BRANCH   9  10
HETATM   10  C   UNL     1     -11.448  10.502  70.478  1.00  0.00    -0.345 C  
HETATM   11  O   UNL     1     -12.853  10.414  70.305  1.00  0.00    -0.519 OA 
HETATM   12  H   UNL     1     -13.267  10.551  71.149  1.00  0.00     0.000 HD 
ENDBRANCH   9  10
ENDBRANCH   6   7
ENDBRANCH   5   6
ENDBRANCH   4   5
TORSDOF 4
ENDMDL
MODEL      269
REMARK 921   NORMALIZED FREE ENERGY PREDICTED BY IDOCK:   -1.65 KCAL/MOL
REMARK 922        TOTAL FREE ENERGY PREDICTED BY IDOCK:   -2.36 KCAL/MOL
REMARK 923 INTER-LIGAND FREE ENERGY PREDICTED BY IDOCK:   -2.16 KCAL/MOL
REMARK 924 INTRA-LIGAND FREE ENERGY PREDICTED BY IDOCK:   -0.20 KCAL/MOL
REMARK 927      BINDING AFFINITY PREDICTED BY RF-SCORE:    0.00 PKD
ROOT
HETATM    1  C   UNL     1      -8.679  15.819  68.168  1.00  0.00    -0.173 C  
HETATM    2  C   UNL     1      -9.495  14.560  68.054  1.00  0.00    -0.209 C  
HETATM    3  C   UNL     1     -10.742  14.626  67.215  1.00  0.00    -0.290 C  
HETATM    4  C   UNL     1      -9.108  13.441  68.700  1.00  0.00     0.012 C  
ENDROOT
BRANCH   4   5
HETATM    5  C   UNL     1      -9.791  12.100  68.634  1.00  0.00    -0.110 C  
BRANCH   5   6
HETATM    6  C   UNL     1      -8.796  10.936  68.708  1.00  0.00    -0.162 C  
BRANCH   6   7
HETATM    7  C   UNL     1      -9.464   9.582  68.871  1.00  0.00    -0.155 C  
HETATM    8  C   UNL     1      -9.234   8.577  67.773  1.00  0.00    -0.146 C  
HETATM    9  C   UNL     1     -10.262   9.324  69.925  1.00  0.00    -0.235 C  
BRANCH   9  10
HETATM   10  C   UNL     1     -11.025   8.066  70.191  1.00  0.00    -0.226 C  
HETATM   11  O   UNL     1     -12.227   8.406  70.863  1.00  0.00    -0.462 OA 
HETATM   12  H   UNL     1     -12.711   7.607  71.031  1.00  0.00     0.000 HD 
ENDBRANCH   9  10
ENDBRANCH   6   7
ENDBRANCH   5   6
ENDBRANCH   4   5
TORSDOF 4
ENDMDL
MODEL      270
REMARK 921   NORMALIZED FREE ENERGY PREDICTED BY IDOCK:   -1.64 KCAL/MOL
REMARK 922        TOTAL FREE ENERGY PREDICTED BY IDOCK:   -2.34 KCAL/MOL
REMARK 923 INTER-LIGAND FREE ENERGY PREDICTED BY IDOCK:   -2.10 KCAL/MOL
REMARK 924 INTRA-LIGAND FREE ENERGY PREDICTED BY IDOCK:   -0.24 KCAL/MOL
REMARK 927      BINDING AFFINITY PREDICTED BY RF-SCORE:    0.00 PKD
ROOT
HETATM    1  C   UNL     1     -11.020   6.099  67.240  1.00  0.00    -0.418 C  
HETATM    2  C   UNL     1     -10.161   6.289  68.461  1.00  0.00    -0.205 C  
HETATM    3  C   UNL     1     -10.398   5.357  69.617  1.00  0.00    -0.361 C  
HETATM    4  C   UNL     1      -9.237   7.271  68.493  1.00  0.00    -0.138 C  
ENDROOT
BRANCH   4   5
HETATM    5  C   UNL     1      -8.273   7.543  69.617  1.00  0.00    -0.129 C  
BRANCH   5   6
HETATM    6  C   UNL     1      -6.984   8.216  69.129  1.00  0.00    -0.060 C  
BRANCH   6   7
HETATM    7  C   UNL     1      -7.224   9.542  68.430  1.00  0.00    -0.075 C  
HETATM    8  C   UNL     1      -7.640  10.700  69.299  1.00  0.00    -0.138 C  
HETATM    9  C   UNL     1      -7.117   9.651  67.092  1.00  0.00    -0.086 C  
BRANCH   9  10
HETATM   10  C   UNL     1      -7.373  10.870  66.264  1.00  0.00    -0.127 C  
HETATM   11  O   UNL     1      -6.441  10.887  65.195  1.00  0.00    -0.366 OA 
HETATM   12  H   UNL     1      -6.604  11.661  64.669  1.00  0.00     0.000 HD 
ENDBRANCH   9  10
ENDBRANCH   6   7
ENDBRANCH   5   6
ENDBRANCH   4   5
TORSDOF 4
ENDMDL
MODEL      271
REMARK 921   NORMALIZED FREE ENERGY PREDICTED BY IDOCK:   -1.64 KCAL/MOL
REMARK 922        TOTAL FREE ENERGY PREDICTED BY IDOCK:   -2.34 KCAL/MOL
REMARK 923 INTER-LIGAND FREE ENERGY PREDICTED BY IDOCK:   -2.12 KCAL/MOL
REMARK 924 INTRA-LIGAND FREE ENERGY PREDICTED BY IDOCK:   -0.21 KCAL/MOL
REMARK 927      BINDING AFFINITY PREDICTED BY RF-SCORE:    0.00 PKD
ROOT
HETATM    1  C   UNL     1     -10.325  10.693  64.624  1.00  0.00    -0.353 C  
HETATM    2  C   UNL     1      -9.381   9.954  65.533  1.00  0.00    -0.280 C  
HETATM    3  C   UNL     1      -7.985   9.718  65.026  1.00  0.00    -0.131 C  
HETATM    4  C   UNL     1      -9.801   9.523  66.740  1.00  0.00    -0.277 C  
ENDROOT
BRANCH   4   5
HETATM    5  C   UNL     1      -8.958   8.824  67.774  1.00  0.00    -0.140 C  
BRANCH   5   6
HETATM    6  C   UNL     1      -9.577   8.895  69.175  1.00  0.00    -0.162 C  
BRANCH   6   7
HETATM    7  C   UNL     1      -9.422   7.608  69.966  1.00  0.00    -0.161 C  
HETATM    8  C   UNL     1     -10.221   6.422  69.492  1.00  0.00    -0.228 C  
HETATM    9  C   UNL     1      -8.644   7.557  71.065  1.00  0.00    -0.132 C  
BRANCH   9  10
HETATM   10  C   UNL     1      -8.438   6.384  71.969  1.00  0.00    -0.115 C  
HETATM   11  O   UNL     1      -9.525   6.325  72.878  1.00  0.00    -0.147 OA 
HETATM   12  H   UNL     1      -9.394   5.580  73.452  1.00  0.00     0.000 HD 
ENDBRANCH   9  10
ENDBRANCH   6   7
ENDBRANCH   5   6
ENDBRANCH   4   5
TORSDOF 4
ENDMDL
MODEL      272
REMARK 921   NORMALIZED FREE ENERGY PREDICTED BY IDOCK:   -1.60 KCAL/MOL
REMARK 922        TOTAL FREE ENERGY PREDICTED BY IDOCK:   -2.29 KCAL/MOL
REMARK 923 INTER-LIGAND FREE ENERGY PREDICTED BY IDOCK:   -1.61 KCAL/MOL
REMARK 924 INTRA-LIGAND FREE ENERGY PREDICTED BY IDOCK:   -0.68 KCAL/MOL
REMARK 927      BINDING AFFINITY PREDICTED BY RF-SCORE:    0.00 PKD
ROOT
HETATM    1  C   UNL     1      -6.945   6.133  66.504  1.00  0.00    -0.067 C  
HETATM    2  C   UNL     1      -8.167   6.915  66.903  1.00  0.00    -0.113 C  
HETATM    3  C   UNL     1      -9.504   6.320  66.558  1.00  0.00    -0.181 C  
HETATM    4  C   UNL     1      -8.036   8.101  67.531  1.00  0.00    -0.123 C  
ENDROOT
BRANCH   4   5
HETATM    5  C   UNL     1      -9.163   8.964  68.038  1.00  0.00    -0.147 C  
BRANCH   5   6
HETATM    6  C   UNL     1      -9.254   8.962  69.569  1.00  0.00    -0.150 C  
BRANCH   6   7
HETATM    7  C   UNL     1      -9.744   7.643  70.140  1.00  0.00    -0.179 C  
HETATM    8  C   UNL     1     -11.147   7.230  69.783  1.00  0.00    -0.203 C  
HETATM    9  C   UNL     1      -8.968   6.914  70.966  1.00  0.00    -0.151 C  
BRANCH   9  10
HETATM   10  C   UNL     1      -9.332   5.631  71.643  1.00  0.00    -0.146 C  
HETATM   11  O   UNL     1      -9.741   5.927  72.969  1.00  0.00    -0.154 OA 
HETATM   12  H   UNL     1      -9.972   5.112  73.399  1.00  0.00     0.000 HD 
ENDBRANCH   9  10
ENDBRANCH   6   7
ENDBRANCH   5   6
ENDBRANCH   4   5
TORSDOF 4
ENDMDL
MODEL      273
REMARK 921   NORMALIZED FREE ENERGY PREDICTED BY IDOCK:   -1.60 KCAL/MOL
REMARK 922        TOTAL FREE ENERGY PREDICTED BY IDOCK:   -2.28 KCAL/MOL
REMARK 923 INTER-LIGAND FREE ENERGY PREDICTED BY IDOCK:   -2.30 KCAL/MOL
REMARK 924 INTRA-LIGAND FREE ENERGY PREDICTED BY IDOCK:    0.01 KCAL/MOL
REMARK 927      BINDING AFFINITY PREDICTED BY RF-SCORE:    0.00 PKD
ROOT
HETATM    1  C   UNL     1      -7.507   5.793  66.591  1.00  0.00    -0.084 C  
HETATM    2  C   UNL     1      -8.363   4.935  67.483  1.00  0.00    -0.105 C  
HETATM    3  C   UNL     1      -8.570   3.506  67.064  1.00  0.00    -0.116 C  
HETATM    4  C   UNL     1      -8.919   5.457  68.595  1.00  0.00    -0.115 C  
ENDROOT
BRANCH   4   5
HETATM    5  C   UNL     1      -9.747   4.709  69.606  1.00  0.00    -0.283 C  
BRANCH   5   6
HETATM    6  C   UNL     1     -10.353   5.638  70.666  1.00  0.00    -0.320 C  
BRANCH   6   7
HETATM    7  C   UNL     1      -9.976   7.096  70.473  1.00  0.00    -0.191 C  
HETATM    8  C   UNL     1      -8.791   7.598  71.255  1.00  0.00    -0.139 C  
HETATM    9  C   UNL     1     -10.705   7.902  69.678  1.00  0.00    -0.218 C  
BRANCH   9  10
HETATM   10  C   UNL     1     -10.489   9.362  69.434  1.00  0.00    -0.220 C  
HETATM   11  O   UNL     1     -11.496   9.819  68.546  1.00  0.00    -0.508 OA 
HETATM   12  H   UNL     1     -11.359  10.747  68.391  1.00  0.00     0.000 HD 
ENDBRANCH   9  10
ENDBRANCH   6   7
ENDBRANCH   5   6
ENDBRANCH   4   5
TORSDOF 4
ENDMDL
MODEL      274
REMARK 921   NORMALIZED FREE ENERGY PREDICTED BY IDOCK:   -1.58 KCAL/MOL
REMARK 922        TOTAL FREE ENERGY PREDICTED BY IDOCK:   -2.27 KCAL/MOL
REMARK 923 INTER-LIGAND FREE ENERGY PREDICTED BY IDOCK:   -1.86 KCAL/MOL
REMARK 924 INTRA-LIGAND FREE ENERGY PREDICTED BY IDOCK:   -0.41 KCAL/MOL
REMARK 927      BINDING AFFINITY PREDICTED BY RF-SCORE:    0.00 PKD
ROOT
HETATM    1  C   UNL     1      -8.545   9.424  69.271  1.00  0.00    -0.143 C  
HETATM    2  C   UNL     1      -9.112   8.276  68.479  1.00  0.00    -0.136 C  
HETATM    3  C   UNL     1     -10.256   8.582  67.552  1.00  0.00    -0.307 C  
HETATM    4  C   UNL     1      -8.603   7.036  68.626  1.00  0.00    -0.120 C  
ENDROOT
BRANCH   4   5
HETATM    5  C   UNL     1      -9.028   5.808  67.864  1.00  0.00    -0.111 C  
BRANCH   5   6
HETATM    6  C   UNL     1      -9.917   4.880  68.702  1.00  0.00    -0.195 C  
BRANCH   6   7
HETATM    7  C   UNL     1      -9.337   4.566  70.070  1.00  0.00    -0.223 C  
HETATM    8  C   UNL     1      -8.058   3.771  70.096  1.00  0.00    -0.054 C  
HETATM    9  C   UNL     1      -9.972   4.944  71.196  1.00  0.00    -0.278 C  
BRANCH   9  10
HETATM   10  C   UNL     1      -9.552   4.662  72.604  1.00  0.00    -0.136 C  
HETATM   11  O   UNL     1     -10.496   3.775  73.181  1.00  0.00    -0.158 OA 
HETATM   12  H   UNL     1     -10.230   3.596  74.075  1.00  0.00     0.000 HD 
ENDBRANCH   9  10
ENDBRANCH   6   7
ENDBRANCH   5   6
ENDBRANCH   4   5
TORSDOF 4
ENDMDL
MODEL      275
REMARK 921   NORMALIZED FREE ENERGY PREDICTED BY IDOCK:   -1.58 KCAL/MOL
REMARK 922        TOTAL FREE ENERGY PREDICTED BY IDOCK:   -2.26 KCAL/MOL
REMARK 923 INTER-LIGAND FREE ENERGY PREDICTED BY IDOCK:   -1.87 KCAL/MOL
REMARK 924 INTRA-LIGAND FREE ENERGY PREDICTED BY IDOCK:   -0.39 KCAL/MOL
REMARK 927      BINDING AFFINITY PREDICTED BY RF-SCORE:    0.00 PKD
ROOT
HETATM    1  C   UNL     1      -8.932   5.325  71.849  1.00  0.00    -0.146 C  
HETATM    2  C   UNL     1      -9.723   5.386  70.570  1.00  0.00    -0.246 C  
HETATM    3  C   UNL     1     -10.889   6.335  70.531  1.00  0.00    -0.348 C  
HETATM    4  C   UNL     1      -9.385   4.602  69.526  1.00  0.00    -0.208 C  
ENDROOT
BRANCH   4   5
HETATM    5  C   UNL     1     -10.046   4.596  68.173  1.00  0.00    -0.072 C  
BRANCH   5   6
HETATM    6  C   UNL     1      -9.034   4.743  67.030  1.00  0.00    -0.111 C  
BRANCH   6   7
HETATM    7  C   UNL     1      -8.970   6.149  66.461  1.00  0.00    -0.143 C  
HETATM    8  C   UNL     1      -8.310   6.305  65.116  1.00  0.00    -0.119 C  
HETATM    9  C   UNL     1      -9.439   7.202  67.157  1.00  0.00    -0.180 C  
BRANCH   9  10
HETATM   10  C   UNL     1      -9.397   8.641  66.751  1.00  0.00    -0.179 C  
HETATM   11  O   UNL     1      -8.764   9.377  67.786  1.00  0.00    -0.117 OA 
HETATM   12  H   UNL     1      -8.737  10.291  67.528  1.00  0.00     0.000 HD 
ENDBRANCH   9  10
ENDBRANCH   6   7
ENDBRANCH   5   6
ENDBRANCH   4   5
TORSDOF 4
ENDMDL
MODEL      276
REMARK 921   NORMALIZED FREE ENERGY PREDICTED BY IDOCK:   -1.53 KCAL/MOL
REMARK 922        TOTAL FREE ENERGY PREDICTED BY IDOCK:   -2.21 KCAL/MOL
REMARK 923 INTER-LIGAND FREE ENERGY PREDICTED BY IDOCK:   -1.80 KCAL/MOL
REMARK 924 INTRA-LIGAND FREE ENERGY PREDICTED BY IDOCK:   -0.41 KCAL/MOL
REMARK 927      BINDING AFFINITY PREDICTED BY RF-SCORE:    0.00 PKD
ROOT
HETATM    1  C   UNL     1     -10.151   4.103  70.019  1.00  0.00     0.030 C  
HETATM    2  C   UNL     1      -9.435   5.406  69.797  1.00  0.00    -0.202 C  
HETATM    3  C   UNL     1      -8.263   5.392  68.854  1.00  0.00    -0.100 C  
HETATM    4  C   UNL     1      -9.840   6.521  70.440  1.00  0.00    -0.193 C  
ENDROOT
BRANCH   4   5
HETATM    5  C   UNL     1      -9.259   7.900  70.274  1.00  0.00    -0.152 C  
BRANCH   5   6
HETATM    6  C   UNL     1     -10.190   8.835  69.491  1.00  0.00    -0.208 C  
BRANCH   6   7
HETATM    7  C   UNL     1      -9.609   9.289  68.164  1.00  0.00    -0.159 C  
HETATM    8  C   UNL     1      -8.267   8.720  67.782  1.00  0.00    -0.111 C  
HETATM    9  C   UNL     1     -10.248  10.196  67.400  1.00  0.00    -0.267 C  
BRANCH   9  10
HETATM   10  C   UNL     1      -9.777  10.773  66.104  1.00  0.00    -0.207 C  
HETATM   11  O   UNL     1      -9.667  12.180  66.257  1.00  0.00    -0.228 OA 
HETATM   12  H   UNL     1      -9.368  12.547  65.433  1.00  0.00     0.000 HD 
ENDBRANCH   9  10
ENDBRANCH   6   7
ENDBRANCH   5   6
ENDBRANCH   4   5
TORSDOF 4
ENDMDL
MODEL      277
REMARK 921   NORMALIZED FREE ENERGY PREDICTED BY IDOCK:   -1.45 KCAL/MOL
REMARK 922        TOTAL FREE ENERGY PREDICTED BY IDOCK:   -2.11 KCAL/MOL
REMARK 923 INTER-LIGAND FREE ENERGY PREDICTED BY IDOCK:   -1.68 KCAL/MOL
REMARK 924 INTRA-LIGAND FREE ENERGY PREDICTED BY IDOCK:   -0.43 KCAL/MOL
REMARK 927      BINDING AFFINITY PREDICTED BY RF-SCORE:    0.00 PKD
ROOT
HETATM    1  C   UNL     1      -8.897   1.974  65.612  1.00  0.00    -0.121 C  
HETATM    2  C   UNL     1      -7.925   2.758  66.452  1.00  0.00    -0.081 C  
HETATM    3  C   UNL     1      -7.427   2.106  67.712  1.00  0.00    -0.055 C  
HETATM    4  C   UNL     1      -7.545   3.995  66.071  1.00  0.00    -0.089 C  
ENDROOT
BRANCH   4   5
HETATM    5  C   UNL     1      -6.543   4.870  66.777  1.00  0.00    -0.050 C  
BRANCH   5   6
HETATM    6  C   UNL     1      -7.148   5.588  67.990  1.00  0.00    -0.067 C  
BRANCH   6   7
HETATM    7  C   UNL     1      -8.406   6.370  67.660  1.00  0.00    -0.117 C  
HETATM    8  C   UNL     1      -8.267   7.482  66.653  1.00  0.00    -0.125 C  
HETATM    9  C   UNL     1      -9.572   6.106  68.281  1.00  0.00    -0.122 C  
BRANCH   9  10
HETATM   10  C   UNL     1     -10.872   6.822  68.100  1.00  0.00    -0.228 C  
HETATM   11  O   UNL     1     -11.539   6.258  66.982  1.00  0.00    -0.629 OA 
HETATM   12  H   UNL     1     -12.365   6.713  66.867  1.00  0.00     0.000 HD 
ENDBRANCH   9  10
ENDBRANCH   6   7
ENDBRANCH   5   6
ENDBRANCH   4   5
TORSDOF 4
ENDMDL
MODEL      278
REMARK 921   NORMALIZED FREE ENERGY PREDICTED BY IDOCK:   -1.43 KCAL/MOL
REMARK 922        TOTAL FREE ENERGY PREDICTED BY IDOCK:   -2.08 KCAL/MOL
REMARK 923 INTER-LIGAND FREE ENERGY PREDICTED BY IDOCK:   -2.92 KCAL/MOL
REMARK 924 INTRA-LIGAND FREE ENERGY PREDICTED BY IDOCK:    0.84 KCAL/MOL
REMARK 927      BINDING AFFINITY PREDICTED BY RF-SCORE:    0.00 PKD
ROOT
HETATM    1  C   UNL     1      -8.551  19.069  68.524  1.00  0.00    -0.393 C  
HETATM    2  C   UNL     1      -8.611  17.567  68.463  1.00  0.00    -0.276 C  
HETATM    3  C   UNL     1      -9.757  16.898  69.169  1.00  0.00    -0.177 C  
HETATM    4  C   UNL     1      -7.655  16.877  67.808  1.00  0.00    -0.180 C  
ENDROOT
BRANCH   4   5
HETATM    5  C   UNL     1      -7.614  15.384  67.616  1.00  0.00    -0.188 C  
BRANCH   5   6
HETATM    6  C   UNL     1      -8.697  14.663  68.429  1.00  0.00    -0.175 C  
BRANCH   6   7
HETATM    7  C   UNL     1      -9.183  13.380  67.778  1.00  0.00    -0.211 C  
HETATM    8  C   UNL     1      -8.140  12.335  67.480  1.00  0.00    -0.170 C  
HETATM    9  C   UNL     1     -10.478  13.218  67.443  1.00  0.00    -0.243 C  
BRANCH   9  10
HETATM   10  C   UNL     1     -11.089  12.040  66.754  1.00  0.00    -0.305 C  
HETATM   11  O   UNL     1     -12.178  12.498  65.969  1.00  0.00    -0.605 OA 
HETATM   12  H   UNL     1     -12.566  11.750  65.531  1.00  0.00     0.000 HD 
ENDBRANCH   9  10
ENDBRANCH   6   7
ENDBRANCH   5   6
ENDBRANCH   4   5
TORSDOF 4
ENDMDL
MODEL      279
REMARK 921   NORMALIZED FREE ENERGY PREDICTED BY IDOCK:   -1.43 KCAL/MOL
REMARK 922        TOTAL FREE ENERGY PREDICTED BY IDOCK:   -2.08 KCAL/MOL
REMARK 923 INTER-LIGAND FREE ENERGY PREDICTED BY IDOCK:   -1.76 KCAL/MOL
REMARK 924 INTRA-LIGAND FREE ENERGY PREDICTED BY IDOCK:   -0.32 KCAL/MOL
REMARK 927      BINDING AFFINITY PREDICTED BY RF-SCORE:    0.00 PKD
ROOT
HETATM    1  C   UNL     1      -9.859   4.530  69.382  1.00  0.00    -0.260 C  
HETATM    2  C   UNL     1      -9.277   5.181  68.157  1.00  0.00    -0.136 C  
HETATM    3  C   UNL     1      -8.121   4.484  67.495  1.00  0.00    -0.100 C  
HETATM    4  C   UNL     1      -9.783   6.346  67.704  1.00  0.00    -0.130 C  
ENDROOT
BRANCH   4   5
HETATM    5  C   UNL     1      -9.342   7.080  66.465  1.00  0.00    -0.201 C  
BRANCH   5   6
HETATM    6  C   UNL     1      -8.162   8.022  66.734  1.00  0.00    -0.111 C  
BRANCH   6   7
HETATM    7  C   UNL     1      -8.563   9.298  67.453  1.00  0.00    -0.122 C  
HETATM    8  C   UNL     1      -7.554   9.884  68.406  1.00  0.00    -0.083 C  
HETATM    9  C   UNL     1      -9.783   9.841  67.276  1.00  0.00    -0.213 C  
BRANCH   9  10
HETATM   10  C   UNL     1     -10.334  11.056  67.951  1.00  0.00    -0.186 C  
HETATM   11  O   UNL     1     -11.125  10.634  69.051  1.00  0.00    -0.219 OA 
HETATM   12  H   UNL     1     -11.475  11.406  69.480  1.00  0.00     0.000 HD 
ENDBRANCH   9  10
ENDBRANCH   6   7
ENDBRANCH   5   6
ENDBRANCH   4   5
TORSDOF 4
ENDMDL
MODEL      280
REMARK 921   NORMALIZED FREE ENERGY PREDICTED BY IDOCK:   -1.37 KCAL/MOL
REMARK 922        TOTAL FREE ENERGY PREDICTED BY IDOCK:   -2.01 KCAL/MOL
REMARK 923 INTER-LIGAND FREE ENERGY PREDICTED BY IDOCK:   -1.87 KCAL/MOL
REMARK 924 INTRA-LIGAND FREE ENERGY PREDICTED BY IDOCK:   -0.14 KCAL/MOL
REMARK 927      BINDING AFFINITY PREDICTED BY RF-SCORE:    0.00 PKD
ROOT
HETATM    1  C   UNL     1      -9.213   4.104  69.250  1.00  0.00    -0.213 C  
HETATM    2  C   UNL     1      -9.859   5.386  69.703  1.00  0.00    -0.261 C  
HETATM    3  C   UNL     1     -10.199   6.394  68.640  1.00  0.00    -0.201 C  
HETATM    4  C   UNL     1     -10.097   5.598  71.013  1.00  0.00    -0.266 C  
ENDROOT
BRANCH   4   5
HETATM    5  C   UNL     1     -10.783   6.801  71.605  1.00  0.00    -0.252 C  
BRANCH   5   6
HETATM    6  C   UNL     1      -9.885   7.558  72.591  1.00  0.00    -0.242 C  
BRANCH   6   7
HETATM    7  C   UNL     1      -8.430   7.130  72.530  1.00  0.00    -0.126 C  
HETATM    8  C   UNL     1      -7.554   7.850  71.538  1.00  0.00    -0.083 C  
HETATM    9  C   UNL     1      -7.969   6.121  73.294  1.00  0.00    -0.103 C  
BRANCH   9  10
HETATM   10  C   UNL     1      -6.584   5.559  73.304  1.00  0.00    -0.069 C  
HETATM   11  O   UNL     1      -6.508   4.580  74.328  1.00  0.00    -0.053 OA 
HETATM   12  H   UNL     1      -5.628   4.222  74.334  1.00  0.00     0.000 HD 
ENDBRANCH   9  10
ENDBRANCH   6   7
ENDBRANCH   5   6
ENDBRANCH   4   5
TORSDOF 4
ENDMDL
MODEL      281
REMARK 921   NORMALIZED FREE ENERGY PREDICTED BY IDOCK:   -1.36 KCAL/MOL
REMARK 922        TOTAL FREE ENERGY PREDICTED BY IDOCK:   -2.00 KCAL/MOL
REMARK 923 INTER-LIGAND FREE ENERGY PREDICTED BY IDOCK:   -1.73 KCAL/MOL
REMARK 924 INTRA-LIGAND FREE ENERGY PREDICTED BY IDOCK:   -0.27 KCAL/MOL
REMARK 927      BINDING AFFINITY PREDICTED BY RF-SCORE:    0.00 PKD
ROOT
HETATM    1  C   UNL     1      -8.526   8.897  68.846  1.00  0.00    -0.131 C  
HETATM    2  C   UNL     1      -7.866  10.030  68.110  1.00  0.00    -0.089 C  
HETATM    3  C   UNL     1      -6.951   9.668  66.972  1.00  0.00    -0.085 C  
HETATM    4  C   UNL     1      -8.092  11.306  68.485  1.00  0.00    -0.148 C  
ENDROOT
BRANCH   4   5
HETATM    5  C   UNL     1      -7.548  12.538  67.810  1.00  0.00    -0.138 C  
BRANCH   5   6
HETATM    6  C   UNL     1      -8.626  13.608  67.594  1.00  0.00    -0.185 C  
BRANCH   6   7
HETATM    7  C   UNL     1      -8.342  14.904  68.331  1.00  0.00    -0.153 C  
HETATM    8  C   UNL     1      -9.372  15.353  69.334  1.00  0.00    -0.266 C  
HETATM    9  C   UNL     1      -7.243  15.633  68.055  1.00  0.00    -0.140 C  
BRANCH   9  10
HETATM   10  C   UNL     1      -6.860  16.948  68.657  1.00  0.00    -0.183 C  
HETATM   11  O   UNL     1      -7.482  17.979  67.908  1.00  0.00    -0.214 OA 
HETATM   12  H   UNL     1      -7.239  18.814  68.290  1.00  0.00     0.000 HD 
ENDBRANCH   9  10
ENDBRANCH   6   7
ENDBRANCH   5   6
ENDBRANCH   4   5
TORSDOF 4
ENDMDL
MODEL      282
REMARK 921   NORMALIZED FREE ENERGY PREDICTED BY IDOCK:   -1.34 KCAL/MOL
REMARK 922        TOTAL FREE ENERGY PREDICTED BY IDOCK:   -1.97 KCAL/MOL
REMARK 923 INTER-LIGAND FREE ENERGY PREDICTED BY IDOCK:   -1.62 KCAL/MOL
REMARK 924 INTRA-LIGAND FREE ENERGY PREDICTED BY IDOCK:   -0.35 KCAL/MOL
REMARK 927      BINDING AFFINITY PREDICTED BY RF-SCORE:    0.00 PKD
ROOT
HETATM    1  C   UNL     1      -9.067  14.637  68.673  1.00  0.00    -0.189 C  
HETATM    2  C   UNL     1     -10.456  14.086  68.844  1.00  0.00    -0.210 C  
HETATM    3  C   UNL     1     -11.602  15.032  68.612  1.00  0.00    -0.347 C  
HETATM    4  C   UNL     1     -10.635  12.798  69.204  1.00  0.00     0.013 C  
ENDROOT
BRANCH   4   5
HETATM    5  C   UNL     1     -11.959  12.097  69.357  1.00  0.00    -0.329 C  
BRANCH   5   6
HETATM    6  C   UNL     1     -12.355  11.913  70.827  1.00  0.00    -0.416 C  
BRANCH   6   7
HETATM    7  C   UNL     1     -12.835  13.193  71.486  1.00  0.00    -0.401 C  
HETATM    8  C   UNL     1     -12.219  13.542  72.816  1.00  0.00     0.922 C  
HETATM    9  C   UNL     1     -13.800  13.945  70.922  1.00  0.00     0.278 C  
BRANCH   9  10
HETATM   10  C   UNL     1     -14.407  15.195  71.476  1.00  0.00    -0.559 C  
HETATM   11  O   UNL     1     -13.402  16.195  71.524  1.00  0.00    -0.383 OA 
HETATM   12  H   UNL     1     -13.788  16.989  71.875  1.00  0.00     0.000 HD 
ENDBRANCH   9  10
ENDBRANCH   6   7
ENDBRANCH   5   6
ENDBRANCH   4   5
TORSDOF 4
ENDMDL
MODEL      283
REMARK 921   NORMALIZED FREE ENERGY PREDICTED BY IDOCK:   -1.32 KCAL/MOL
REMARK 922        TOTAL FREE ENERGY PREDICTED BY IDOCK:   -1.95 KCAL/MOL
REMARK 923 INTER-LIGAND FREE ENERGY PREDICTED BY IDOCK:   -2.09 KCAL/MOL
REMARK 924 INTRA-LIGAND FREE ENERGY PREDICTED BY IDOCK:    0.14 KCAL/MOL
REMARK 927      BINDING AFFINITY PREDICTED BY RF-SCORE:    0.00 PKD
ROOT
HETATM    1  C   UNL     1      -7.564   8.352  74.561  1.00  0.00    -0.275 C  
HETATM    2  C   UNL     1      -7.715   7.610  73.261  1.00  0.00    -0.142 C  
HETATM    3  C   UNL     1      -7.458   6.129  73.283  1.00  0.00    -0.092 C  
HETATM    4  C   UNL     1      -8.055   8.275  72.137  1.00  0.00    -0.195 C  
ENDROOT
BRANCH   4   5
HETATM    5  C   UNL     1      -8.297   7.660  70.784  1.00  0.00    -0.117 C  
BRANCH   5   6
HETATM    6  C   UNL     1      -9.786   7.615  70.422  1.00  0.00    -0.183 C  
BRANCH   6   7
HETATM    7  C   UNL     1     -10.559   6.554  71.184  1.00  0.00    -0.271 C  
HETATM    8  C   UNL     1     -12.027   6.810  71.401  1.00  0.00    -0.403 C  
HETATM    9  C   UNL     1      -9.939   5.465  71.679  1.00  0.00    -0.239 C  
BRANCH   9  10
HETATM   10  C   UNL     1     -10.555   4.369  72.490  1.00  0.00    -0.132 C  
HETATM   11  O   UNL     1     -10.390   3.148  71.786  1.00  0.00    -0.036 OA 
HETATM   12  H   UNL     1     -10.781   2.452  72.301  1.00  0.00     0.000 HD 
ENDBRANCH   9  10
ENDBRANCH   6   7
ENDBRANCH   5   6
ENDBRANCH   4   5
TORSDOF 4
ENDMDL
MODEL      284
REMARK 921   NORMALIZED FREE ENERGY PREDICTED BY IDOCK:   -1.29 KCAL/MOL
REMARK 922        TOTAL FREE ENERGY PREDICTED BY IDOCK:   -1.91 KCAL/MOL
REMARK 923 INTER-LIGAND FREE ENERGY PREDICTED BY IDOCK:   -1.64 KCAL/MOL
REMARK 924 INTRA-LIGAND FREE ENERGY PREDICTED BY IDOCK:   -0.28 KCAL/MOL
REMARK 927      BINDING AFFINITY PREDICTED BY RF-SCORE:    0.00 PKD
ROOT
HETATM    1  C   UNL     1      -7.602   8.250  74.475  1.00  0.00    -0.287 C  
HETATM    2  C   UNL     1      -7.578   7.586  73.126  1.00  0.00    -0.115 C  
HETATM    3  C   UNL     1      -7.382   6.095  73.099  1.00  0.00    -0.092 C  
HETATM    4  C   UNL     1      -7.716   8.323  72.005  1.00  0.00    -0.153 C  
ENDROOT
BRANCH   4   5
HETATM    5  C   UNL     1      -7.769   7.792  70.596  1.00  0.00    -0.091 C  
BRANCH   5   6
HETATM    6  C   UNL     1      -9.203   7.695  70.063  1.00  0.00    -0.151 C  
BRANCH   6   7
HETATM    7  C   UNL     1      -9.281   7.658  68.547  1.00  0.00    -0.143 C  
HETATM    8  C   UNL     1     -10.615   7.302  67.946  1.00  0.00    -0.266 C  
HETATM    9  C   UNL     1      -8.190   7.886  67.791  1.00  0.00    -0.129 C  
BRANCH   9  10
HETATM   10  C   UNL     1      -8.101   7.833  66.299  1.00  0.00    -0.114 C  
HETATM   11  O   UNL     1      -7.842   9.143  65.821  1.00  0.00    -0.096 OA 
HETATM   12  H   UNL     1      -7.786   9.110  64.873  1.00  0.00     0.000 HD 
ENDBRANCH   9  10
ENDBRANCH   6   7
ENDBRANCH   5   6
ENDBRANCH   4   5
TORSDOF 4
ENDMDL
MODEL      285
REMARK 921   NORMALIZED FREE ENERGY PREDICTED BY IDOCK:   -0.95 KCAL/MOL
REMARK 922        TOTAL FREE ENERGY PREDICTED BY IDOCK:   -1.49 KCAL/MOL
REMARK 923 INTER-LIGAND FREE ENERGY PREDICTED BY IDOCK:   -1.23 KCAL/MOL
REMARK 924 INTRA-LIGAND FREE ENERGY PREDICTED BY IDOCK:   -0.26 KCAL/MOL
REMARK 927      BINDING AFFINITY PREDICTED BY RF-SCORE:    0.00 PKD
ROOT
HETATM    1  C   UNL     1      -6.261   9.915  70.211  1.00  0.00    -0.082 C  
HETATM    2  C   UNL     1      -6.073   9.353  68.828  1.00  0.00    -0.043 C  
HETATM    3  C   UNL     1      -5.192  10.127  67.888  1.00  0.00    -0.034 C  
HETATM    4  C   UNL     1      -6.692   8.208  68.473  1.00  0.00    -0.063 C  
ENDROOT
BRANCH   4   5
HETATM    5  C   UNL     1      -6.554   7.501  67.150  1.00  0.00    -0.062 C  
BRANCH   5   6
HETATM    6  C   UNL     1      -7.889   7.401  66.400  1.00  0.00    -0.102 C  
BRANCH   6   7
HETATM    7  C   UNL     1      -8.134   6.033  65.789  1.00  0.00    -0.123 C  
HETATM    8  C   UNL     1      -7.390   5.717  64.518  1.00  0.00    -0.068 C  
HETATM    9  C   UNL     1      -9.014   5.174  66.339  1.00  0.00    -0.125 C  
BRANCH   9  10
HETATM   10  C   UNL     1      -9.396   3.824  65.823  1.00  0.00    -0.164 C  
HETATM   11  O   UNL     1     -10.506   3.977  64.953  1.00  0.00    -0.366 OA 
HETATM   12  H   UNL     1     -10.749   3.118  64.626  1.00  0.00     0.000 HD 
ENDBRANCH   9  10
ENDBRANCH   6   7
ENDBRANCH   5   6
ENDBRANCH   4   5
TORSDOF 4
ENDMDL
MODEL      286
REMARK 921   NORMALIZED FREE ENERGY PREDICTED BY IDOCK:   -0.60 KCAL/MOL
REMARK 922        TOTAL FREE ENERGY PREDICTED BY IDOCK:   -1.06 KCAL/MOL
REMARK 923 INTER-LIGAND FREE ENERGY PREDICTED BY IDOCK:   -0.59 KCAL/MOL
REMARK 924 INTRA-LIGAND FREE ENERGY PREDICTED BY IDOCK:   -0.47 KCAL/MOL
REMARK 927      BINDING AFFINITY PREDICTED BY RF-SCORE:    0.00 PKD
ROOT
HETATM    1  C   UNL     1      -5.140  19.808  64.605  1.00  0.00    -0.190 C  
HETATM    2  C   UNL     1      -6.310  19.489  65.495  1.00  0.00    -0.265 C  
HETATM    3  C   UNL     1      -7.447  18.719  64.882  1.00  0.00     1.626 C  
HETATM    4  C   UNL     1      -6.317  19.902  66.779  1.00  0.00    -0.199 C  
ENDROOT
BRANCH   4   5
HETATM    5  C   UNL     1      -7.388  19.611  67.797  1.00  0.00    -0.306 C  
BRANCH   5   6
HETATM    6  C   UNL     1      -6.804  19.222  69.161  1.00  0.00    -0.371 C  
BRANCH   6   7
HETATM    7  C   UNL     1      -6.342  17.777  69.227  1.00  0.00    -0.246 C  
HETATM    8  C   UNL     1      -5.141  17.489  70.090  1.00  0.00    -0.211 C  
HETATM    9  C   UNL     1      -6.954  16.818  68.506  1.00  0.00    -0.168 C  
BRANCH   9  10
HETATM   10  C   UNL     1      -6.581  15.372  68.430  1.00  0.00    -0.113 C  
HETATM   11  O   UNL     1      -7.284  14.676  69.446  1.00  0.00    -0.148 OA 
HETATM   12  H   UNL     1      -7.047  13.757  69.398  1.00  0.00     0.000 HD 
ENDBRANCH   9  10
ENDBRANCH   6   7
ENDBRANCH   5   6
ENDBRANCH   4   5
TORSDOF 4
ENDMDL
MODEL      287
REMARK 921   NORMALIZED FREE ENERGY PREDICTED BY IDOCK:   -0.04 KCAL/MOL
REMARK 922        TOTAL FREE ENERGY PREDICTED BY IDOCK:   -0.37 KCAL/MOL
REMARK 923 INTER-LIGAND FREE ENERGY PREDICTED BY IDOCK:   -0.97 KCAL/MOL
REMARK 924 INTRA-LIGAND FREE ENERGY PREDICTED BY IDOCK:    0.61 KCAL/MOL
REMARK 927      BINDING AFFINITY PREDICTED BY RF-SCORE:    0.00 PKD
ROOT
HETATM    1  C   UNL     1     -10.805  14.257  66.743  1.00  0.00    -0.298 C  
HETATM    2  C   UNL     1      -9.616  13.581  67.369  1.00  0.00    -0.227 C  
HETATM    3  C   UNL     1      -9.689  13.290  68.842  1.00  0.00     0.136 C  
HETATM    4  C   UNL     1      -8.538  13.275  66.618  1.00  0.00     0.054 C  
ENDROOT
BRANCH   4   5
HETATM    5  C   UNL     1      -7.305  12.552  67.092  1.00  0.00    -0.066 C  
BRANCH   5   6
HETATM    6  C   UNL     1      -7.578  11.679  68.323  1.00  0.00    -0.120 C  
BRANCH   6   7
HETATM    7  C   UNL     1      -7.314  10.203  68.084  1.00  0.00    -0.082 C  
HETATM    8  C   UNL     1      -6.081   9.856  67.290  1.00  0.00    -0.059 C  
HETATM    9  C   UNL     1      -8.174   9.263  68.523  1.00  0.00    -0.114 C  
BRANCH   9  10
HETATM   10  C   UNL     1      -8.074   7.785  68.318  1.00  0.00    -0.124 C  
HETATM   11  O   UNL     1      -7.060   7.285  69.175  1.00  0.00    -0.074 OA 
HETATM   12  H   UNL     1      -6.996   6.346  69.045  1.00  0.00     0.000 HD 
ENDBRANCH   9  10
ENDBRANCH   6   7
ENDBRANCH   5   6
ENDBRANCH   4   5
TORSDOF 4
ENDMDL
MODEL      288
REMARK 921   NORMALIZED FREE ENERGY PREDICTED BY IDOCK:    0.10 KCAL/MOL
REMARK 922        TOTAL FREE ENERGY PREDICTED BY IDOCK:   -0.19 KCAL/MOL
REMARK 923 INTER-LIGAND FREE ENERGY PREDICTED BY IDOCK:   -0.60 KCAL/MOL
REMARK 924 INTRA-LIGAND FREE ENERGY PREDICTED BY IDOCK:    0.41 KCAL/MOL
REMARK 927      BINDING AFFINITY PREDICTED BY RF-SCORE:    0.00 PKD
ROOT
HETATM    1  C   UNL     1      -5.785   9.434  72.191  1.00  0.00    -0.005 C  
HETATM    2  C   UNL     1      -5.621   9.425  70.696  1.00  0.00    -0.045 C  
HETATM    3  C   UNL     1      -5.704  10.749  69.989  1.00  0.00    -0.072 C  
HETATM    4  C   UNL     1      -5.421   8.261  70.044  1.00  0.00    -0.022 C  
ENDROOT
BRANCH   4   5
HETATM    5  C   UNL     1      -5.185   8.104  68.565  1.00  0.00    -0.032 C  
BRANCH   5   6
HETATM    6  C   UNL     1      -6.172   8.926  67.726  1.00  0.00    -0.055 C  
BRANCH   6   7
HETATM    7  C   UNL     1      -6.304   8.431  66.297  1.00  0.00    -0.053 C  
HETATM    8  C   UNL     1      -6.187   9.467  65.209  1.00  0.00    -0.066 C  
HETATM    9  C   UNL     1      -6.562   7.136  66.031  1.00  0.00    -0.052 C  
BRANCH   9  10
HETATM   10  C   UNL     1      -6.769   6.517  64.685  1.00  0.00    -0.042 C  
HETATM   11  O   UNL     1      -8.010   6.975  64.171  1.00  0.00    -0.154 OA 
HETATM   12  H   UNL     1      -8.141   6.581  63.316  1.00  0.00     0.000 HD 
ENDBRANCH   9  10
ENDBRANCH   6   7
ENDBRANCH   5   6
ENDBRANCH   4   5
TORSDOF 4
ENDMDL
MODEL      289
REMARK 921   NORMALIZED FREE ENERGY PREDICTED BY IDOCK:    0.22 KCAL/MOL
REMARK 922        TOTAL FREE ENERGY PREDICTED BY IDOCK:   -0.04 KCAL/MOL
REMARK 923 INTER-LIGAND FREE ENERGY PREDICTED BY IDOCK:   -1.29 KCAL/MOL
REMARK 924 INTRA-LIGAND FREE ENERGY PREDICTED BY IDOCK:    1.25 KCAL/MOL
REMARK 927      BINDING AFFINITY PREDICTED BY RF-SCORE:    0.00 PKD
ROOT
HETATM    1  C   UNL     1      -6.281   8.577  72.791  1.00  0.00    -0.088 C  
HETATM    2  C   UNL     1      -6.594   7.865  71.504  1.00  0.00    -0.043 C  
HETATM    3  C   UNL     1      -6.767   8.716  70.276  1.00  0.00    -0.040 C  
HETATM    4  C   UNL     1      -6.721   6.523  71.485  1.00  0.00    -0.058 C  
ENDROOT
BRANCH   4   5
HETATM    5  C   UNL     1      -6.975   5.674  70.267  1.00  0.00    -0.058 C  
BRANCH   5   6
HETATM    6  C   UNL     1      -7.888   6.371  69.252  1.00  0.00    -0.106 C  
BRANCH   6   7
HETATM    7  C   UNL     1      -8.696   5.403  68.406  1.00  0.00    -0.098 C  
HETATM    8  C   UNL     1      -9.803   4.656  69.103  1.00  0.00    -0.242 C  
HETATM    9  C   UNL     1      -8.394   5.194  67.109  1.00  0.00    -0.107 C  
BRANCH   9  10
HETATM   10  C   UNL     1      -9.062   4.239  66.172  1.00  0.00    -0.133 C  
HETATM   11  O   UNL     1      -9.520   3.126  66.922  1.00  0.00    -0.321 OA 
HETATM   12  H   UNL     1      -9.945   2.519  66.326  1.00  0.00     0.000 HD 
ENDBRANCH   9  10
ENDBRANCH   6   7
ENDBRANCH   5   6
ENDBRANCH   4   5
TORSDOF 4
ENDMDL
