MODEL        1
REMARK 921   NORMALIZED FREE ENERGY PREDICTED BY IDOCK:   -7.03 KCAL/MOL
REMARK 922        TOTAL FREE ENERGY PREDICTED BY IDOCK:   -6.63 KCAL/MOL
REMARK 923 INTER-LIGAND FREE ENERGY PREDICTED BY IDOCK:   -7.86 KCAL/MOL
REMARK 924 INTRA-LIGAND FREE ENERGY PREDICTED BY IDOCK:    1.22 KCAL/MOL
REMARK 927      BINDING AFFINITY PREDICTED BY RF-SCORE:    0.00 PKD
ROOT
HETATM    1  C   UNL     1     -10.607  15.567  68.781  1.00  0.00    -0.242 C  
HETATM    2  C   UNL     1     -10.868  17.041  68.936  1.00  0.00    -0.228 C  
HETATM    3  C   UNL     1     -10.749  17.272  67.455  1.00  0.00    -0.278 C  
HETATM    4  C   UNL     1      -8.971  16.609  67.117  1.00  0.00    -0.210 C  
HETATM    5  C   UNL     1     -12.345  14.254  71.541  1.00  0.00    -0.417 C  
HETATM    6  O   UNL     1      -8.609  16.593  65.731  1.00  0.00    -0.464 OA 
HETATM    7  C   UNL     1     -10.012  15.333  67.258  1.00  0.00    -0.226 C  
HETATM    8  C   UNL     1      -9.651  13.877  67.239  1.00  0.00    -0.243 C  
HETATM    9  C   UNL     1     -11.823  14.731  69.086  1.00  0.00    -0.340 C  
HETATM   10  C   UNL     1     -12.413  12.811  71.139  1.00  0.00    -0.335 C  
HETATM   11  H   UNL     1      -7.733  16.266  65.564  1.00  0.00     0.000 HD 
HETATM   12  C   UNL     1     -10.362  12.977  67.948  1.00  0.00    -0.233 C  
HETATM   13  C   UNL     1     -12.635  15.124  70.348  1.00  0.00    -0.405 C  
HETATM   14  C   UNL     1     -11.331  13.302  69.013  1.00  0.00    -0.334 C  
HETATM   15  C   UNL     1     -11.690  12.399  69.948  1.00  0.00    -0.339 C  
HETATM   16  C   UNL     1     -11.353  10.944  69.772  1.00  0.00    -0.374 C  
HETATM   17  C   UNL     1     -11.789   9.993  70.866  1.00  0.00    -0.459 C  
HETATM   18  C   UNL     1     -12.953  10.490  71.673  1.00  0.00    -0.476 C  
HETATM   19  C   UNL     1     -13.045  11.935  71.933  1.00  0.00    -0.474 C  
HETATM   20  O   UNL     1     -13.767   9.719  72.185  1.00  0.00    -0.385 OA 
ENDROOT
BRANCH   4  21
HETATM   21  C   UNL     1      -9.110  18.101  67.373  1.00  0.00    -0.253 C  
HETATM   22  C   UNL     1      -9.229  19.380  67.593  1.00  0.00    -0.375 C  
ENDBRANCH   4  21
BRANCH   7  23
HETATM   23  C   UNL     1     -10.931  15.332  65.799  1.00  0.00    -0.340 C  
HETATM   24  C   UNL     1     -10.839  14.199  64.775  1.00  0.00    -0.426 C  
ENDBRANCH   7  23
TORSDOF 2
ENDMDL
MODEL        2
REMARK 921   NORMALIZED FREE ENERGY PREDICTED BY IDOCK:   -6.91 KCAL/MOL
REMARK 922        TOTAL FREE ENERGY PREDICTED BY IDOCK:   -6.49 KCAL/MOL
REMARK 923 INTER-LIGAND FREE ENERGY PREDICTED BY IDOCK:   -7.79 KCAL/MOL
REMARK 924 INTRA-LIGAND FREE ENERGY PREDICTED BY IDOCK:    1.29 KCAL/MOL
REMARK 927      BINDING AFFINITY PREDICTED BY RF-SCORE:    0.00 PKD
ROOT
HETATM    1  C   UNL     1     -10.876  14.918  69.246  1.00  0.00    -0.272 C  
HETATM    2  C   UNL     1     -11.150  16.385  69.438  1.00  0.00    -0.300 C  
HETATM    3  C   UNL     1     -10.980  16.664  67.971  1.00  0.00    -0.311 C  
HETATM    4  C   UNL     1      -9.189  16.019  67.673  1.00  0.00    -0.205 C  
HETATM    5  C   UNL     1     -12.702  13.512  71.902  1.00  0.00    -0.299 C  
HETATM    6  O   UNL     1      -8.779  16.048  66.301  1.00  0.00    -0.298 OA 
HETATM    7  C   UNL     1     -10.228  14.735  67.738  1.00  0.00    -0.232 C  
HETATM    8  C   UNL     1      -9.860  13.282  67.686  1.00  0.00    -0.230 C  
HETATM    9  C   UNL     1     -12.098  14.069  69.482  1.00  0.00    -0.397 C  
HETATM   10  C   UNL     1     -12.748  12.082  71.452  1.00  0.00    -0.380 C  
HETATM   11  H   UNL     1      -7.896  15.730  66.154  1.00  0.00     0.000 HD 
HETATM   12  C   UNL     1     -10.590  12.357  68.341  1.00  0.00    -0.251 C  
HETATM   13  C   UNL     1     -12.954  14.418  70.728  1.00  0.00    -0.388 C  
HETATM   14  C   UNL     1     -11.597  12.645  69.381  1.00  0.00    -0.369 C  
HETATM   15  C   UNL     1     -11.983  11.711  70.274  1.00  0.00    -0.445 C  
HETATM   16  C   UNL     1     -11.633  10.264  70.065  1.00  0.00    -0.349 C  
HETATM   17  C   UNL     1     -12.102   9.277  71.113  1.00  0.00    -0.389 C  
HETATM   18  C   UNL     1     -13.296   9.743  71.894  1.00  0.00    -0.436 C  
HETATM   19  C   UNL     1     -13.403  11.179  72.196  1.00  0.00    -0.270 C  
HETATM   20  O   UNL     1     -14.123   8.954  72.353  1.00  0.00    -0.459 OA 
ENDROOT
BRANCH   4  21
HETATM   21  C   UNL     1      -9.343  17.501  67.972  1.00  0.00    -0.272 C  
HETATM   22  C   UNL     1      -9.475  18.772  68.228  1.00  0.00    -0.389 C  
ENDBRANCH   4  21
BRANCH   7  23
HETATM   23  C   UNL     1     -11.096  14.777  66.249  1.00  0.00    -0.341 C  
HETATM   24  C   UNL     1     -12.402  14.007  66.041  1.00  0.00    -0.504 C  
ENDBRANCH   7  23
TORSDOF 2
ENDMDL
MODEL        3
REMARK 921   NORMALIZED FREE ENERGY PREDICTED BY IDOCK:   -6.85 KCAL/MOL
REMARK 922        TOTAL FREE ENERGY PREDICTED BY IDOCK:   -6.43 KCAL/MOL
REMARK 923 INTER-LIGAND FREE ENERGY PREDICTED BY IDOCK:   -7.66 KCAL/MOL
REMARK 924 INTRA-LIGAND FREE ENERGY PREDICTED BY IDOCK:    1.24 KCAL/MOL
REMARK 927      BINDING AFFINITY PREDICTED BY RF-SCORE:    0.00 PKD
ROOT
HETATM    1  C   UNL     1     -10.648  12.609  67.508  1.00  0.00    -0.236 C  
HETATM    2  C   UNL     1     -11.044  13.862  68.243  1.00  0.00    -0.280 C  
HETATM    3  C   UNL     1     -11.681  14.445  67.013  1.00  0.00    -0.420 C  
HETATM    4  C   UNL     1     -10.196  14.441  65.786  1.00  0.00    -0.337 C  
HETATM    5  C   UNL     1     -10.624  10.247  70.114  1.00  0.00    -0.303 C  
HETATM    6  O   UNL     1     -10.537  14.848  64.455  1.00  0.00    -0.588 OA 
HETATM    7  C   UNL     1     -10.818  12.915  65.894  1.00  0.00    -0.294 C  
HETATM    8  C   UNL     1     -10.275  11.678  65.242  1.00  0.00    -0.316 C  
HETATM    9  C   UNL     1     -11.417  11.401  67.976  1.00  0.00    -0.377 C  
HETATM   10  C   UNL     1     -10.635   8.981  69.312  1.00  0.00    -0.226 C  
HETATM   11  H   UNL     1      -9.805  14.846  63.850  1.00  0.00     0.000 HD 
HETATM   12  C   UNL     1     -10.404  10.470  65.827  1.00  0.00    -0.270 C  
HETATM   13  C   UNL     1     -11.584  11.236  69.509  1.00  0.00    -0.398 C  
HETATM   14  C   UNL     1     -10.790  10.240  67.233  1.00  0.00    -0.312 C  
HETATM   15  C   UNL     1     -10.507   9.085  67.868  1.00  0.00    -0.291 C  
HETATM   16  C   UNL     1     -10.059   7.878  67.093  1.00  0.00    -0.328 C  
HETATM   17  C   UNL     1      -9.760   6.619  67.878  1.00  0.00    -0.130 C  
HETATM   18  C   UNL     1     -10.465   6.547  69.201  1.00  0.00    -0.221 C  
HETATM   19  C   UNL     1     -10.660   7.800  69.946  1.00  0.00    -0.239 C  
HETATM   20  O   UNL     1     -10.798   5.473  69.704  1.00  0.00    -0.328 OA 
ENDROOT
BRANCH   4  21
HETATM   21  C   UNL     1     -10.440  15.725  66.563  1.00  0.00    -0.304 C  
HETATM   22  C   UNL     1     -10.650  16.825  67.229  1.00  0.00    -0.275 C  
ENDBRANCH   4  21
BRANCH   7  23
HETATM   23  C   UNL     1     -12.304  12.966  65.023  1.00  0.00    -0.541 C  
HETATM   24  C   UNL     1     -12.471  12.312  63.649  1.00  0.00    -0.647 C  
ENDBRANCH   7  23
TORSDOF 2
ENDMDL
MODEL        4
REMARK 921   NORMALIZED FREE ENERGY PREDICTED BY IDOCK:   -6.60 KCAL/MOL
REMARK 922        TOTAL FREE ENERGY PREDICTED BY IDOCK:   -6.15 KCAL/MOL
REMARK 923 INTER-LIGAND FREE ENERGY PREDICTED BY IDOCK:   -7.37 KCAL/MOL
REMARK 924 INTRA-LIGAND FREE ENERGY PREDICTED BY IDOCK:    1.23 KCAL/MOL
REMARK 927      BINDING AFFINITY PREDICTED BY RF-SCORE:    0.00 PKD
ROOT
HETATM    1  C   UNL     1     -10.555  12.931  67.397  1.00  0.00    -0.242 C  
HETATM    2  C   UNL     1     -10.974  14.148  68.177  1.00  0.00    -0.264 C  
HETATM    3  C   UNL     1     -11.550  14.801  66.951  1.00  0.00    -0.337 C  
HETATM    4  C   UNL     1     -10.009  14.844  65.794  1.00  0.00    -0.347 C  
HETATM    5  C   UNL     1     -10.669  10.439  69.876  1.00  0.00    -0.331 C  
HETATM    6  O   UNL     1     -10.286  15.321  64.471  1.00  0.00    -0.463 OA 
HETATM    7  C   UNL     1     -10.648  13.320  65.795  1.00  0.00    -0.291 C  
HETATM    8  C   UNL     1     -10.085  12.113  65.105  1.00  0.00    -0.288 C  
HETATM    9  C   UNL     1     -11.354  11.708  67.766  1.00  0.00    -0.356 C  
HETATM   10  C   UNL     1     -10.653   9.215  69.010  1.00  0.00    -0.219 C  
HETATM   11  H   UNL     1      -9.527  15.343  63.901  1.00  0.00     0.000 HD 
HETATM   12  C   UNL     1     -10.251  10.878  65.621  1.00  0.00    -0.323 C  
HETATM   13  C   UNL     1     -11.593  11.467  69.280  1.00  0.00    -0.388 C  
HETATM   14  C   UNL     1     -10.703  10.581  66.994  1.00  0.00    -0.310 C  
HETATM   15  C   UNL     1     -10.459   9.392  67.581  1.00  0.00    -0.328 C  
HETATM   16  C   UNL     1      -9.985   8.221  66.766  1.00  0.00    -0.355 C  
HETATM   17  C   UNL     1      -9.733   6.921  67.498  1.00  0.00    -0.162 C  
HETATM   18  C   UNL     1     -10.499   6.789  68.782  1.00  0.00    -0.208 C  
HETATM   19  C   UNL     1     -10.717   8.005  69.582  1.00  0.00    -0.207 C  
HETATM   20  O   UNL     1     -10.863   5.694  69.213  1.00  0.00    -0.303 OA 
ENDROOT
BRANCH   4  21
HETATM   21  C   UNL     1     -10.279  16.089  66.624  1.00  0.00    -0.295 C  
HETATM   22  C   UNL     1     -10.509  17.155  67.337  1.00  0.00    -0.334 C  
ENDBRANCH   4  21
BRANCH   7  23
HETATM   23  C   UNL     1     -12.093  13.432  64.861  1.00  0.00    -0.430 C  
HETATM   24  C   UNL     1     -12.287  12.652  63.558  1.00  0.00    -0.591 C  
ENDBRANCH   7  23
TORSDOF 2
ENDMDL
MODEL        5
REMARK 921   NORMALIZED FREE ENERGY PREDICTED BY IDOCK:   -6.51 KCAL/MOL
REMARK 922        TOTAL FREE ENERGY PREDICTED BY IDOCK:   -6.05 KCAL/MOL
REMARK 923 INTER-LIGAND FREE ENERGY PREDICTED BY IDOCK:   -7.28 KCAL/MOL
REMARK 924 INTRA-LIGAND FREE ENERGY PREDICTED BY IDOCK:    1.23 KCAL/MOL
REMARK 927      BINDING AFFINITY PREDICTED BY RF-SCORE:    0.00 PKD
ROOT
HETATM    1  C   UNL     1      -9.950   9.491  68.944  1.00  0.00    -0.187 C  
HETATM    2  C   UNL     1      -9.228   8.172  68.889  1.00  0.00    -0.147 C  
HETATM    3  C   UNL     1      -9.992   7.644  70.072  1.00  0.00    -0.190 C  
HETATM    4  C   UNL     1      -9.558   8.959  71.412  1.00  0.00    -0.289 C  
HETATM    5  C   UNL     1      -9.837  10.491  65.574  1.00  0.00    -0.324 C  
HETATM    6  O   UNL     1     -10.253   8.780  72.652  1.00  0.00    -0.188 OA 
HETATM    7  C   UNL     1     -10.717   9.569  70.405  1.00  0.00    -0.341 C  
HETATM    8  C   UNL     1     -11.286  10.956  70.432  1.00  0.00    -0.289 C  
HETATM    9  C   UNL     1     -10.873   9.691  67.770  1.00  0.00    -0.278 C  
HETATM   10  C   UNL     1     -10.886  11.562  65.589  1.00  0.00    -0.310 C  
HETATM   11  H   UNL     1     -10.039   9.428  73.313  1.00  0.00     0.000 HD 
HETATM   12  C   UNL     1     -11.700  11.559  69.298  1.00  0.00    -0.397 C  
HETATM   13  C   UNL     1     -10.312   9.308  66.375  1.00  0.00    -0.238 C  
HETATM   14  C   UNL     1     -11.389  11.105  67.928  1.00  0.00    -0.378 C  
HETATM   15  C   UNL     1     -11.461  11.938  66.870  1.00  0.00    -0.390 C  
HETATM   16  C   UNL     1     -12.144  13.271  66.993  1.00  0.00    -0.375 C  
HETATM   17  C   UNL     1     -12.182  14.149  65.761  1.00  0.00    -0.458 C  
HETATM   18  C   UNL     1     -12.058  13.390  64.472  1.00  0.00    -0.409 C  
HETATM   19  C   UNL     1     -11.188  12.203  64.452  1.00  0.00    -0.400 C  
HETATM   20  O   UNL     1     -12.587  13.783  63.431  1.00  0.00    -0.842 OA 
ENDROOT
BRANCH   4  21
HETATM   21  C   UNL     1      -8.692   7.710  71.371  1.00  0.00    -0.132 C  
HETATM   22  C   UNL     1      -7.950   6.640  71.334  1.00  0.00    -0.107 C  
ENDBRANCH   4  21
BRANCH   7  23
HETATM   23  C   UNL     1     -12.170   8.746  70.833  1.00  0.00    -0.148 C  
HETATM   24  C   UNL     1     -13.319   9.442  71.566  1.00  0.00    -0.458 C  
ENDBRANCH   7  23
TORSDOF 2
ENDMDL
MODEL        6
REMARK 921   NORMALIZED FREE ENERGY PREDICTED BY IDOCK:   -6.47 KCAL/MOL
REMARK 922        TOTAL FREE ENERGY PREDICTED BY IDOCK:   -6.00 KCAL/MOL
REMARK 923 INTER-LIGAND FREE ENERGY PREDICTED BY IDOCK:   -7.24 KCAL/MOL
REMARK 924 INTRA-LIGAND FREE ENERGY PREDICTED BY IDOCK:    1.23 KCAL/MOL
REMARK 927      BINDING AFFINITY PREDICTED BY RF-SCORE:    0.00 PKD
ROOT
HETATM    1  C   UNL     1     -10.469   8.820  69.975  1.00  0.00    -0.222 C  
HETATM    2  C   UNL     1      -9.842   7.459  69.830  1.00  0.00    -0.171 C  
HETATM    3  C   UNL     1     -10.834   6.842  70.775  1.00  0.00    -0.291 C  
HETATM    4  C   UNL     1     -10.550   7.902  72.359  1.00  0.00    -0.298 C  
HETATM    5  C   UNL     1      -9.703  10.279  66.869  1.00  0.00    -0.229 C  
HETATM    6  O   UNL     1     -11.462   7.613  73.426  1.00  0.00    -0.643 OA 
HETATM    7  C   UNL     1     -11.471   8.758  71.287  1.00  0.00    -0.355 C  
HETATM    8  C   UNL     1     -11.939  10.175  71.440  1.00  0.00    -0.447 C  
HETATM    9  C   UNL     1     -11.157   9.274  68.714  1.00  0.00     0.054 C  
HETATM   10  C   UNL     1     -10.662  11.432  66.884  1.00  0.00    -0.308 C  
HETATM   11  H   UNL     1     -11.321   8.136  74.207  1.00  0.00     0.000 HD 
HETATM   12  C   UNL     1     -12.106  10.971  70.365  1.00  0.00    -0.463 C  
HETATM   13  C   UNL     1     -10.390   9.044  67.385  1.00  0.00    -0.335 C  
HETATM   14  C   UNL     1     -11.594  10.692  69.009  1.00  0.00    -0.332 C  
HETATM   15  C   UNL     1     -11.423  11.672  68.098  1.00  0.00    -0.382 C  
HETATM   16  C   UNL     1     -12.023  13.033  68.319  1.00  0.00    -0.306 C  
HETATM   17  C   UNL     1     -11.785  14.078  67.251  1.00  0.00    -0.420 C  
HETATM   18  C   UNL     1     -11.491  13.505  65.895  1.00  0.00    -0.320 C  
HETATM   19  C   UNL     1     -10.716  12.256  65.829  1.00  0.00    -0.298 C  
HETATM   20  O   UNL     1     -11.803  14.093  64.858  1.00  0.00    -0.362 OA 
ENDROOT
BRANCH   4  21
HETATM   21  C   UNL     1      -9.779   6.596  72.261  1.00  0.00    -0.155 C  
HETATM   22  C   UNL     1      -9.117   5.476  72.177  1.00  0.00    -0.152 C  
ENDBRANCH   4  21
BRANCH   7  23
HETATM   23  C   UNL     1     -13.030   8.024  71.339  1.00  0.00    -0.277 C  
HETATM   24  C   UNL     1     -14.229   8.696  72.013  1.00  0.00    -0.524 C  
ENDBRANCH   7  23
TORSDOF 2
ENDMDL
MODEL        7
REMARK 921   NORMALIZED FREE ENERGY PREDICTED BY IDOCK:   -6.41 KCAL/MOL
REMARK 922        TOTAL FREE ENERGY PREDICTED BY IDOCK:   -5.93 KCAL/MOL
REMARK 923 INTER-LIGAND FREE ENERGY PREDICTED BY IDOCK:   -7.16 KCAL/MOL
REMARK 924 INTRA-LIGAND FREE ENERGY PREDICTED BY IDOCK:    1.22 KCAL/MOL
REMARK 927      BINDING AFFINITY PREDICTED BY RF-SCORE:    0.00 PKD
ROOT
HETATM    1  C   UNL     1     -11.156  10.225  69.173  1.00  0.00    -0.283 C  
HETATM    2  C   UNL     1     -11.169  10.330  70.674  1.00  0.00    -0.406 C  
HETATM    3  C   UNL     1     -10.064   9.319  70.808  1.00  0.00    -0.358 C  
HETATM    4  C   UNL     1     -10.840   7.800  69.912  1.00  0.00    -0.226 C  
HETATM    5  C   UNL     1     -12.278  13.425  68.239  1.00  0.00    -0.120 C  
HETATM    6  O   UNL     1      -9.949   6.686  69.775  1.00  0.00    -0.170 OA 
HETATM    7  C   UNL     1     -10.288   8.875  68.785  1.00  0.00    -0.232 C  
HETATM    8  C   UNL     1     -10.443   8.771  67.296  1.00  0.00    -0.353 C  
HETATM    9  C   UNL     1     -10.643  11.479  68.513  1.00  0.00    -0.236 C  
HETATM   10  C   UNL     1     -11.871  13.428  66.796  1.00  0.00    -0.452 C  
HETATM   11  H   UNL     1     -10.331   5.937  69.333  1.00  0.00     0.000 HD 
HETATM   12  C   UNL     1     -10.555   9.876  66.531  1.00  0.00    -0.156 C  
HETATM   13  C   UNL     1     -11.178  12.824  69.072  1.00  0.00    -0.317 C  
HETATM   14  C   UNL     1     -10.835  11.236  67.032  1.00  0.00    -0.332 C  
HETATM   15  C   UNL     1     -11.339  12.198  66.233  1.00  0.00    -0.411 C  
HETATM   16  C   UNL     1     -11.356  12.019  64.741  1.00  0.00    -0.369 C  
HETATM   17  C   UNL     1     -11.939  13.144  63.912  1.00  0.00    -0.550 C  
HETATM   18  C   UNL     1     -11.901  14.481  64.593  1.00  0.00    -0.453 C  
HETATM   19  C   UNL     1     -12.099  14.518  66.050  1.00  0.00    -0.298 C  
HETATM   20  O   UNL     1     -11.798  15.532  63.958  1.00  0.00    -0.467 OA 
ENDROOT
BRANCH   4  21
HETATM   21  C   UNL     1     -11.008   7.865  71.421  1.00  0.00    -0.264 C  
HETATM   22  C   UNL     1     -11.154   7.922  72.715  1.00  0.00    -0.462 C  
ENDBRANCH   4  21
BRANCH   7  23
HETATM   23  C   UNL     1      -8.571   8.728  68.819  1.00  0.00    -0.137 C  
HETATM   24  C   UNL     1      -7.772   8.187  67.631  1.00  0.00    -0.102 C  
ENDBRANCH   7  23
TORSDOF 2
ENDMDL
MODEL        8
REMARK 921   NORMALIZED FREE ENERGY PREDICTED BY IDOCK:   -6.36 KCAL/MOL
REMARK 922        TOTAL FREE ENERGY PREDICTED BY IDOCK:   -5.88 KCAL/MOL
REMARK 923 INTER-LIGAND FREE ENERGY PREDICTED BY IDOCK:   -7.10 KCAL/MOL
REMARK 924 INTRA-LIGAND FREE ENERGY PREDICTED BY IDOCK:    1.22 KCAL/MOL
REMARK 927      BINDING AFFINITY PREDICTED BY RF-SCORE:    0.00 PKD
ROOT
HETATM    1  C   UNL     1     -11.405   9.771  68.931  1.00  0.00     0.006 C  
HETATM    2  C   UNL     1     -11.284   8.309  69.266  1.00  0.00     0.277 C  
HETATM    3  C   UNL     1     -10.025   8.173  68.456  1.00  0.00    -0.204 C  
HETATM    4  C   UNL     1     -10.634   8.747  66.721  1.00  0.00    -0.150 C  
HETATM    5  C   UNL     1     -13.111  10.996  71.753  1.00  0.00    -0.554 C  
HETATM    6  O   UNL     1      -9.596   8.836  65.738  1.00  0.00    -0.395 OA 
HETATM    7  C   UNL     1     -10.377  10.071  67.675  1.00  0.00    -0.272 C  
HETATM    8  C   UNL     1     -10.662  11.501  67.319  1.00  0.00    -0.286 C  
HETATM    9  C   UNL     1     -11.168  10.656  70.127  1.00  0.00    -0.378 C  
HETATM   10  C   UNL     1     -12.856  12.464  71.589  1.00  0.00    -0.375 C  
HETATM   11  H   UNL     1      -9.896   9.119  64.882  1.00  0.00     0.000 HD 
HETATM   12  C   UNL     1     -11.024  12.392  68.263  1.00  0.00    -0.269 C  
HETATM   13  C   UNL     1     -11.851  10.229  71.453  1.00  0.00    -0.371 C  
HETATM   14  C   UNL     1     -11.466  12.054  69.631  1.00  0.00    -0.322 C  
HETATM   15  C   UNL     1     -12.194  12.912  70.375  1.00  0.00    -0.381 C  
HETATM   16  C   UNL     1     -12.331  14.352  69.965  1.00  0.00    -0.391 C  
HETATM   17  C   UNL     1     -13.166  15.250  70.852  1.00  0.00    -0.506 C  
HETATM   18  C   UNL     1     -13.273  14.772  72.271  1.00  0.00    -0.374 C  
HETATM   19  C   UNL     1     -13.328  13.320  72.506  1.00  0.00    -0.569 C  
HETATM   20  O   UNL     1     -13.403  15.554  73.213  1.00  0.00    -0.498 OA 
ENDROOT
BRANCH   4  21
HETATM   21  C   UNL     1     -10.660   7.252  66.996  1.00  0.00    -0.415 C  
HETATM   22  C   UNL     1     -10.682   5.971  67.232  1.00  0.00    -0.400 C  
ENDBRANCH   4  21
BRANCH   7  23
HETATM   23  C   UNL     1      -8.663  10.229  67.782  1.00  0.00    -0.121 C  
HETATM   24  C   UNL     1      -7.908  11.403  67.155  1.00  0.00    -0.156 C  
ENDBRANCH   7  23
TORSDOF 2
ENDMDL
MODEL        9
REMARK 921   NORMALIZED FREE ENERGY PREDICTED BY IDOCK:   -6.34 KCAL/MOL
REMARK 922        TOTAL FREE ENERGY PREDICTED BY IDOCK:   -5.86 KCAL/MOL
REMARK 923 INTER-LIGAND FREE ENERGY PREDICTED BY IDOCK:   -7.08 KCAL/MOL
REMARK 924 INTRA-LIGAND FREE ENERGY PREDICTED BY IDOCK:    1.23 KCAL/MOL
REMARK 927      BINDING AFFINITY PREDICTED BY RF-SCORE:    0.00 PKD
ROOT
HETATM    1  C   UNL     1     -11.144  10.800  67.130  1.00  0.00    -0.297 C  
HETATM    2  C   UNL     1     -10.651  10.718  65.710  1.00  0.00    -0.204 C  
HETATM    3  C   UNL     1     -10.395  12.198  65.657  1.00  0.00    -0.289 C  
HETATM    4  C   UNL     1     -12.146  12.893  66.062  1.00  0.00    -0.422 C  
HETATM    5  C   UNL     1     -10.335   7.597  68.337  1.00  0.00    -0.228 C  
HETATM    6  O   UNL     1     -12.191  14.319  66.199  1.00  0.00    -0.431 OA 
HETATM    7  C   UNL     1     -11.421  12.394  67.459  1.00  0.00    -0.410 C  
HETATM    8  C   UNL     1     -12.035  12.370  68.828  1.00  0.00    -0.276 C  
HETATM    9  C   UNL     1     -10.203  10.139  68.104  1.00  0.00    -0.200 C  
HETATM   10  C   UNL     1     -10.452   7.842  69.812  1.00  0.00    -0.233 C  
HETATM   11  H   UNL     1     -13.054  14.661  66.398  1.00  0.00     0.000 HD 
HETATM   12  C   UNL     1     -11.680  11.434  69.732  1.00  0.00    -0.418 C  
HETATM   13  C   UNL     1      -9.631   8.758  67.687  1.00  0.00    -0.179 C  
HETATM   14  C   UNL     1     -10.926  10.201  69.432  1.00  0.00    -0.285 C  
HETATM   15  C   UNL     1     -10.958   9.131  70.252  1.00  0.00    -0.279 C  
HETATM   16  C   UNL     1     -11.515   9.252  71.644  1.00  0.00    -0.468 C  
HETATM   17  C   UNL     1     -11.517   8.006  72.502  1.00  0.00    -0.471 C  
HETATM   18  C   UNL     1     -10.487   6.990  72.100  1.00  0.00    -0.209 C  
HETATM   19  C   UNL     1     -10.186   6.845  70.667  1.00  0.00    -0.212 C  
HETATM   20  O   UNL     1      -9.966   6.232  72.919  1.00  0.00    -0.167 OA 
ENDROOT
BRANCH   4  21
HETATM   21  C   UNL     1     -11.791  12.744  64.591  1.00  0.00    -0.428 C  
HETATM   22  C   UNL     1     -11.486  12.617  63.331  1.00  0.00    -0.499 C  
ENDBRANCH   4  21
BRANCH   7  23
HETATM   23  C   UNL     1     -10.220  13.583  67.798  1.00  0.00    -0.242 C  
HETATM   24  C   UNL     1     -10.356  14.578  68.954  1.00  0.00    -0.237 C  
ENDBRANCH   7  23
TORSDOF 2
ENDMDL
MODEL       10
REMARK 921   NORMALIZED FREE ENERGY PREDICTED BY IDOCK:   -6.25 KCAL/MOL
REMARK 922        TOTAL FREE ENERGY PREDICTED BY IDOCK:   -5.76 KCAL/MOL
REMARK 923 INTER-LIGAND FREE ENERGY PREDICTED BY IDOCK:   -7.07 KCAL/MOL
REMARK 924 INTRA-LIGAND FREE ENERGY PREDICTED BY IDOCK:    1.31 KCAL/MOL
REMARK 927      BINDING AFFINITY PREDICTED BY RF-SCORE:    0.00 PKD
ROOT
HETATM    1  C   UNL     1      -9.808  15.370  66.162  1.00  0.00    -0.337 C  
HETATM    2  C   UNL     1     -10.871  15.492  65.104  1.00  0.00    -0.452 C  
HETATM    3  C   UNL     1     -11.621  14.307  65.646  1.00  0.00    -0.346 C  
HETATM    4  C   UNL     1     -10.272  12.935  65.546  1.00  0.00    -0.287 C  
HETATM    5  C   UNL     1      -8.730  18.705  66.457  1.00  0.00    -0.312 C  
HETATM    6  O   UNL     1     -10.671  11.683  66.117  1.00  0.00    -0.260 OA 
HETATM    7  C   UNL     1      -9.985  13.887  66.865  1.00  0.00    -0.264 C  
HETATM    8  C   UNL     1      -8.813  13.795  67.797  1.00  0.00    -0.188 C  
HETATM    9  C   UNL     1      -9.843  16.510  67.146  1.00  0.00    -0.255 C  
HETATM   10  C   UNL     1      -7.995  18.622  67.762  1.00  0.00    -0.267 C  
HETATM   11  H   UNL     1     -10.006  11.006  66.068  1.00  0.00     0.000 HD 
HETATM   12  C   UNL     1      -8.321  14.894  68.404  1.00  0.00    -0.153 C  
HETATM   13  C   UNL     1     -10.018  17.933  66.554  1.00  0.00    -0.357 C  
HETATM   14  C   UNL     1      -8.635  16.288  68.030  1.00  0.00    -0.176 C  
HETATM   15  C   UNL     1      -7.829  17.314  68.370  1.00  0.00    -0.254 C  
HETATM   16  C   UNL     1      -6.743  17.124  69.392  1.00  0.00    -0.199 C  
HETATM   17  C   UNL     1      -5.879  18.324  69.719  1.00  0.00    -0.242 C  
HETATM   18  C   UNL     1      -6.539  19.642  69.436  1.00  0.00    -0.348 C  
HETATM   19  C   UNL     1      -7.435  19.728  68.272  1.00  0.00    -0.346 C  
HETATM   20  O   UNL     1      -6.283  20.652  70.093  1.00  0.00    -0.419 OA 
ENDROOT
BRANCH   4  21
HETATM   21  C   UNL     1     -11.228  13.045  64.368  1.00  0.00    -0.393 C  
HETATM   22  C   UNL     1     -12.048  13.139  63.360  1.00  0.00    -0.558 C  
ENDBRANCH   4  21
BRANCH   7  23
HETATM   23  C   UNL     1     -11.192  13.447  68.015  1.00  0.00    -0.298 C  
HETATM   24  C   UNL     1     -11.676  14.409  69.102  1.00  0.00    -0.354 C  
ENDBRANCH   7  23
TORSDOF 2
ENDMDL
MODEL       11
REMARK 921   NORMALIZED FREE ENERGY PREDICTED BY IDOCK:   -6.24 KCAL/MOL
REMARK 922        TOTAL FREE ENERGY PREDICTED BY IDOCK:   -5.75 KCAL/MOL
REMARK 923 INTER-LIGAND FREE ENERGY PREDICTED BY IDOCK:   -6.97 KCAL/MOL
REMARK 924 INTRA-LIGAND FREE ENERGY PREDICTED BY IDOCK:    1.22 KCAL/MOL
REMARK 927      BINDING AFFINITY PREDICTED BY RF-SCORE:    0.00 PKD
ROOT
HETATM    1  C   UNL     1     -10.887  10.758  67.211  1.00  0.00    -0.344 C  
HETATM    2  C   UNL     1     -10.204  10.633  65.876  1.00  0.00    -0.314 C  
HETATM    3  C   UNL     1      -9.940  12.112  65.812  1.00  0.00    -0.271 C  
HETATM    4  C   UNL     1     -11.729  12.815  65.951  1.00  0.00    -0.414 C  
HETATM    5  C   UNL     1     -10.258   7.596  68.617  1.00  0.00    -0.214 C  
HETATM    6  O   UNL     1     -11.788  14.244  66.037  1.00  0.00    -0.369 OA 
HETATM    7  C   UNL     1     -11.203  12.361  67.450  1.00  0.00    -0.351 C  
HETATM    8  C   UNL     1     -11.999  12.378  68.722  1.00  0.00    -0.276 C  
HETATM    9  C   UNL     1     -10.090  10.129  68.325  1.00  0.00    -0.179 C  
HETATM   10  C   UNL     1     -10.577   7.886  70.053  1.00  0.00    -0.242 C  
HETATM   11  H   UNL     1     -12.670  14.591  66.106  1.00  0.00     0.000 HD 
HETATM   12  C   UNL     1     -11.773  11.471  69.694  1.00  0.00    -0.419 C  
HETATM   13  C   UNL     1      -9.470   8.738  68.034  1.00  0.00    -0.158 C  
HETATM   14  C   UNL     1     -10.988  10.231  69.539  1.00  0.00    -0.300 C  
HETATM   15  C   UNL     1     -11.136   9.187  70.380  1.00  0.00    -0.293 C  
HETATM   16  C   UNL     1     -11.877   9.350  71.677  1.00  0.00    -0.464 C  
HETATM   17  C   UNL     1     -12.000   8.131  72.565  1.00  0.00    -0.410 C  
HETATM   18  C   UNL     1     -10.928   7.105  72.340  1.00  0.00    -0.251 C  
HETATM   19  C   UNL     1     -10.433   6.917  70.967  1.00  0.00    -0.235 C  
HETATM   20  O   UNL     1     -10.526   6.374  73.246  1.00  0.00    -0.220 OA 
ENDROOT
BRANCH   4  21
HETATM   21  C   UNL     1     -11.175  12.622  64.549  1.00  0.00    -0.375 C  
HETATM   22  C   UNL     1     -10.701  12.455  63.347  1.00  0.00    -0.398 C  
ENDBRANCH   4  21
BRANCH   7  23
HETATM   23  C   UNL     1     -10.057  13.563  67.914  1.00  0.00    -0.248 C  
HETATM   24  C   UNL     1     -10.319  14.546  69.057  1.00  0.00    -0.227 C  
ENDBRANCH   7  23
TORSDOF 2
ENDMDL
MODEL       12
REMARK 921   NORMALIZED FREE ENERGY PREDICTED BY IDOCK:   -6.24 KCAL/MOL
REMARK 922        TOTAL FREE ENERGY PREDICTED BY IDOCK:   -5.75 KCAL/MOL
REMARK 923 INTER-LIGAND FREE ENERGY PREDICTED BY IDOCK:   -7.00 KCAL/MOL
REMARK 924 INTRA-LIGAND FREE ENERGY PREDICTED BY IDOCK:    1.26 KCAL/MOL
REMARK 927      BINDING AFFINITY PREDICTED BY RF-SCORE:    0.00 PKD
ROOT
HETATM    1  C   UNL     1     -10.388   7.879  69.735  1.00  0.00    -0.219 C  
HETATM    2  C   UNL     1     -10.250   6.382  69.792  1.00  0.00    -0.226 C  
HETATM    3  C   UNL     1     -11.277   6.275  70.885  1.00  0.00    -0.386 C  
HETATM    4  C   UNL     1     -10.494   7.397  72.242  1.00  0.00    -0.223 C  
HETATM    5  C   UNL     1      -9.544   8.532  66.384  1.00  0.00    -0.314 C  
HETATM    6  O   UNL     1     -11.326   7.588  73.393  1.00  0.00    -0.611 OA 
HETATM    7  C   UNL     1     -11.205   8.347  71.092  1.00  0.00    -0.307 C  
HETATM    8  C   UNL     1     -11.175   9.845  71.024  1.00  0.00    -0.435 C  
HETATM    9  C   UNL     1     -11.030   8.349  68.455  1.00  0.00     0.157 C  
HETATM   10  C   UNL     1     -10.075   9.928  66.253  1.00  0.00    -0.311 C  
HETATM   11  H   UNL     1     -10.940   8.140  74.062  1.00  0.00     0.000 HD 
HETATM   12  C   UNL     1     -11.196  10.487  69.838  1.00  0.00    -0.374 C  
HETATM   13  C   UNL     1     -10.530   7.686  67.145  1.00  0.00    -0.412 C  
HETATM   14  C   UNL     1     -10.954   9.859  68.524  1.00  0.00    -0.226 C  
HETATM   15  C   UNL     1     -10.580  10.582  67.449  1.00  0.00    -0.313 C  
HETATM   16  C   UNL     1     -10.684  12.082  67.464  1.00  0.00    -0.262 C  
HETATM   17  C   UNL     1     -10.243  12.821  66.219  1.00  0.00    -0.264 C  
HETATM   18  C   UNL     1     -10.301  11.992  64.968  1.00  0.00    -0.281 C  
HETATM   19  C   UNL     1      -9.979  10.561  65.076  1.00  0.00    -0.388 C  
HETATM   20  O   UNL     1     -10.521  12.494  63.865  1.00  0.00    -0.398 OA 
ENDROOT
BRANCH   4  21
HETATM   21  C   UNL     1     -10.198   5.909  72.328  1.00  0.00    -0.222 C  
HETATM   22  C   UNL     1      -9.945   4.633  72.403  1.00  0.00    -0.228 C  
ENDBRANCH   4  21
BRANCH   7  23
HETATM   23  C   UNL     1     -12.901   8.192  71.359  1.00  0.00    -0.270 C  
HETATM   24  C   UNL     1     -13.725   9.284  72.046  1.00  0.00    -0.493 C  
ENDBRANCH   7  23
TORSDOF 2
ENDMDL
MODEL       13
REMARK 921   NORMALIZED FREE ENERGY PREDICTED BY IDOCK:   -6.24 KCAL/MOL
REMARK 922        TOTAL FREE ENERGY PREDICTED BY IDOCK:   -5.74 KCAL/MOL
REMARK 923 INTER-LIGAND FREE ENERGY PREDICTED BY IDOCK:   -7.15 KCAL/MOL
REMARK 924 INTRA-LIGAND FREE ENERGY PREDICTED BY IDOCK:    1.41 KCAL/MOL
REMARK 927      BINDING AFFINITY PREDICTED BY RF-SCORE:    0.00 PKD
ROOT
HETATM    1  C   UNL     1      -8.381  17.678  66.875  1.00  0.00    -0.258 C  
HETATM    2  C   UNL     1      -7.264  17.602  65.869  1.00  0.00    -0.235 C  
HETATM    3  C   UNL     1      -6.549  18.767  66.496  1.00  0.00    -0.218 C  
HETATM    4  C   UNL     1      -7.899  20.138  66.379  1.00  0.00    -0.259 C  
HETATM    5  C   UNL     1      -9.455  14.331  66.982  1.00  0.00    -0.259 C  
HETATM    6  O   UNL     1      -7.537  21.368  67.020  1.00  0.00    -0.799 OA 
HETATM    7  C   UNL     1      -8.249  19.134  67.644  1.00  0.00    -0.316 C  
HETATM    8  C   UNL     1      -9.468  19.185  68.516  1.00  0.00    -0.444 C  
HETATM    9  C   UNL     1      -8.391  16.500  67.815  1.00  0.00    -0.176 C  
HETATM   10  C   UNL     1     -10.256  14.359  68.249  1.00  0.00    -0.241 C  
HETATM   11  H   UNL     1      -8.202  22.044  66.962  1.00  0.00     0.000 HD 
HETATM   12  C   UNL     1      -9.985  18.060  69.053  1.00  0.00    -0.292 C  
HETATM   13  C   UNL     1      -8.177  15.103  67.176  1.00  0.00    -0.251 C  
HETATM   14  C   UNL     1      -9.644  16.684  68.642  1.00  0.00    -0.248 C  
HETATM   15  C   UNL     1     -10.462  15.643  68.899  1.00  0.00    -0.220 C  
HETATM   16  C   UNL     1     -11.600  15.788  69.870  1.00  0.00    -0.355 C  
HETATM   17  C   UNL     1     -12.473  14.574  70.104  1.00  0.00    -0.375 C  
HETATM   18  C   UNL     1     -11.792  13.270  69.805  1.00  0.00    -0.325 C  
HETATM   19  C   UNL     1     -10.837  13.233  68.686  1.00  0.00    -0.285 C  
HETATM   20  O   UNL     1     -12.076  12.233  70.407  1.00  0.00    -0.355 OA 
ENDROOT
BRANCH   4  21
HETATM   21  C   UNL     1      -6.882  20.078  65.250  1.00  0.00    -0.328 C  
HETATM   22  C   UNL     1      -6.011  20.026  64.283  1.00  0.00    -0.315 C  
ENDBRANCH   4  21
BRANCH   7  23
HETATM   23  C   UNL     1      -7.106  19.532  68.871  1.00  0.00    -0.394 C  
HETATM   24  C   UNL     1      -6.380  18.463  69.692  1.00  0.00    -0.199 C  
ENDBRANCH   7  23
TORSDOF 2
ENDMDL
MODEL       14
REMARK 921   NORMALIZED FREE ENERGY PREDICTED BY IDOCK:   -6.24 KCAL/MOL
REMARK 922        TOTAL FREE ENERGY PREDICTED BY IDOCK:   -5.74 KCAL/MOL
REMARK 923 INTER-LIGAND FREE ENERGY PREDICTED BY IDOCK:   -7.08 KCAL/MOL
REMARK 924 INTRA-LIGAND FREE ENERGY PREDICTED BY IDOCK:    1.33 KCAL/MOL
REMARK 927      BINDING AFFINITY PREDICTED BY RF-SCORE:    0.00 PKD
ROOT
HETATM    1  C   UNL     1      -9.541  13.423  68.188  1.00  0.00    -0.222 C  
HETATM    2  C   UNL     1      -8.604  12.248  68.111  1.00  0.00    -0.181 C  
HETATM    3  C   UNL     1      -9.633  11.405  67.411  1.00  0.00    -0.185 C  
HETATM    4  C   UNL     1     -11.076  11.442  68.687  1.00  0.00    -0.236 C  
HETATM    5  C   UNL     1      -7.284  16.120  68.192  1.00  0.00    -0.140 C  
HETATM    6  O   UNL     1     -12.274  10.801  68.232  1.00  0.00    -0.815 OA 
HETATM    7  C   UNL     1     -11.056  12.863  67.844  1.00  0.00    -0.283 C  
HETATM    8  C   UNL     1     -11.936  14.056  68.079  1.00  0.00    -0.386 C  
HETATM    9  C   UNL     1      -9.107  14.564  67.305  1.00  0.00    -0.217 C  
HETATM   10  C   UNL     1      -8.223  17.241  67.860  1.00  0.00    -0.219 C  
HETATM   11  H   UNL     1     -12.985  10.819  68.861  1.00  0.00     0.000 HD 
HETATM   12  C   UNL     1     -11.490  15.305  67.837  1.00  0.00    -0.325 C  
HETATM   13  C   UNL     1      -7.599  14.926  67.331  1.00  0.00    -0.232 C  
HETATM   14  C   UNL     1     -10.078  15.681  67.621  1.00  0.00    -0.248 C  
HETATM   15  C   UNL     1      -9.644  16.945  67.797  1.00  0.00    -0.249 C  
HETATM   16  C   UNL     1     -10.625  18.078  67.926  1.00  0.00    -0.387 C  
HETATM   17  C   UNL     1     -10.059  19.468  68.123  1.00  0.00    -0.537 C  
HETATM   18  C   UNL     1      -8.658  19.631  67.609  1.00  0.00    -0.320 C  
HETATM   19  C   UNL     1      -7.742  18.485  67.731  1.00  0.00    -0.245 C  
HETATM   20  O   UNL     1      -8.243  20.708  67.179  1.00  0.00    -0.319 OA 
ENDROOT
BRANCH   4  21
HETATM   21  C   UNL     1     -10.118  10.265  68.769  1.00  0.00    -0.198 C  
HETATM   22  C   UNL     1      -9.297   9.256  68.841  1.00  0.00    -0.150 C  
ENDBRANCH   4  21
BRANCH   7  23
HETATM   23  C   UNL     1     -11.662  12.472  66.278  1.00  0.00    -0.462 C  
HETATM   24  C   UNL     1     -12.580  13.415  65.496  1.00  0.00    -0.520 C  
ENDBRANCH   7  23
TORSDOF 2
ENDMDL
MODEL       15
REMARK 921   NORMALIZED FREE ENERGY PREDICTED BY IDOCK:   -6.18 KCAL/MOL
REMARK 922        TOTAL FREE ENERGY PREDICTED BY IDOCK:   -5.68 KCAL/MOL
REMARK 923 INTER-LIGAND FREE ENERGY PREDICTED BY IDOCK:   -7.00 KCAL/MOL
REMARK 924 INTRA-LIGAND FREE ENERGY PREDICTED BY IDOCK:    1.33 KCAL/MOL
REMARK 927      BINDING AFFINITY PREDICTED BY RF-SCORE:    0.00 PKD
ROOT
HETATM    1  C   UNL     1     -10.365   8.191  70.586  1.00  0.00    -0.214 C  
HETATM    2  C   UNL     1      -9.629   6.988  70.060  1.00  0.00    -0.164 C  
HETATM    3  C   UNL     1     -10.642   6.045  70.646  1.00  0.00    -0.322 C  
HETATM    4  C   UNL     1     -10.560   6.522  72.511  1.00  0.00    -0.213 C  
HETATM    5  C   UNL     1      -9.473  10.644  68.229  1.00  0.00    -0.161 C  
HETATM    6  O   UNL     1     -11.526   5.851  73.328  1.00  0.00    -0.477 OA 
HETATM    7  C   UNL     1     -11.457   7.647  71.699  1.00  0.00    -0.295 C  
HETATM    8  C   UNL     1     -12.040   8.908  72.267  1.00  0.00    -0.392 C  
HETATM    9  C   UNL     1     -10.986   9.012  69.486  1.00  0.00    -0.118 C  
HETATM   10  C   UNL     1     -10.514  11.680  68.531  1.00  0.00    -0.236 C  
HETATM   11  H   UNL     1     -11.486   6.086  74.248  1.00  0.00     0.000 HD 
HETATM   12  C   UNL     1     -12.183  10.011  71.505  1.00  0.00    -0.496 C  
HETATM   13  C   UNL     1     -10.105   9.278  68.237  1.00  0.00    -0.214 C  
HETATM   14  C   UNL     1     -11.549  10.228  70.190  1.00  0.00    -0.376 C  
HETATM   15  C   UNL     1     -11.382  11.463  69.676  1.00  0.00    -0.347 C  
HETATM   16  C   UNL     1     -12.096  12.642  70.276  1.00  0.00    -0.372 C  
HETATM   17  C   UNL     1     -11.856  13.996  69.643  1.00  0.00    -0.386 C  
HETATM   18  C   UNL     1     -11.417  13.926  68.209  1.00  0.00    -0.311 C  
HETATM   19  C   UNL     1     -10.548  12.809  67.809  1.00  0.00    -0.231 C  
HETATM   20  O   UNL     1     -11.692  14.814  67.400  1.00  0.00    -0.373 OA 
ENDROOT
BRANCH   4  21
HETATM   21  C   UNL     1      -9.688   5.361  72.061  1.00  0.00    -0.198 C  
HETATM   22  C   UNL     1      -8.942   4.365  71.675  1.00  0.00    -0.160 C  
ENDBRANCH   4  21
BRANCH   7  23
HETATM   23  C   UNL     1     -12.956   6.870  71.353  1.00  0.00    -0.339 C  
HETATM   24  C   UNL     1     -14.301   7.591  71.482  1.00  0.00    -0.603 C  
ENDBRANCH   7  23
TORSDOF 2
ENDMDL
MODEL       16
REMARK 921   NORMALIZED FREE ENERGY PREDICTED BY IDOCK:   -6.17 KCAL/MOL
REMARK 922        TOTAL FREE ENERGY PREDICTED BY IDOCK:   -5.67 KCAL/MOL
REMARK 923 INTER-LIGAND FREE ENERGY PREDICTED BY IDOCK:   -6.89 KCAL/MOL
REMARK 924 INTRA-LIGAND FREE ENERGY PREDICTED BY IDOCK:    1.22 KCAL/MOL
REMARK 927      BINDING AFFINITY PREDICTED BY RF-SCORE:    0.00 PKD
ROOT
HETATM    1  C   UNL     1     -10.494  10.458  66.441  1.00  0.00    -0.246 C  
HETATM    2  C   UNL     1      -9.639   9.927  65.322  1.00  0.00    -0.361 C  
HETATM    3  C   UNL     1      -9.237  11.313  64.900  1.00  0.00    -0.130 C  
HETATM    4  C   UNL     1     -10.956  12.108  64.545  1.00  0.00    -0.314 C  
HETATM    5  C   UNL     1     -10.363   7.802  68.742  1.00  0.00    -0.219 C  
HETATM    6  O   UNL     1     -10.898  13.503  64.225  1.00  0.00    -0.467 OA 
HETATM    7  C   UNL     1     -10.696  12.075  66.176  1.00  0.00    -0.312 C  
HETATM    8  C   UNL     1     -11.663  12.490  67.246  1.00  0.00    -0.431 C  
HETATM    9  C   UNL     1      -9.927  10.137  67.800  1.00  0.00    -0.198 C  
HETATM   10  C   UNL     1     -10.859   8.503  69.972  1.00  0.00    -0.225 C  
HETATM   11  H   UNL     1     -11.745  13.895  64.050  1.00  0.00     0.000 HD 
HETATM   12  C   UNL     1     -11.663  11.889  68.453  1.00  0.00    -0.387 C  
HETATM   13  C   UNL     1      -9.399   8.693  68.007  1.00  0.00    -0.147 C  
HETATM   14  C   UNL     1     -10.979  10.621  68.774  1.00  0.00    -0.292 C  
HETATM   15  C   UNL     1     -11.340   9.867  69.833  1.00  0.00    -0.273 C  
HETATM   16  C   UNL     1     -12.244  10.427  70.895  1.00  0.00    -0.484 C  
HETATM   17  C   UNL     1     -12.604   9.518  72.051  1.00  0.00    -0.456 C  
HETATM   18  C   UNL     1     -11.607   8.423  72.295  1.00  0.00    -0.383 C  
HETATM   19  C   UNL     1     -10.937   7.829  71.127  1.00  0.00    -0.259 C  
HETATM   20  O   UNL     1     -11.408   7.962  73.420  1.00  0.00    -0.250 OA 
ENDROOT
BRANCH   4  21
HETATM   21  C   UNL     1     -10.224  11.497  63.360  1.00  0.00    -0.462 C  
HETATM   22  C   UNL     1      -9.597  10.975  62.345  1.00  0.00    -0.108 C  
ENDBRANCH   4  21
BRANCH   7  23
HETATM   23  C   UNL     1      -9.525  13.306  66.475  1.00  0.00    -0.251 C  
HETATM   24  C   UNL     1      -9.858  14.579  67.258  1.00  0.00    -0.236 C  
ENDBRANCH   7  23
TORSDOF 2
ENDMDL
MODEL       17
REMARK 921   NORMALIZED FREE ENERGY PREDICTED BY IDOCK:   -6.13 KCAL/MOL
REMARK 922        TOTAL FREE ENERGY PREDICTED BY IDOCK:   -5.62 KCAL/MOL
REMARK 923 INTER-LIGAND FREE ENERGY PREDICTED BY IDOCK:   -6.95 KCAL/MOL
REMARK 924 INTRA-LIGAND FREE ENERGY PREDICTED BY IDOCK:    1.32 KCAL/MOL
REMARK 927      BINDING AFFINITY PREDICTED BY RF-SCORE:    0.00 PKD
ROOT
HETATM    1  C   UNL     1     -10.810   9.105  70.264  1.00  0.00    -0.282 C  
HETATM    2  C   UNL     1     -10.033   8.481  69.135  1.00  0.00    -0.194 C  
HETATM    3  C   UNL     1     -10.690   7.146  69.350  1.00  0.00    -0.246 C  
HETATM    4  C   UNL     1     -10.228   6.795  71.187  1.00  0.00    -0.193 C  
HETATM    5  C   UNL     1     -10.970  12.463  69.231  1.00  0.00    -0.145 C  
HETATM    6  O   UNL     1     -10.830   5.610  71.723  1.00  0.00    -0.244 OA 
HETATM    7  C   UNL     1     -11.479   7.873  71.136  1.00  0.00    -0.297 C  
HETATM    8  C   UNL     1     -12.109   8.569  72.305  1.00  0.00    -0.455 C  
HETATM    9  C   UNL     1     -11.817  10.115  69.779  1.00  0.00    -0.158 C  
HETATM   10  C   UNL     1     -12.064  12.956  70.130  1.00  0.00    -0.373 C  
HETATM   11  H   UNL     1     -10.602   5.436  72.629  1.00  0.00     0.000 HD 
HETATM   12  C   UNL     1     -12.625   9.809  72.179  1.00  0.00    -0.367 C  
HETATM   13  C   UNL     1     -11.335  11.107  68.688  1.00  0.00    -0.342 C  
HETATM   14  C   UNL     1     -12.387  10.721  71.043  1.00  0.00    -0.509 C  
HETATM   15  C   UNL     1     -12.568  12.053  71.151  1.00  0.00    -0.372 C  
HETATM   16  C   UNL     1     -13.302  12.631  72.329  1.00  0.00    -0.527 C  
HETATM   17  C   UNL     1     -13.463  14.135  72.377  1.00  0.00    -0.616 C  
HETATM   18  C   UNL     1     -13.391  14.797  71.032  1.00  0.00    -0.374 C  
HETATM   19  C   UNL     1     -12.471  14.229  70.034  1.00  0.00    -0.355 C  
HETATM   20  O   UNL     1     -14.007  15.834  70.783  1.00  0.00    -0.302 OA 
ENDROOT
BRANCH   4  21
HETATM   21  C   UNL     1      -9.310   6.211  70.125  1.00  0.00    -0.167 C  
HETATM   22  C   UNL     1      -8.523   5.711  69.215  1.00  0.00    -0.106 C  
ENDBRANCH   4  21
BRANCH   7  23
HETATM   23  C   UNL     1     -12.861   6.945  70.685  1.00  0.00     0.089 C  
HETATM   24  C   UNL     1     -14.231   7.149  71.337  1.00  0.00    -0.414 C  
ENDBRANCH   7  23
TORSDOF 2
ENDMDL
MODEL       18
REMARK 921   NORMALIZED FREE ENERGY PREDICTED BY IDOCK:   -6.13 KCAL/MOL
REMARK 922        TOTAL FREE ENERGY PREDICTED BY IDOCK:   -5.62 KCAL/MOL
REMARK 923 INTER-LIGAND FREE ENERGY PREDICTED BY IDOCK:   -6.85 KCAL/MOL
REMARK 924 INTRA-LIGAND FREE ENERGY PREDICTED BY IDOCK:    1.22 KCAL/MOL
REMARK 927      BINDING AFFINITY PREDICTED BY RF-SCORE:    0.00 PKD
ROOT
HETATM    1  C   UNL     1     -10.461  12.343  67.065  1.00  0.00    -0.238 C  
HETATM    2  C   UNL     1     -10.803  13.552  67.893  1.00  0.00    -0.262 C  
HETATM    3  C   UNL     1     -11.606  14.156  66.775  1.00  0.00    -0.409 C  
HETATM    4  C   UNL     1     -10.284  14.252  65.376  1.00  0.00    -0.371 C  
HETATM    5  C   UNL     1     -10.041   9.890  69.550  1.00  0.00    -0.240 C  
HETATM    6  O   UNL     1     -10.800  14.694  64.115  1.00  0.00    -0.511 OA 
HETATM    7  C   UNL     1     -10.839  12.701  65.498  1.00  0.00    -0.310 C  
HETATM    8  C   UNL     1     -10.342  11.509  64.734  1.00  0.00    -0.341 C  
HETATM    9  C   UNL     1     -11.128  11.090  67.573  1.00  0.00    -0.366 C  
HETATM   10  C   UNL     1     -10.110   8.653  68.704  1.00  0.00    -0.207 C  
HETATM   11  H   UNL     1     -10.149  14.741  63.426  1.00  0.00     0.000 HD 
HETATM   12  C   UNL     1     -10.360  10.277  65.281  1.00  0.00    -0.218 C  
HETATM   13  C   UNL     1     -11.099  10.864  69.108  1.00  0.00    -0.301 C  
HETATM   14  C   UNL     1     -10.561   9.982  66.713  1.00  0.00    -0.229 C  
HETATM   15  C   UNL     1     -10.166   8.815  67.261  1.00  0.00    -0.332 C  
HETATM   16  C   UNL     1      -9.779   7.654  66.388  1.00  0.00    -0.197 C  
HETATM   17  C   UNL     1      -9.345   6.379  67.079  1.00  0.00    -0.143 C  
HETATM   18  C   UNL     1      -9.879   6.233  68.474  1.00  0.00    -0.139 C  
HETATM   19  C   UNL     1     -10.020   7.451  69.288  1.00  0.00    -0.173 C  
HETATM   20  O   UNL     1     -10.113   5.130  68.970  1.00  0.00    -0.187 OA 
ENDROOT
BRANCH   4  21
HETATM   21  C   UNL     1     -10.471  15.496  66.230  1.00  0.00    -0.313 C  
HETATM   22  C   UNL     1     -10.632  16.563  66.961  1.00  0.00    -0.255 C  
ENDBRANCH   4  21
BRANCH   7  23
HETATM   23  C   UNL     1     -12.423  12.729  64.817  1.00  0.00    -0.539 C  
HETATM   24  C   UNL     1     -12.766  12.009  63.511  1.00  0.00    -0.567 C  
ENDBRANCH   7  23
TORSDOF 2
ENDMDL
MODEL       19
REMARK 921   NORMALIZED FREE ENERGY PREDICTED BY IDOCK:   -6.13 KCAL/MOL
REMARK 922        TOTAL FREE ENERGY PREDICTED BY IDOCK:   -5.62 KCAL/MOL
REMARK 923 INTER-LIGAND FREE ENERGY PREDICTED BY IDOCK:   -6.84 KCAL/MOL
REMARK 924 INTRA-LIGAND FREE ENERGY PREDICTED BY IDOCK:    1.22 KCAL/MOL
REMARK 927      BINDING AFFINITY PREDICTED BY RF-SCORE:    0.00 PKD
ROOT
HETATM    1  C   UNL     1     -11.048  12.091  68.942  1.00  0.00    -0.298 C  
HETATM    2  C   UNL     1     -11.881  13.344  68.948  1.00  0.00    -0.373 C  
HETATM    3  C   UNL     1     -11.695  13.538  67.469  1.00  0.00    -0.403 C  
HETATM    4  C   UNL     1      -9.774  13.625  67.343  1.00  0.00    -0.228 C  
HETATM    5  C   UNL     1     -12.433  10.317  71.644  1.00  0.00    -0.491 C  
HETATM    6  O   UNL     1      -9.280  13.693  66.000  1.00  0.00    -0.489 OA 
HETATM    7  C   UNL     1     -10.241  12.048  67.502  1.00  0.00    -0.211 C  
HETATM    8  C   UNL     1      -9.339  10.857  67.638  1.00  0.00    -0.163 C  
HETATM    9  C   UNL     1     -11.865  10.855  69.211  1.00  0.00    -0.395 C  
HETATM   10  C   UNL     1     -11.883   8.950  71.362  1.00  0.00    -0.383 C  
HETATM   11  H   UNL     1      -8.333  13.736  65.938  1.00  0.00     0.000 HD 
HETATM   12  C   UNL     1      -9.715   9.780  68.357  1.00  0.00    -0.162 C  
HETATM   13  C   UNL     1     -12.903  10.946  70.360  1.00  0.00    -0.257 C  
HETATM   14  C   UNL     1     -10.848   9.738  69.303  1.00  0.00    -0.240 C  
HETATM   15  C   UNL     1     -10.927   8.809  70.277  1.00  0.00    -0.255 C  
HETATM   16  C   UNL     1     -10.030   7.603  70.256  1.00  0.00    -0.189 C  
HETATM   17  C   UNL     1     -10.179   6.606  71.385  1.00  0.00    -0.220 C  
HETATM   18  C   UNL     1     -11.528   6.632  72.043  1.00  0.00    -0.291 C  
HETATM   19  C   UNL     1     -12.208   7.931  72.170  1.00  0.00    -0.353 C  
HETATM   20  O   UNL     1     -12.027   5.624  72.546  1.00  0.00    -0.258 OA 
ENDROOT
BRANCH   4  21
HETATM   21  C   UNL     1     -10.514  14.948  67.459  1.00  0.00    -0.254 C  
HETATM   22  C   UNL     1     -11.148  16.082  67.557  1.00  0.00    -0.207 C  
ENDBRANCH   4  21
BRANCH   7  23
HETATM   23  C   UNL     1     -10.914  11.616  65.975  1.00  0.00    -0.338 C  
HETATM   24  C   UNL     1     -10.245  10.604  65.042  1.00  0.00    -0.380 C  
ENDBRANCH   7  23
TORSDOF 2
ENDMDL
MODEL       20
REMARK 921   NORMALIZED FREE ENERGY PREDICTED BY IDOCK:   -6.00 KCAL/MOL
REMARK 922        TOTAL FREE ENERGY PREDICTED BY IDOCK:   -5.48 KCAL/MOL
REMARK 923 INTER-LIGAND FREE ENERGY PREDICTED BY IDOCK:   -6.73 KCAL/MOL
REMARK 924 INTRA-LIGAND FREE ENERGY PREDICTED BY IDOCK:    1.25 KCAL/MOL
REMARK 927      BINDING AFFINITY PREDICTED BY RF-SCORE:    0.00 PKD
ROOT
HETATM    1  C   UNL     1     -10.356   9.700  68.358  1.00  0.00    -0.233 C  
HETATM    2  C   UNL     1     -10.237   9.622  69.857  1.00  0.00    -0.279 C  
HETATM    3  C   UNL     1      -8.987   8.792  69.767  1.00  0.00    -0.146 C  
HETATM    4  C   UNL     1      -9.613   7.285  68.742  1.00  0.00    -0.142 C  
HETATM    5  C   UNL     1     -12.027  12.767  67.948  1.00  0.00    -0.320 C  
HETATM    6  O   UNL     1      -8.585   6.352  68.389  1.00  0.00    -0.115 OA 
HETATM    7  C   UNL     1      -9.340   8.561  67.728  1.00  0.00    -0.153 C  
HETATM    8  C   UNL     1      -9.624   8.611  66.255  1.00  0.00    -0.322 C  
HETATM    9  C   UNL     1     -10.103  11.089  67.832  1.00  0.00    -0.199 C  
HETATM   10  C   UNL     1     -11.768  13.007  66.490  1.00  0.00    -0.437 C  
HETATM   11  H   UNL     1      -8.894   5.609  67.883  1.00  0.00     0.000 HD 
HETATM   12  C   UNL     1      -9.974   9.767  65.655  1.00  0.00    -0.352 C  
HETATM   13  C   UNL     1     -10.773  12.256  68.605  1.00  0.00    -0.261 C  
HETATM   14  C   UNL     1     -10.401  10.995  66.352  1.00  0.00    -0.302 C  
HETATM   15  C   UNL     1     -11.118  11.953  65.729  1.00  0.00    -0.367 C  
HETATM   16  C   UNL     1     -11.255  11.952  64.232  1.00  0.00    -0.424 C  
HETATM   17  C   UNL     1     -12.077  13.060  63.609  1.00  0.00    -0.604 C  
HETATM   18  C   UNL     1     -12.170  14.296  64.456  1.00  0.00    -0.455 C  
HETATM   19  C   UNL     1     -12.227  14.127  65.916  1.00  0.00    -0.458 C  
HETATM   20  O   UNL     1     -12.287  15.418  63.960  1.00  0.00    -0.661 OA 
ENDROOT
BRANCH   4  21
HETATM   21  C   UNL     1      -9.641   7.144  70.255  1.00  0.00    -0.169 C  
HETATM   22  C   UNL     1      -9.663   7.022  71.552  1.00  0.00    -0.166 C  
ENDBRANCH   4  21
BRANCH   7  23
HETATM   23  C   UNL     1      -7.625   8.687  67.606  1.00  0.00    -0.098 C  
HETATM   24  C   UNL     1      -6.898   8.685  66.259  1.00  0.00    -0.070 C  
ENDBRANCH   7  23
TORSDOF 2
ENDMDL
MODEL       21
REMARK 921   NORMALIZED FREE ENERGY PREDICTED BY IDOCK:   -6.00 KCAL/MOL
REMARK 922        TOTAL FREE ENERGY PREDICTED BY IDOCK:   -5.48 KCAL/MOL
REMARK 923 INTER-LIGAND FREE ENERGY PREDICTED BY IDOCK:   -6.95 KCAL/MOL
REMARK 924 INTRA-LIGAND FREE ENERGY PREDICTED BY IDOCK:    1.47 KCAL/MOL
REMARK 927      BINDING AFFINITY PREDICTED BY RF-SCORE:    0.00 PKD
ROOT
HETATM    1  C   UNL     1     -11.327  11.180  67.161  1.00  0.00    -0.257 C  
HETATM    2  C   UNL     1     -11.103  11.600  65.733  1.00  0.00    -0.313 C  
HETATM    3  C   UNL     1     -10.707  12.990  66.148  1.00  0.00    -0.288 C  
HETATM    4  C   UNL     1     -12.276  13.552  67.114  1.00  0.00    -0.281 C  
HETATM    5  C   UNL     1     -10.660   7.731  66.988  1.00  0.00    -0.396 C  
HETATM    6  O   UNL     1     -12.145  14.832  67.745  1.00  0.00    -0.548 OA 
HETATM    7  C   UNL     1     -11.373  12.556  68.073  1.00  0.00    -0.339 C  
HETATM    8  C   UNL     1     -11.736  12.060  69.442  1.00  0.00    -0.402 C  
HETATM    9  C   UNL     1     -10.305  10.179  67.633  1.00  0.00    -0.265 C  
HETATM   10  C   UNL     1     -10.491   7.430  68.447  1.00  0.00    -0.220 C  
HETATM   11  H   UNL     1     -12.919  15.109  68.221  1.00  0.00     0.000 HD 
HETATM   12  C   UNL     1     -11.328  10.848  69.872  1.00  0.00    -0.381 C  
HETATM   13  C   UNL     1      -9.964   9.023  66.656  1.00  0.00    -0.349 C  
HETATM   14  C   UNL     1     -10.773   9.782  69.016  1.00  0.00    -0.238 C  
HETATM   15  C   UNL     1     -10.773   8.489  69.401  1.00  0.00    -0.166 C  
HETATM   16  C   UNL     1     -11.060   8.118  70.830  1.00  0.00    -0.275 C  
HETATM   17  C   UNL     1     -11.043   6.646  71.182  1.00  0.00    -0.326 C  
HETATM   18  C   UNL     1     -10.213   5.810  70.253  1.00  0.00    -0.230 C  
HETATM   19  C   UNL     1     -10.185   6.183  68.830  1.00  0.00    -0.232 C  
HETATM   20  O   UNL     1      -9.639   4.788  70.634  1.00  0.00    -0.156 OA 
ENDROOT
BRANCH   4  21
HETATM   21  C   UNL     1     -12.202  13.933  65.644  1.00  0.00    -0.477 C  
HETATM   22  C   UNL     1     -12.138  14.260  64.385  1.00  0.00    -0.490 C  
ENDBRANCH   4  21
BRANCH   7  23
HETATM   23  C   UNL     1     -10.012  13.499  68.556  1.00  0.00    -0.202 C  
HETATM   24  C   UNL     1      -8.576  12.981  68.444  1.00  0.00    -0.116 C  
ENDBRANCH   7  23
TORSDOF 2
ENDMDL
MODEL       22
REMARK 921   NORMALIZED FREE ENERGY PREDICTED BY IDOCK:   -5.99 KCAL/MOL
REMARK 922        TOTAL FREE ENERGY PREDICTED BY IDOCK:   -5.46 KCAL/MOL
REMARK 923 INTER-LIGAND FREE ENERGY PREDICTED BY IDOCK:   -6.76 KCAL/MOL
REMARK 924 INTRA-LIGAND FREE ENERGY PREDICTED BY IDOCK:    1.30 KCAL/MOL
REMARK 927      BINDING AFFINITY PREDICTED BY RF-SCORE:    0.00 PKD
ROOT
HETATM    1  C   UNL     1     -10.525  16.222  66.996  1.00  0.00    -0.306 C  
HETATM    2  C   UNL     1     -10.290  17.069  65.774  1.00  0.00    -0.275 C  
HETATM    3  C   UNL     1      -9.451  18.047  66.547  1.00  0.00    -0.306 C  
HETATM    4  C   UNL     1     -10.689  18.601  67.916  1.00  0.00    -0.296 C  
HETATM    5  C   UNL     1     -10.979  13.041  65.568  1.00  0.00    -0.296 C  
HETATM    6  O   UNL     1     -10.119  19.471  68.901  1.00  0.00    -0.473 OA 
HETATM    7  C   UNL     1     -10.070  17.120  68.306  1.00  0.00    -0.314 C  
HETATM    8  C   UNL     1     -10.464  16.264  69.474  1.00  0.00    -0.299 C  
HETATM    9  C   UNL     1      -9.832  14.887  66.913  1.00  0.00    -0.246 C  
HETATM   10  C   UNL     1     -10.801  12.185  66.787  1.00  0.00    -0.289 C  
HETATM   11  H   UNL     1     -10.730  19.744  69.575  1.00  0.00     0.000 HD 
HETATM   12  C   UNL     1     -10.422  14.919  69.395  1.00  0.00    -0.231 C  
HETATM   13  C   UNL     1      -9.942  14.132  65.562  1.00  0.00    -0.323 C  
HETATM   14  C   UNL     1     -10.293  14.141  68.146  1.00  0.00    -0.239 C  
HETATM   15  C   UNL     1     -10.666  12.847  68.073  1.00  0.00    -0.244 C  
HETATM   16  C   UNL     1     -10.945  12.061  69.324  1.00  0.00    -0.189 C  
HETATM   17  C   UNL     1     -11.359  10.615  69.158  1.00  0.00    -0.338 C  
HETATM   18  C   UNL     1     -10.904   9.998  67.868  1.00  0.00    -0.271 C  
HETATM   19  C   UNL     1     -10.870  10.852  66.670  1.00  0.00    -0.258 C  
HETATM   20  O   UNL     1     -10.649   8.796  67.775  1.00  0.00    -0.239 OA 
ENDROOT
BRANCH   4  21
HETATM   21  C   UNL     1     -10.613  19.467  66.669  1.00  0.00    -0.583 C  
HETATM   22  C   UNL     1     -10.548  20.209  65.600  1.00  0.00    -0.300 C  
ENDBRANCH   4  21
BRANCH   7  23
HETATM   23  C   UNL     1      -8.451  17.423  68.816  1.00  0.00    -0.225 C  
HETATM   24  C   UNL     1      -7.424  16.301  68.990  1.00  0.00    -0.220 C  
ENDBRANCH   7  23
TORSDOF 2
ENDMDL
MODEL       23
REMARK 921   NORMALIZED FREE ENERGY PREDICTED BY IDOCK:   -5.98 KCAL/MOL
REMARK 922        TOTAL FREE ENERGY PREDICTED BY IDOCK:   -5.45 KCAL/MOL
REMARK 923 INTER-LIGAND FREE ENERGY PREDICTED BY IDOCK:   -6.69 KCAL/MOL
REMARK 924 INTRA-LIGAND FREE ENERGY PREDICTED BY IDOCK:    1.24 KCAL/MOL
REMARK 927      BINDING AFFINITY PREDICTED BY RF-SCORE:    0.00 PKD
ROOT
HETATM    1  C   UNL     1     -10.983  12.167  67.245  1.00  0.00    -0.308 C  
HETATM    2  C   UNL     1     -12.212  12.939  66.847  1.00  0.00    -0.175 C  
HETATM    3  C   UNL     1     -11.984  12.653  65.389  1.00  0.00    -0.496 C  
HETATM    4  C   UNL     1     -10.223  13.391  65.135  1.00  0.00    -0.299 C  
HETATM    5  C   UNL     1     -11.853  11.082  70.475  1.00  0.00    -0.464 C  
HETATM    6  O   UNL     1      -9.675  13.159  63.832  1.00  0.00    -0.678 OA 
HETATM    7  C   UNL     1     -10.096  11.919  65.874  1.00  0.00    -0.265 C  
HETATM    8  C   UNL     1      -8.838  11.276  66.378  1.00  0.00    -0.184 C  
HETATM    9  C   UNL     1     -11.315  10.896  67.984  1.00  0.00    -0.382 C  
HETATM   10  C   UNL     1     -10.823  10.010  70.672  1.00  0.00    -0.367 C  
HETATM   11  H   UNL     1      -8.807  13.524  63.706  1.00  0.00     0.000 HD 
HETATM   12  C   UNL     1      -8.857  10.464  67.455  1.00  0.00    -0.133 C  
HETATM   13  C   UNL     1     -12.409  10.997  69.079  1.00  0.00     0.006 C  
HETATM   14  C   UNL     1      -9.973  10.344  68.413  1.00  0.00    -0.177 C  
HETATM   15  C   UNL     1      -9.792   9.859  69.658  1.00  0.00    -0.255 C  
HETATM   16  C   UNL     1      -8.520   9.146  70.022  1.00  0.00    -0.164 C  
HETATM   17  C   UNL     1      -8.392   8.631  71.440  1.00  0.00    -0.217 C  
HETATM   18  C   UNL     1      -9.709   8.388  72.118  1.00  0.00    -0.300 C  
HETATM   19  C   UNL     1     -10.822   9.299  71.808  1.00  0.00    -0.358 C  
HETATM   20  O   UNL     1      -9.848   7.515  72.976  1.00  0.00    -0.191 OA 
ENDROOT
BRANCH   4  21
HETATM   21  C   UNL     1     -11.400  14.297  64.809  1.00  0.00    -0.382 C  
HETATM   22  C   UNL     1     -12.409  15.073  64.531  1.00  0.00    -0.276 C  
ENDBRANCH   4  21
BRANCH   7  23
HETATM   23  C   UNL     1     -10.435  10.761  64.642  1.00  0.00    -0.346 C  
HETATM   24  C   UNL     1      -9.341   9.898  64.008  1.00  0.00    -0.280 C  
ENDBRANCH   7  23
TORSDOF 2
ENDMDL
MODEL       24
REMARK 921   NORMALIZED FREE ENERGY PREDICTED BY IDOCK:   -5.94 KCAL/MOL
REMARK 922        TOTAL FREE ENERGY PREDICTED BY IDOCK:   -5.41 KCAL/MOL
REMARK 923 INTER-LIGAND FREE ENERGY PREDICTED BY IDOCK:   -6.63 KCAL/MOL
REMARK 924 INTRA-LIGAND FREE ENERGY PREDICTED BY IDOCK:    1.23 KCAL/MOL
REMARK 927      BINDING AFFINITY PREDICTED BY RF-SCORE:    0.00 PKD
ROOT
HETATM    1  C   UNL     1     -11.510   8.987  69.753  1.00  0.00     0.141 C  
HETATM    2  C   UNL     1     -11.484  10.477  69.959  1.00  0.00    -0.393 C  
HETATM    3  C   UNL     1     -11.539  10.326  71.453  1.00  0.00    -0.227 C  
HETATM    4  C   UNL     1     -13.171   9.323  71.666  1.00  0.00    -0.388 C  
HETATM    5  C   UNL     1      -9.779   8.670  66.708  1.00  0.00    -0.298 C  
HETATM    6  O   UNL     1     -13.435   8.917  73.015  1.00  0.00    -0.897 OA 
HETATM    7  C   UNL     1     -11.961   8.304  71.188  1.00  0.00    -0.290 C  
HETATM    8  C   UNL     1     -12.097   6.846  70.857  1.00  0.00    -0.424 C  
HETATM    9  C   UNL     1     -10.205   8.457  69.219  1.00  0.00    -0.211 C  
HETATM   10  C   UNL     1      -9.469   7.203  66.741  1.00  0.00    -0.214 C  
HETATM   11  H   UNL     1     -14.239   8.423  73.120  1.00  0.00     0.000 HD 
HETATM   12  C   UNL     1     -11.307   6.268  69.930  1.00  0.00    -0.504 C  
HETATM   13  C   UNL     1      -9.546   9.265  68.071  1.00  0.00    -0.161 C  
HETATM   14  C   UNL     1     -10.470   6.991  68.952  1.00  0.00    -0.217 C  
HETATM   15  C   UNL     1     -10.042   6.407  67.814  1.00  0.00    -0.171 C  
HETATM   16  C   UNL     1     -10.144   4.918  67.635  1.00  0.00    -0.172 C  
HETATM   17  C   UNL     1      -9.643   4.339  66.329  1.00  0.00    -0.204 C  
HETATM   18  C   UNL     1      -8.622   5.196  65.638  1.00  0.00    -0.139 C  
HETATM   19  C   UNL     1      -8.766   6.657  65.740  1.00  0.00    -0.126 C  
HETATM   20  O   UNL     1      -7.737   4.711  64.930  1.00  0.00    -0.076 OA 
ENDROOT
BRANCH   4  21
HETATM   21  C   UNL     1     -13.275  10.835  71.781  1.00  0.00    -0.523 C  
HETATM   22  C   UNL     1     -13.365  12.131  71.879  1.00  0.00    -0.421 C  
ENDBRANCH   4  21
BRANCH   7  23
HETATM   23  C   UNL     1     -10.959   8.103  72.576  1.00  0.00    -0.439 C  
HETATM   24  C   UNL     1     -10.889   6.786  73.352  1.00  0.00    -0.282 C  
ENDBRANCH   7  23
TORSDOF 2
ENDMDL
MODEL       25
REMARK 921   NORMALIZED FREE ENERGY PREDICTED BY IDOCK:   -5.93 KCAL/MOL
REMARK 922        TOTAL FREE ENERGY PREDICTED BY IDOCK:   -5.40 KCAL/MOL
REMARK 923 INTER-LIGAND FREE ENERGY PREDICTED BY IDOCK:   -6.64 KCAL/MOL
REMARK 924 INTRA-LIGAND FREE ENERGY PREDICTED BY IDOCK:    1.24 KCAL/MOL
REMARK 927      BINDING AFFINITY PREDICTED BY RF-SCORE:    0.00 PKD
ROOT
HETATM    1  C   UNL     1      -9.467   8.491  68.897  1.00  0.00    -0.147 C  
HETATM    2  C   UNL     1      -8.764   7.233  68.463  1.00  0.00    -0.123 C  
HETATM    3  C   UNL     1      -9.386   6.437  69.577  1.00  0.00    -0.146 C  
HETATM    4  C   UNL     1      -8.790   7.427  71.119  1.00  0.00    -0.142 C  
HETATM    5  C   UNL     1      -9.747  10.223  65.849  1.00  0.00    -0.283 C  
HETATM    6  O   UNL     1      -9.335   6.960  72.359  1.00  0.00    -0.138 OA 
HETATM    7  C   UNL     1     -10.056   8.222  70.416  1.00  0.00    -0.199 C  
HETATM    8  C   UNL     1     -10.611   9.556  70.821  1.00  0.00    -0.387 C  
HETATM    9  C   UNL     1     -10.521   8.929  67.913  1.00  0.00    -0.281 C  
HETATM   10  C   UNL     1     -10.782  11.240  66.226  1.00  0.00    -0.312 C  
HETATM   11  H   UNL     1      -9.041   7.448  73.119  1.00  0.00     0.000 HD 
HETATM   12  C   UNL     1     -11.152  10.389  69.908  1.00  0.00    -0.367 C  
HETATM   13  C   UNL     1     -10.131   8.881  66.412  1.00  0.00    -0.333 C  
HETATM   14  C   UNL     1     -11.008  10.260  68.444  1.00  0.00    -0.308 C  
HETATM   15  C   UNL     1     -11.199  11.307  67.617  1.00  0.00    -0.357 C  
HETATM   16  C   UNL     1     -11.856  12.564  68.115  1.00  0.00    -0.371 C  
HETATM   17  C   UNL     1     -12.034  13.695  67.125  1.00  0.00    -0.434 C  
HETATM   18  C   UNL     1     -12.067  13.247  65.693  1.00  0.00    -0.441 C  
HETATM   19  C   UNL     1     -11.212  12.114  65.306  1.00  0.00    -0.381 C  
HETATM   20  O   UNL     1     -12.713  13.852  64.836  1.00  0.00    -0.648 OA 
ENDROOT
BRANCH   4  21
HETATM   21  C   UNL     1      -7.942   6.238  70.697  1.00  0.00    -0.112 C  
HETATM   22  C   UNL     1      -7.214   5.219  70.335  1.00  0.00    -0.062 C  
ENDBRANCH   4  21
BRANCH   7  23
HETATM   23  C   UNL     1     -11.453   7.294  70.814  1.00  0.00    -0.328 C  
HETATM   24  C   UNL     1     -12.459   7.742  71.877  1.00  0.00    -0.343 C  
ENDBRANCH   7  23
TORSDOF 2
ENDMDL
MODEL       26
REMARK 921   NORMALIZED FREE ENERGY PREDICTED BY IDOCK:   -5.92 KCAL/MOL
REMARK 922        TOTAL FREE ENERGY PREDICTED BY IDOCK:   -5.39 KCAL/MOL
REMARK 923 INTER-LIGAND FREE ENERGY PREDICTED BY IDOCK:   -6.65 KCAL/MOL
REMARK 924 INTRA-LIGAND FREE ENERGY PREDICTED BY IDOCK:    1.26 KCAL/MOL
REMARK 927      BINDING AFFINITY PREDICTED BY RF-SCORE:    0.00 PKD
ROOT
HETATM    1  C   UNL     1      -7.494  17.640  68.055  1.00  0.00    -0.223 C  
HETATM    2  C   UNL     1      -6.636  18.156  69.178  1.00  0.00    -0.259 C  
HETATM    3  C   UNL     1      -7.340  19.484  69.176  1.00  0.00    -0.364 C  
HETATM    4  C   UNL     1      -7.049  20.058  67.360  1.00  0.00    -0.251 C  
HETATM    5  C   UNL     1      -7.487  14.183  68.701  1.00  0.00    -0.125 C  
HETATM    6  O   UNL     1      -7.722  21.275  67.017  1.00  0.00    -0.733 OA 
HETATM    7  C   UNL     1      -8.266  18.940  67.391  1.00  0.00    -0.289 C  
HETATM    8  C   UNL     1      -8.980  18.361  66.206  1.00  0.00    -0.205 C  
HETATM    9  C   UNL     1      -8.432  16.549  68.502  1.00  0.00    -0.226 C  
HETATM   10  C   UNL     1      -8.644  13.760  67.846  1.00  0.00    -0.183 C  
HETATM   11  H   UNL     1      -7.579  21.558  66.122  1.00  0.00     0.000 HD 
HETATM   12  C   UNL     1      -9.454  17.099  66.230  1.00  0.00    -0.267 C  
HETATM   13  C   UNL     1      -7.834  15.455  69.426  1.00  0.00    -0.232 C  
HETATM   14  C   UNL     1      -9.097  16.072  67.229  1.00  0.00    -0.217 C  
HETATM   15  C   UNL     1      -9.256  14.755  66.983  1.00  0.00    -0.248 C  
HETATM   16  C   UNL     1     -10.077  14.292  65.812  1.00  0.00    -0.356 C  
HETATM   17  C   UNL     1     -10.208  12.798  65.603  1.00  0.00    -0.292 C  
HETATM   18  C   UNL     1     -10.003  11.991  66.852  1.00  0.00    -0.202 C  
HETATM   19  C   UNL     1      -9.012  12.471  67.828  1.00  0.00    -0.184 C  
HETATM   20  O   UNL     1     -10.571  10.912  67.030  1.00  0.00    -0.232 OA 
ENDROOT
BRANCH   4  21
HETATM   21  C   UNL     1      -6.055  20.547  68.401  1.00  0.00    -0.354 C  
HETATM   22  C   UNL     1      -5.203  20.967  69.293  1.00  0.00    -0.394 C  
ENDBRANCH   4  21
BRANCH   7  23
HETATM   23  C   UNL     1      -9.624  19.765  68.061  1.00  0.00    -0.489 C  
HETATM   24  C   UNL     1     -10.988  19.794  67.367  1.00  0.00    -0.325 C  
ENDBRANCH   7  23
TORSDOF 2
ENDMDL
MODEL       27
REMARK 921   NORMALIZED FREE ENERGY PREDICTED BY IDOCK:   -5.90 KCAL/MOL
REMARK 922        TOTAL FREE ENERGY PREDICTED BY IDOCK:   -5.36 KCAL/MOL
REMARK 923 INTER-LIGAND FREE ENERGY PREDICTED BY IDOCK:   -6.69 KCAL/MOL
REMARK 924 INTRA-LIGAND FREE ENERGY PREDICTED BY IDOCK:    1.32 KCAL/MOL
REMARK 927      BINDING AFFINITY PREDICTED BY RF-SCORE:    0.00 PKD
ROOT
HETATM    1  C   UNL     1      -9.394  14.198  67.672  1.00  0.00    -0.209 C  
HETATM    2  C   UNL     1      -8.582  12.975  68.006  1.00  0.00    -0.186 C  
HETATM    3  C   UNL     1      -9.273  12.162  66.946  1.00  0.00    -0.203 C  
HETATM    4  C   UNL     1     -11.112  12.315  67.499  1.00  0.00    -0.275 C  
HETATM    5  C   UNL     1      -7.187  16.775  68.598  1.00  0.00    -0.207 C  
HETATM    6  O   UNL     1     -12.046  11.720  66.590  1.00  0.00    -0.527 OA 
HETATM    7  C   UNL     1     -10.657  13.704  66.730  1.00  0.00    -0.273 C  
HETATM    8  C   UNL     1     -11.480  14.947  66.564  1.00  0.00    -0.286 C  
HETATM    9  C   UNL     1      -8.563  15.285  67.042  1.00  0.00    -0.256 C  
HETATM   10  C   UNL     1      -7.833  17.930  67.893  1.00  0.00    -0.230 C  
HETATM   11  H   UNL     1     -12.953  11.795  66.863  1.00  0.00     0.000 HD 
HETATM   12  C   UNL     1     -10.900  16.164  66.520  1.00  0.00    -0.139 C  
HETATM   13  C   UNL     1      -7.184  15.571  67.695  1.00  0.00    -0.203 C  
HETATM   14  C   UNL     1      -9.508  16.459  66.912  1.00  0.00    -0.249 C  
HETATM   15  C   UNL     1      -9.112  17.706  67.243  1.00  0.00    -0.237 C  
HETATM   16  C   UNL     1      -9.987  18.890  66.939  1.00  0.00    -0.391 C  
HETATM   17  C   UNL     1      -9.473  20.255  67.342  1.00  0.00    -0.547 C  
HETATM   18  C   UNL     1      -7.979  20.330  67.462  1.00  0.00    -0.311 C  
HETATM   19  C   UNL     1      -7.268  19.144  67.966  1.00  0.00    -0.286 C  
HETATM   20  O   UNL     1      -7.359  21.370  67.235  1.00  0.00    -0.496 OA 
ENDROOT
BRANCH   4  21
HETATM   21  C   UNL     1     -10.348  11.094  67.986  1.00  0.00    -0.208 C  
HETATM   22  C   UNL     1      -9.694  10.047  68.403  1.00  0.00    -0.157 C  
ENDBRANCH   4  21
BRANCH   7  23
HETATM   23  C   UNL     1     -10.574  13.292  65.058  1.00  0.00    -0.360 C  
HETATM   24  C   UNL     1     -11.736  13.547  64.094  1.00  0.00    -0.453 C  
ENDBRANCH   7  23
TORSDOF 2
ENDMDL
MODEL       28
REMARK 921   NORMALIZED FREE ENERGY PREDICTED BY IDOCK:   -5.89 KCAL/MOL
REMARK 922        TOTAL FREE ENERGY PREDICTED BY IDOCK:   -5.35 KCAL/MOL
REMARK 923 INTER-LIGAND FREE ENERGY PREDICTED BY IDOCK:   -6.58 KCAL/MOL
REMARK 924 INTRA-LIGAND FREE ENERGY PREDICTED BY IDOCK:    1.22 KCAL/MOL
REMARK 927      BINDING AFFINITY PREDICTED BY RF-SCORE:    0.00 PKD
ROOT
HETATM    1  C   UNL     1     -10.968   8.872  69.125  1.00  0.00     0.000 C  
HETATM    2  C   UNL     1     -10.882   7.414  69.485  1.00  0.00    -0.201 C  
HETATM    3  C   UNL     1      -9.510   7.291  68.883  1.00  0.00    -0.143 C  
HETATM    4  C   UNL     1      -9.848   7.848  67.070  1.00  0.00    -0.225 C  
HETATM    5  C   UNL     1     -13.109  10.088  71.636  1.00  0.00    -0.547 C  
HETATM    6  O   UNL     1      -8.670   7.947  66.260  1.00  0.00    -0.138 OA 
HETATM    7  C   UNL     1      -9.760   9.181  68.042  1.00  0.00    -0.177 C  
HETATM    8  C   UNL     1     -10.004  10.604  67.636  1.00  0.00    -0.197 C  
HETATM    9  C   UNL     1     -10.932   9.767  70.337  1.00  0.00    -0.371 C  
HETATM   10  C   UNL     1     -12.851  11.559  71.503  1.00  0.00    -0.485 C  
HETATM   11  H   UNL     1      -8.836   8.221  65.366  1.00  0.00     0.000 HD 
HETATM   12  C   UNL     1     -10.522  11.495  68.505  1.00  0.00    -0.228 C  
HETATM   13  C   UNL     1     -11.808   9.337  71.543  1.00  0.00    -0.444 C  
HETATM   14  C   UNL     1     -11.167  11.158  69.790  1.00  0.00    -0.318 C  
HETATM   15  C   UNL     1     -12.014  12.009  70.404  1.00  0.00    -0.379 C  
HETATM   16  C   UNL     1     -12.103  13.445  69.968  1.00  0.00    -0.404 C  
HETATM   17  C   UNL     1     -13.078  14.337  70.707  1.00  0.00    -0.321 C  
HETATM   18  C   UNL     1     -13.400  13.864  72.095  1.00  0.00    -0.463 C  
HETATM   19  C   UNL     1     -13.471  12.413  72.329  1.00  0.00    -0.428 C  
HETATM   20  O   UNL     1     -13.685  14.649  73.000  1.00  0.00    -0.555 OA 
ENDROOT
BRANCH   4  21
HETATM   21  C   UNL     1      -9.896   6.354  67.349  1.00  0.00    -0.158 C  
HETATM   22  C   UNL     1      -9.939   5.074  67.588  1.00  0.00    -0.202 C  
ENDBRANCH   4  21
BRANCH   7  23
HETATM   23  C   UNL     1      -8.086   9.362  68.414  1.00  0.00    -0.109 C  
HETATM   24  C   UNL     1      -7.249  10.526  67.876  1.00  0.00    -0.084 C  
ENDBRANCH   7  23
TORSDOF 2
ENDMDL
MODEL       29
REMARK 921   NORMALIZED FREE ENERGY PREDICTED BY IDOCK:   -5.86 KCAL/MOL
REMARK 922        TOTAL FREE ENERGY PREDICTED BY IDOCK:   -5.32 KCAL/MOL
REMARK 923 INTER-LIGAND FREE ENERGY PREDICTED BY IDOCK:   -6.54 KCAL/MOL
REMARK 924 INTRA-LIGAND FREE ENERGY PREDICTED BY IDOCK:    1.22 KCAL/MOL
REMARK 927      BINDING AFFINITY PREDICTED BY RF-SCORE:    0.00 PKD
ROOT
HETATM    1  C   UNL     1     -11.114   9.067  69.003  1.00  0.00     0.104 C  
HETATM    2  C   UNL     1     -11.293   8.955  70.493  1.00  0.00    -0.268 C  
HETATM    3  C   UNL     1     -10.281   7.847  70.584  1.00  0.00    -0.199 C  
HETATM    4  C   UNL     1     -11.048   6.542  69.391  1.00  0.00    -0.348 C  
HETATM    5  C   UNL     1     -11.904  12.450  68.456  1.00  0.00    -0.352 C  
HETATM    6  O   UNL     1     -10.224   5.390  69.179  1.00  0.00    -0.202 OA 
HETATM    7  C   UNL     1     -10.299   7.719  68.505  1.00  0.00    -0.226 C  
HETATM    8  C   UNL     1     -10.289   7.844  67.010  1.00  0.00    -0.411 C  
HETATM    9  C   UNL     1     -10.446  10.356  68.599  1.00  0.00    -0.216 C  
HETATM   10  C   UNL     1     -11.334  12.627  67.080  1.00  0.00    -0.373 C  
HETATM   11  H   UNL     1     -10.602   4.747  68.591  1.00  0.00     0.000 HD 
HETATM   12  C   UNL     1     -10.238   9.053  66.415  1.00  0.00    -0.297 C  
HETATM   13  C   UNL     1     -10.950  11.646  69.298  1.00  0.00    -0.246 C  
HETATM   14  C   UNL     1     -10.482  10.345  67.086  1.00  0.00    -0.311 C  
HETATM   15  C   UNL     1     -10.825  11.452  66.395  1.00  0.00    -0.323 C  
HETATM   16  C   UNL     1     -10.681  11.492  64.899  1.00  0.00    -0.357 C  
HETATM   17  C   UNL     1     -11.088  12.769  64.196  1.00  0.00    -0.432 C  
HETATM   18  C   UNL     1     -11.039  13.986  65.073  1.00  0.00    -0.363 C  
HETATM   19  C   UNL     1     -11.401  13.829  66.490  1.00  0.00    -0.336 C  
HETATM   20  O   UNL     1     -10.794  15.105  64.620  1.00  0.00    -0.377 OA 
ENDROOT
BRANCH   4  21
HETATM   21  C   UNL     1     -11.385   6.403  70.867  1.00  0.00    -0.398 C  
HETATM   22  C   UNL     1     -11.674   6.284  72.132  1.00  0.00    -0.368 C  
ENDBRANCH   4  21
BRANCH   7  23
HETATM   23  C   UNL     1      -8.611   7.427  68.695  1.00  0.00    -0.129 C  
HETATM   24  C   UNL     1      -7.711   7.036  67.520  1.00  0.00    -0.111 C  
ENDBRANCH   7  23
TORSDOF 2
ENDMDL
MODEL       30
REMARK 921   NORMALIZED FREE ENERGY PREDICTED BY IDOCK:   -5.83 KCAL/MOL
REMARK 922        TOTAL FREE ENERGY PREDICTED BY IDOCK:   -5.29 KCAL/MOL
REMARK 923 INTER-LIGAND FREE ENERGY PREDICTED BY IDOCK:   -6.60 KCAL/MOL
REMARK 924 INTRA-LIGAND FREE ENERGY PREDICTED BY IDOCK:    1.31 KCAL/MOL
REMARK 927      BINDING AFFINITY PREDICTED BY RF-SCORE:    0.00 PKD
ROOT
HETATM    1  C   UNL     1      -9.712  12.867  68.825  1.00  0.00     0.058 C  
HETATM    2  C   UNL     1      -9.908  14.248  68.260  1.00  0.00    -0.235 C  
HETATM    3  C   UNL     1      -9.169  13.895  66.999  1.00  0.00    -0.257 C  
HETATM    4  C   UNL     1      -7.464  13.345  67.708  1.00  0.00    -0.160 C  
HETATM    5  C   UNL     1     -12.528  12.558  70.909  1.00  0.00    -0.361 C  
HETATM    6  O   UNL     1      -6.562  12.828  66.723  1.00  0.00    -0.438 OA 
HETATM    7  C   UNL     1      -8.558  12.123  67.908  1.00  0.00    -0.167 C  
HETATM    8  C   UNL     1      -8.328  10.822  68.618  1.00  0.00    -0.141 C  
HETATM    9  C   UNL     1     -11.002  12.093  68.912  1.00  0.00    -0.269 C  
HETATM   10  C   UNL     1     -12.526  11.075  71.125  1.00  0.00    -0.502 C  
HETATM   11  H   UNL     1      -5.721  12.557  67.073  1.00  0.00     0.000 HD 
HETATM   12  C   UNL     1      -9.331  10.199  69.269  1.00  0.00    -0.227 C  
HETATM   13  C   UNL     1     -12.234  12.859  69.464  1.00  0.00    -0.177 C  
HETATM   14  C   UNL     1     -10.628  10.810  69.621  1.00  0.00    -0.222 C  
HETATM   15  C   UNL     1     -11.406  10.310  70.603  1.00  0.00    -0.431 C  
HETATM   16  C   UNL     1     -11.132   8.947  71.174  1.00  0.00    -0.354 C  
HETATM   17  C   UNL     1     -12.050   8.457  72.274  1.00  0.00    -0.456 C  
HETATM   18  C   UNL     1     -13.405   9.103  72.266  1.00  0.00    -0.477 C  
HETATM   19  C   UNL     1     -13.492  10.516  71.868  1.00  0.00    -0.358 C  
HETATM   20  O   UNL     1     -14.410   8.511  72.662  1.00  0.00    -0.473 OA 
ENDROOT
BRANCH   4  21
HETATM   21  C   UNL     1      -7.589  14.795  67.270  1.00  0.00    -0.195 C  
HETATM   22  C   UNL     1      -7.696  16.038  66.894  1.00  0.00    -0.279 C  
ENDBRANCH   4  21
BRANCH   7  23
HETATM   23  C   UNL     1      -8.787  11.456  66.335  1.00  0.00    -0.193 C  
HETATM   24  C   UNL     1      -9.819  10.361  66.052  1.00  0.00    -0.289 C  
ENDBRANCH   7  23
TORSDOF 2
ENDMDL
MODEL       31
REMARK 921   NORMALIZED FREE ENERGY PREDICTED BY IDOCK:   -5.82 KCAL/MOL
REMARK 922        TOTAL FREE ENERGY PREDICTED BY IDOCK:   -5.28 KCAL/MOL
REMARK 923 INTER-LIGAND FREE ENERGY PREDICTED BY IDOCK:   -6.52 KCAL/MOL
REMARK 924 INTRA-LIGAND FREE ENERGY PREDICTED BY IDOCK:    1.24 KCAL/MOL
REMARK 927      BINDING AFFINITY PREDICTED BY RF-SCORE:    0.00 PKD
ROOT
HETATM    1  C   UNL     1     -11.083  12.007  67.963  1.00  0.00    -0.292 C  
HETATM    2  C   UNL     1     -10.305  12.271  66.701  1.00  0.00    -0.237 C  
HETATM    3  C   UNL     1     -10.123  13.721  67.053  1.00  0.00    -0.256 C  
HETATM    4  C   UNL     1     -11.954  14.294  67.229  1.00  0.00    -0.405 C  
HETATM    5  C   UNL     1     -10.371   8.610  68.526  1.00  0.00    -0.228 C  
HETATM    6  O   UNL     1     -12.102  15.645  67.685  1.00  0.00    -0.117 OA 
HETATM    7  C   UNL     1     -11.506  13.474  68.592  1.00  0.00    -0.343 C  
HETATM    8  C   UNL     1     -12.386  13.120  69.754  1.00  0.00    -0.164 C  
HETATM    9  C   UNL     1     -10.329  11.133  68.931  1.00  0.00    -0.220 C  
HETATM   10  C   UNL     1     -10.801   8.492  69.958  1.00  0.00    -0.225 C  
HETATM   11  H   UNL     1     -13.004  15.927  67.772  1.00  0.00     0.000 HD 
HETATM   12  C   UNL     1     -12.175  11.995  70.466  1.00  0.00    -0.414 C  
HETATM   13  C   UNL     1      -9.611   9.894  68.332  1.00  0.00    -0.157 C  
HETATM   14  C   UNL     1     -11.311  10.871  70.052  1.00  0.00    -0.386 C  
HETATM   15  C   UNL     1     -11.455   9.635  70.571  1.00  0.00    -0.352 C  
HETATM   16  C   UNL     1     -12.291   9.417  71.802  1.00  0.00    -0.471 C  
HETATM   17  C   UNL     1     -12.403   8.000  72.323  1.00  0.00    -0.336 C  
HETATM   18  C   UNL     1     -11.261   7.113  71.921  1.00  0.00    -0.249 C  
HETATM   19  C   UNL     1     -10.664   7.319  70.591  1.00  0.00    -0.252 C  
HETATM   20  O   UNL     1     -10.880   6.181  72.630  1.00  0.00    -0.221 OA 
ENDROOT
BRANCH   4  21
HETATM   21  C   UNL     1     -11.297  14.505  65.875  1.00  0.00    -0.341 C  
HETATM   22  C   UNL     1     -10.734  14.685  64.714  1.00  0.00    -0.399 C  
ENDBRANCH   4  21
BRANCH   7  23
HETATM   23  C   UNL     1     -10.465  14.549  69.448  1.00  0.00    -0.139 C  
HETATM   24  C   UNL     1     -10.915  15.298  70.705  1.00  0.00    -0.318 C  
ENDBRANCH   7  23
TORSDOF 2
ENDMDL
MODEL       32
REMARK 921   NORMALIZED FREE ENERGY PREDICTED BY IDOCK:   -5.81 KCAL/MOL
REMARK 922        TOTAL FREE ENERGY PREDICTED BY IDOCK:   -5.27 KCAL/MOL
REMARK 923 INTER-LIGAND FREE ENERGY PREDICTED BY IDOCK:   -6.59 KCAL/MOL
REMARK 924 INTRA-LIGAND FREE ENERGY PREDICTED BY IDOCK:    1.32 KCAL/MOL
REMARK 927      BINDING AFFINITY PREDICTED BY RF-SCORE:    0.00 PKD
ROOT
HETATM    1  C   UNL     1     -10.772  11.536  68.871  1.00  0.00    -0.245 C  
HETATM    2  C   UNL     1     -11.935  12.244  68.232  1.00  0.00    -0.259 C  
HETATM    3  C   UNL     1     -11.293  12.186  66.874  1.00  0.00    -0.402 C  
HETATM    4  C   UNL     1      -9.633  13.106  67.208  1.00  0.00    -0.233 C  
HETATM    5  C   UNL     1     -12.333   9.937  71.587  1.00  0.00    -0.496 C  
HETATM    6  O   UNL     1      -8.732  13.107  66.094  1.00  0.00    -0.390 OA 
HETATM    7  C   UNL     1      -9.527  11.561  67.786  1.00  0.00    -0.168 C  
HETATM    8  C   UNL     1      -8.381  10.967  68.549  1.00  0.00    -0.149 C  
HETATM    9  C   UNL     1     -11.130  10.150  69.342  1.00  0.00    -0.288 C  
HETATM   10  C   UNL     1     -11.269   8.944  71.946  1.00  0.00    -0.447 C  
HETATM   11  H   UNL     1      -7.914  13.561  66.258  1.00  0.00     0.000 HD 
HETATM   12  C   UNL     1      -8.587  10.014  69.481  1.00  0.00    -0.197 C  
HETATM   13  C   UNL     1     -12.481  10.000  70.091  1.00  0.00    -0.015 C  
HETATM   14  C   UNL     1      -9.895   9.664  70.068  1.00  0.00    -0.286 C  
HETATM   15  C   UNL     1      -9.994   9.027  71.253  1.00  0.00    -0.381 C  
HETATM   16  C   UNL     1      -8.788   8.385  71.878  1.00  0.00    -0.267 C  
HETATM   17  C   UNL     1      -8.981   7.690  73.209  1.00  0.00    -0.259 C  
HETATM   18  C   UNL     1     -10.391   7.240  73.459  1.00  0.00    -0.366 C  
HETATM   19  C   UNL     1     -11.484   8.084  72.951  1.00  0.00    -0.329 C  
HETATM   20  O   UNL     1     -10.646   6.246  74.142  1.00  0.00    -0.267 OA 
ENDROOT
BRANCH   4  21
HETATM   21  C   UNL     1     -10.782  13.940  66.666  1.00  0.00    -0.281 C  
HETATM   22  C   UNL     1     -11.767  14.655  66.203  1.00  0.00    -0.316 C  
ENDBRANCH   4  21
BRANCH   7  23
HETATM   23  C   UNL     1      -9.379  10.562  66.389  1.00  0.00    -0.197 C  
HETATM   24  C   UNL     1      -9.904   9.124  66.351  1.00  0.00    -0.350 C  
ENDBRANCH   7  23
TORSDOF 2
ENDMDL
MODEL       33
REMARK 921   NORMALIZED FREE ENERGY PREDICTED BY IDOCK:   -5.68 KCAL/MOL
REMARK 922        TOTAL FREE ENERGY PREDICTED BY IDOCK:   -5.12 KCAL/MOL
REMARK 923 INTER-LIGAND FREE ENERGY PREDICTED BY IDOCK:   -6.34 KCAL/MOL
REMARK 924 INTRA-LIGAND FREE ENERGY PREDICTED BY IDOCK:    1.22 KCAL/MOL
REMARK 927      BINDING AFFINITY PREDICTED BY RF-SCORE:    0.00 PKD
ROOT
HETATM    1  C   UNL     1     -10.141  13.019  66.898  1.00  0.00    -0.243 C  
HETATM    2  C   UNL     1     -10.519  14.116  67.856  1.00  0.00    -0.237 C  
HETATM    3  C   UNL     1     -11.376  14.795  66.823  1.00  0.00    -0.347 C  
HETATM    4  C   UNL     1     -10.094  15.101  65.418  1.00  0.00    -0.350 C  
HETATM    5  C   UNL     1      -9.546  10.342  69.100  1.00  0.00    -0.229 C  
HETATM    6  O   UNL     1     -10.660  15.647  64.221  1.00  0.00    -0.613 OA 
HETATM    7  C   UNL     1     -10.573  13.521  65.385  1.00  0.00    -0.313 C  
HETATM    8  C   UNL     1     -10.038  12.442  64.489  1.00  0.00    -0.276 C  
HETATM    9  C   UNL     1     -10.736  11.689  67.282  1.00  0.00    -0.281 C  
HETATM   10  C   UNL     1      -9.578   9.200  68.129  1.00  0.00    -0.160 C  
HETATM   11  H   UNL     1     -10.028  15.799  63.528  1.00  0.00     0.000 HD 
HETATM   12  C   UNL     1      -9.985  11.160  64.903  1.00  0.00    -0.331 C  
HETATM   13  C   UNL     1     -10.660  11.304  68.783  1.00  0.00    -0.234 C  
HETATM   14  C   UNL     1     -10.138  10.706  66.299  1.00  0.00    -0.291 C  
HETATM   15  C   UNL     1      -9.675   9.509  66.713  1.00  0.00    -0.254 C  
HETATM   16  C   UNL     1      -9.255   8.467  65.714  1.00  0.00    -0.175 C  
HETATM   17  C   UNL     1      -8.746   7.149  66.257  1.00  0.00    -0.156 C  
HETATM   18  C   UNL     1      -9.239   6.831  67.639  1.00  0.00    -0.118 C  
HETATM   19  C   UNL     1      -9.417   7.948  68.580  1.00  0.00    -0.149 C  
HETATM   20  O   UNL     1      -9.409   5.672  68.019  1.00  0.00    -0.107 OA 
ENDROOT
BRANCH   4  21
HETATM   21  C   UNL     1     -10.319  16.239  66.402  1.00  0.00    -0.319 C  
HETATM   22  C   UNL     1     -10.512  17.214  67.245  1.00  0.00    -0.313 C  
ENDBRANCH   4  21
BRANCH   7  23
HETATM   23  C   UNL     1     -12.172  13.543  64.741  1.00  0.00    -0.450 C  
HETATM   24  C   UNL     1     -12.518  12.919  63.387  1.00  0.00    -0.396 C  
ENDBRANCH   7  23
TORSDOF 2
ENDMDL
MODEL       34
REMARK 921   NORMALIZED FREE ENERGY PREDICTED BY IDOCK:   -5.66 KCAL/MOL
REMARK 922        TOTAL FREE ENERGY PREDICTED BY IDOCK:   -5.10 KCAL/MOL
REMARK 923 INTER-LIGAND FREE ENERGY PREDICTED BY IDOCK:   -6.32 KCAL/MOL
REMARK 924 INTRA-LIGAND FREE ENERGY PREDICTED BY IDOCK:    1.22 KCAL/MOL
REMARK 927      BINDING AFFINITY PREDICTED BY RF-SCORE:    0.00 PKD
ROOT
HETATM    1  C   UNL     1     -10.736  10.069  67.552  1.00  0.00    -0.339 C  
HETATM    2  C   UNL     1     -10.869   9.376  68.881  1.00  0.00    -0.151 C  
HETATM    3  C   UNL     1      -9.875   8.318  68.490  1.00  0.00    -0.188 C  
HETATM    4  C   UNL     1     -10.703   7.597  66.906  1.00  0.00    -0.201 C  
HETATM    5  C   UNL     1     -11.483  13.394  68.420  1.00  0.00    -0.351 C  
HETATM    6  O   UNL     1      -9.907   6.620  66.225  1.00  0.00    -0.371 OA 
HETATM    7  C   UNL     1      -9.962   9.026  66.532  1.00  0.00    -0.355 C  
HETATM    8  C   UNL     1      -9.997   9.733  65.210  1.00  0.00    -0.251 C  
HETATM    9  C   UNL     1     -10.058  11.410  67.668  1.00  0.00    -0.200 C  
HETATM   10  C   UNL     1     -10.954  14.100  67.207  1.00  0.00    -0.304 C  
HETATM   11  H   UNL     1     -10.315   6.264  65.444  1.00  0.00     0.000 HD 
HETATM   12  C   UNL     1      -9.944  11.079  65.141  1.00  0.00    -0.333 C  
HETATM   13  C   UNL     1     -10.516  12.319  68.839  1.00  0.00    -0.131 C  
HETATM   14  C   UNL     1     -10.143  12.000  66.277  1.00  0.00    -0.247 C  
HETATM   15  C   UNL     1     -10.488  13.291  66.094  1.00  0.00    -0.296 C  
HETATM   16  C   UNL     1     -10.391  13.921  64.732  1.00  0.00    -0.419 C  
HETATM   17  C   UNL     1     -10.798  15.373  64.608  1.00  0.00    -0.281 C  
HETATM   18  C   UNL     1     -10.699  16.143  65.893  1.00  0.00    -0.255 C  
HETATM   19  C   UNL     1     -11.018  15.437  67.144  1.00  0.00    -0.317 C  
HETATM   20  O   UNL     1     -10.448  17.349  65.912  1.00  0.00    -0.442 OA 
ENDROOT
BRANCH   4  21
HETATM   21  C   UNL     1     -10.995   6.885  68.218  1.00  0.00    -0.208 C  
HETATM   22  C   UNL     1     -11.245   6.275  69.341  1.00  0.00    -0.489 C  
ENDBRANCH   4  21
BRANCH   7  23
HETATM   23  C   UNL     1      -8.274   8.676  66.528  1.00  0.00    -0.107 C  
HETATM   24  C   UNL     1      -7.440   8.682  65.245  1.00  0.00    -0.086 C  
ENDBRANCH   7  23
TORSDOF 2
ENDMDL
MODEL       35
REMARK 921   NORMALIZED FREE ENERGY PREDICTED BY IDOCK:   -5.66 KCAL/MOL
REMARK 922        TOTAL FREE ENERGY PREDICTED BY IDOCK:   -5.10 KCAL/MOL
REMARK 923 INTER-LIGAND FREE ENERGY PREDICTED BY IDOCK:   -6.33 KCAL/MOL
REMARK 924 INTRA-LIGAND FREE ENERGY PREDICTED BY IDOCK:    1.23 KCAL/MOL
REMARK 927      BINDING AFFINITY PREDICTED BY RF-SCORE:    0.00 PKD
ROOT
HETATM    1  C   UNL     1     -10.838   8.146  69.896  1.00  0.00    -0.215 C  
HETATM    2  C   UNL     1     -10.904   6.760  70.478  1.00  0.00    -0.301 C  
HETATM    3  C   UNL     1      -9.476   6.476  70.102  1.00  0.00    -0.164 C  
HETATM    4  C   UNL     1      -9.531   6.757  68.196  1.00  0.00    -0.120 C  
HETATM    5  C   UNL     1     -13.201   9.846  71.869  1.00  0.00    -0.558 C  
HETATM    6  O   UNL     1      -8.252   6.668  67.557  1.00  0.00    -0.120 OA 
HETATM    7  C   UNL     1      -9.478   8.220  68.962  1.00  0.00    -0.155 C  
HETATM    8  C   UNL     1      -9.565   9.572  68.317  1.00  0.00    -0.151 C  
HETATM    9  C   UNL     1     -10.899   9.218  70.954  1.00  0.00    -0.365 C  
HETATM   10  C   UNL     1     -12.824  11.264  71.556  1.00  0.00    -0.519 C  
HETATM   11  H   UNL     1      -8.278   6.806  66.617  1.00  0.00     0.000 HD 
HETATM   12  C   UNL     1     -10.128  10.613  68.962  1.00  0.00    -0.226 C  
HETATM   13  C   UNL     1     -11.956   9.026  72.074  1.00  0.00    -0.433 C  
HETATM   14  C   UNL     1     -10.960  10.515  70.178  1.00  0.00    -0.338 C  
HETATM   15  C   UNL     1     -11.819  11.493  70.532  1.00  0.00    -0.363 C  
HETATM   16  C   UNL     1     -11.748  12.845  69.878  1.00  0.00    -0.324 C  
HETATM   17  C   UNL     1     -12.746  13.889  70.330  1.00  0.00    -0.286 C  
HETATM   18  C   UNL     1     -13.282  13.657  71.714  1.00  0.00    -0.394 C  
HETATM   19  C   UNL     1     -13.486  12.267  72.149  1.00  0.00    -0.431 C  
HETATM   20  O   UNL     1     -13.628  14.588  72.442  1.00  0.00    -0.392 OA 
ENDROOT
BRANCH   4  21
HETATM   21  C   UNL     1      -9.721   5.330  68.685  1.00  0.00    -0.199 C  
HETATM   22  C   UNL     1      -9.885   4.107  69.105  1.00  0.00    -0.121 C  
ENDBRANCH   4  21
BRANCH   7  23
HETATM   23  C   UNL     1      -7.860   8.375  69.536  1.00  0.00    -0.102 C  
HETATM   24  C   UNL     1      -6.859   9.350  68.912  1.00  0.00    -0.055 C  
ENDBRANCH   7  23
TORSDOF 2
ENDMDL
MODEL       36
REMARK 921   NORMALIZED FREE ENERGY PREDICTED BY IDOCK:   -5.66 KCAL/MOL
REMARK 922        TOTAL FREE ENERGY PREDICTED BY IDOCK:   -5.10 KCAL/MOL
REMARK 923 INTER-LIGAND FREE ENERGY PREDICTED BY IDOCK:   -6.33 KCAL/MOL
REMARK 924 INTRA-LIGAND FREE ENERGY PREDICTED BY IDOCK:    1.23 KCAL/MOL
REMARK 927      BINDING AFFINITY PREDICTED BY RF-SCORE:    0.00 PKD
ROOT
HETATM    1  C   UNL     1      -9.492  16.475  67.183  1.00  0.00    -0.246 C  
HETATM    2  C   UNL     1     -10.072  17.639  66.426  1.00  0.00    -0.356 C  
HETATM    3  C   UNL     1      -8.800  18.429  66.559  1.00  0.00    -0.289 C  
HETATM    4  C   UNL     1      -8.599  18.491  68.475  1.00  0.00    -0.324 C  
HETATM    5  C   UNL     1     -11.292  13.782  65.812  1.00  0.00    -0.309 C  
HETATM    6  O   UNL     1      -7.378  19.098  68.914  1.00  0.00    -0.327 OA 
HETATM    7  C   UNL     1      -8.116  17.010  67.923  1.00  0.00    -0.196 C  
HETATM    8  C   UNL     1      -7.686  15.840  68.758  1.00  0.00    -0.177 C  
HETATM    9  C   UNL     1      -9.273  15.270  66.306  1.00  0.00    -0.350 C  
HETATM   10  C   UNL     1     -10.431  12.641  66.267  1.00  0.00    -0.270 C  
HETATM   11  H   UNL     1      -7.279  19.129  69.858  1.00  0.00     0.000 HD 
HETATM   12  C   UNL     1      -7.913  14.575  68.349  1.00  0.00    -0.141 C  
HETATM   13  C   UNL     1     -10.420  14.908  65.325  1.00  0.00    -0.427 C  
HETATM   14  C   UNL     1      -8.826  14.182  67.258  1.00  0.00    -0.227 C  
HETATM   15  C   UNL     1      -9.327  12.933  67.166  1.00  0.00    -0.229 C  
HETATM   16  C   UNL     1      -8.749  11.816  67.988  1.00  0.00    -0.167 C  
HETATM   17  C   UNL     1      -9.367  10.443  67.828  1.00  0.00    -0.155 C  
HETATM   18  C   UNL     1     -10.061  10.240  66.513  1.00  0.00    -0.231 C  
HETATM   19  C   UNL     1     -10.760  11.390  65.918  1.00  0.00    -0.311 C  
HETATM   20  O   UNL     1     -10.129   9.132  65.978  1.00  0.00    -0.284 OA 
ENDROOT
BRANCH   4  21
HETATM   21  C   UNL     1      -9.302  19.669  67.820  1.00  0.00    -0.427 C  
HETATM   22  C   UNL     1      -9.905  20.679  67.260  1.00  0.00    -0.529 C  
ENDBRANCH   4  21
BRANCH   7  23
HETATM   23  C   UNL     1      -6.594  17.283  67.160  1.00  0.00    -0.203 C  
HETATM   24  C   UNL     1      -5.312  16.582  67.616  1.00  0.00    -0.156 C  
ENDBRANCH   7  23
TORSDOF 2
ENDMDL
MODEL       37
REMARK 921   NORMALIZED FREE ENERGY PREDICTED BY IDOCK:   -5.58 KCAL/MOL
REMARK 922        TOTAL FREE ENERGY PREDICTED BY IDOCK:   -5.01 KCAL/MOL
REMARK 923 INTER-LIGAND FREE ENERGY PREDICTED BY IDOCK:   -6.35 KCAL/MOL
REMARK 924 INTRA-LIGAND FREE ENERGY PREDICTED BY IDOCK:    1.34 KCAL/MOL
REMARK 927      BINDING AFFINITY PREDICTED BY RF-SCORE:    0.00 PKD
ROOT
HETATM    1  C   UNL     1     -10.811  12.592  68.523  1.00  0.00    -0.271 C  
HETATM    2  C   UNL     1     -11.541  13.101  69.736  1.00  0.00    -0.291 C  
HETATM    3  C   UNL     1     -12.157  14.230  68.959  1.00  0.00    -0.320 C  
HETATM    4  C   UNL     1     -10.585  15.127  68.296  1.00  0.00    -0.243 C  
HETATM    5  C   UNL     1     -10.554   9.160  69.248  1.00  0.00    -0.229 C  
HETATM    6  O   UNL     1     -10.865  16.209  67.400  1.00  0.00    -0.322 OA 
HETATM    7  C   UNL     1     -10.873  13.783  67.380  1.00  0.00    -0.285 C  
HETATM    8  C   UNL     1     -10.012  13.253  66.271  1.00  0.00    -0.291 C  
HETATM    9  C   UNL     1     -11.348  11.269  68.041  1.00  0.00    -0.372 C  
HETATM   10  C   UNL     1     -10.209   8.636  67.887  1.00  0.00    -0.273 C  
HETATM   11  H   UNL     1     -10.090  16.651  67.073  1.00  0.00     0.000 HD 
HETATM   12  C   UNL     1      -9.940  11.931  66.019  1.00  0.00    -0.258 C  
HETATM   13  C   UNL     1     -11.635  10.201  69.129  1.00  0.00    -0.094 C  
HETATM   14  C   UNL     1     -10.413  10.863  66.923  1.00  0.00    -0.299 C  
HETATM   15  C   UNL     1      -9.957   9.598  66.827  1.00  0.00    -0.289 C  
HETATM   16  C   UNL     1      -9.182   9.155  65.617  1.00  0.00    -0.296 C  
HETATM   17  C   UNL     1      -8.704   7.719  65.586  1.00  0.00    -0.132 C  
HETATM   18  C   UNL     1      -9.512   6.791  66.446  1.00  0.00    -0.119 C  
HETATM   19  C   UNL     1     -10.047   7.317  67.712  1.00  0.00    -0.225 C  
HETATM   20  O   UNL     1      -9.658   5.601  66.162  1.00  0.00    -0.158 OA 
ENDROOT
BRANCH   4  21
HETATM   21  C   UNL     1     -11.178  15.652  69.594  1.00  0.00    -0.310 C  
HETATM   22  C   UNL     1     -11.686  16.101  70.706  1.00  0.00    -0.333 C  
ENDBRANCH   4  21
BRANCH   7  23
HETATM   23  C   UNL     1     -12.237  14.182  66.404  1.00  0.00    -0.473 C  
HETATM   24  C   UNL     1     -12.376  13.702  64.957  1.00  0.00    -0.462 C  
ENDBRANCH   7  23
TORSDOF 2
ENDMDL
MODEL       38
REMARK 921   NORMALIZED FREE ENERGY PREDICTED BY IDOCK:   -5.57 KCAL/MOL
REMARK 922        TOTAL FREE ENERGY PREDICTED BY IDOCK:   -5.00 KCAL/MOL
REMARK 923 INTER-LIGAND FREE ENERGY PREDICTED BY IDOCK:   -6.23 KCAL/MOL
REMARK 924 INTRA-LIGAND FREE ENERGY PREDICTED BY IDOCK:    1.24 KCAL/MOL
REMARK 927      BINDING AFFINITY PREDICTED BY RF-SCORE:    0.00 PKD
ROOT
HETATM    1  C   UNL     1      -8.487  16.314  67.867  1.00  0.00    -0.166 C  
HETATM    2  C   UNL     1      -7.731  16.094  69.150  1.00  0.00    -0.230 C  
HETATM    3  C   UNL     1      -7.900  17.530  69.559  1.00  0.00     0.492 C  
HETATM    4  C   UNL     1      -7.084  18.441  68.070  1.00  0.00    -0.231 C  
HETATM    5  C   UNL     1      -9.836  13.118  67.292  1.00  0.00    -0.232 C  
HETATM    6  O   UNL     1      -7.200  19.868  68.124  1.00  0.00    -0.283 OA 
HETATM    7  C   UNL     1      -8.602  17.947  67.643  1.00  0.00    -0.242 C  
HETATM    8  C   UNL     1      -9.237  18.073  66.289  1.00  0.00    -0.203 C  
HETATM    9  C   UNL     1      -9.819  15.611  67.857  1.00  0.00    -0.217 C  
HETATM   10  C   UNL     1     -10.884  13.462  66.275  1.00  0.00    -0.294 C  
HETATM   11  H   UNL     1      -6.798  20.317  67.389  1.00  0.00     0.000 HD 
HETATM   12  C   UNL     1     -10.126  17.158  65.852  1.00  0.00    -0.257 C  
HETATM   13  C   UNL     1      -9.837  14.152  68.385  1.00  0.00    -0.231 C  
HETATM   14  C   UNL     1     -10.355  15.832  66.459  1.00  0.00    -0.298 C  
HETATM   15  C   UNL     1     -10.924  14.823  65.769  1.00  0.00    -0.334 C  
HETATM   16  C   UNL     1     -11.618  15.089  64.462  1.00  0.00    -0.346 C  
HETATM   17  C   UNL     1     -12.231  13.903  63.747  1.00  0.00    -0.310 C  
HETATM   18  C   UNL     1     -12.569  12.756  64.655  1.00  0.00    -0.419 C  
HETATM   19  C   UNL     1     -11.676  12.494  65.794  1.00  0.00    -0.478 C  
HETATM   20  O   UNL     1     -13.507  11.994  64.418  1.00  0.00    -0.591 OA 
ENDROOT
BRANCH   4  21
HETATM   21  C   UNL     1      -6.198  18.166  69.274  1.00  0.00    -0.253 C  
HETATM   22  C   UNL     1      -5.438  17.930  70.306  1.00  0.00    -0.252 C  
ENDBRANCH   4  21
BRANCH   7  23
HETATM   23  C   UNL     1      -9.677  19.011  68.470  1.00  0.00    -0.458 C  
HETATM   24  C   UNL     1     -10.456  20.112  67.746  1.00  0.00    -0.397 C  
ENDBRANCH   7  23
TORSDOF 2
ENDMDL
MODEL       39
REMARK 921   NORMALIZED FREE ENERGY PREDICTED BY IDOCK:   -5.52 KCAL/MOL
REMARK 922        TOTAL FREE ENERGY PREDICTED BY IDOCK:   -4.94 KCAL/MOL
REMARK 923 INTER-LIGAND FREE ENERGY PREDICTED BY IDOCK:   -6.16 KCAL/MOL
REMARK 924 INTRA-LIGAND FREE ENERGY PREDICTED BY IDOCK:    1.22 KCAL/MOL
REMARK 927      BINDING AFFINITY PREDICTED BY RF-SCORE:    0.00 PKD
ROOT
HETATM    1  C   UNL     1     -10.659   8.095  69.379  1.00  0.00    -0.206 C  
HETATM    2  C   UNL     1     -10.557   7.688  70.824  1.00  0.00    -0.224 C  
HETATM    3  C   UNL     1      -9.415   6.754  70.535  1.00  0.00    -0.171 C  
HETATM    4  C   UNL     1     -10.213   5.584  69.228  1.00  0.00    -0.245 C  
HETATM    5  C   UNL     1     -11.948  11.355  69.659  1.00  0.00    -0.416 C  
HETATM    6  O   UNL     1      -9.302   4.632  68.665  1.00  0.00    -0.121 OA 
HETATM    7  C   UNL     1      -9.784   7.004  68.501  1.00  0.00    -0.141 C  
HETATM    8  C   UNL     1     -10.054   7.398  67.078  1.00  0.00    -0.328 C  
HETATM    9  C   UNL     1     -10.239   9.524  69.152  1.00  0.00    -0.209 C  
HETATM   10  C   UNL     1     -11.656  11.866  68.280  1.00  0.00    -0.390 C  
HETATM   11  H   UNL     1      -9.695   4.055  68.021  1.00  0.00     0.000 HD 
HETATM   12  C   UNL     1     -10.259   8.687  66.742  1.00  0.00    -0.361 C  
HETATM   13  C   UNL     1     -10.768  10.571  70.167  1.00  0.00    -0.232 C  
HETATM   14  C   UNL     1     -10.540   9.782  67.692  1.00  0.00    -0.333 C  
HETATM   15  C   UNL     1     -11.134  10.928  67.300  1.00  0.00    -0.350 C  
HETATM   16  C   UNL     1     -11.262  11.260  65.840  1.00  0.00    -0.096 C  
HETATM   17  C   UNL     1     -11.943  12.564  65.481  1.00  0.00    -0.500 C  
HETATM   18  C   UNL     1     -11.892  13.595  66.572  1.00  0.00    -0.404 C  
HETATM   19  C   UNL     1     -11.975  13.129  67.965  1.00  0.00    -0.345 C  
HETATM   20  O   UNL     1     -11.871  14.802  66.326  1.00  0.00    -0.319 OA 
ENDROOT
BRANCH   4  21
HETATM   21  C   UNL     1     -10.264   5.129  70.678  1.00  0.00    -0.326 C  
HETATM   22  C   UNL     1     -10.308   4.738  71.920  1.00  0.00    -0.242 C  
ENDBRANCH   4  21
BRANCH   7  23
HETATM   23  C   UNL     1      -8.066   6.949  68.373  1.00  0.00    -0.120 C  
HETATM   24  C   UNL     1      -7.348   6.870  67.023  1.00  0.00    -0.086 C  
ENDBRANCH   7  23
TORSDOF 2
ENDMDL
MODEL       40
REMARK 921   NORMALIZED FREE ENERGY PREDICTED BY IDOCK:   -5.36 KCAL/MOL
REMARK 922        TOTAL FREE ENERGY PREDICTED BY IDOCK:   -4.77 KCAL/MOL
REMARK 923 INTER-LIGAND FREE ENERGY PREDICTED BY IDOCK:   -6.00 KCAL/MOL
REMARK 924 INTRA-LIGAND FREE ENERGY PREDICTED BY IDOCK:    1.23 KCAL/MOL
REMARK 927      BINDING AFFINITY PREDICTED BY RF-SCORE:    0.00 PKD
ROOT
HETATM    1  C   UNL     1     -11.444  12.553  70.116  1.00  0.00    -0.007 C  
HETATM    2  C   UNL     1     -12.310  13.245  71.134  1.00  0.00    -0.323 C  
HETATM    3  C   UNL     1     -12.708  14.310  70.151  1.00  0.00    -0.246 C  
HETATM    4  C   UNL     1     -10.987  15.026  69.661  1.00  0.00    -0.279 C  
HETATM    5  C   UNL     1     -11.572   9.222  71.237  1.00  0.00    -0.419 C  
HETATM    6  O   UNL     1     -11.040  16.009  68.620  1.00  0.00    -0.308 OA 
HETATM    7  C   UNL     1     -11.235  13.603  68.858  1.00  0.00    -0.309 C  
HETATM    8  C   UNL     1     -10.257  12.896  67.967  1.00  0.00    -0.229 C  
HETATM    9  C   UNL     1     -12.002  11.217  69.699  1.00  0.00    -0.423 C  
HETATM   10  C   UNL     1     -11.063   8.521  70.013  1.00  0.00    -0.152 C  
HETATM   11  H   UNL     1     -10.191  16.362  68.379  1.00  0.00     0.000 HD 
HETATM   12  C   UNL     1     -10.251  11.550  67.873  1.00  0.00    -0.200 C  
HETATM   13  C   UNL     1     -12.537  10.304  70.833  1.00  0.00    -0.465 C  
HETATM   14  C   UNL     1     -10.940  10.627  68.797  1.00  0.00    -0.292 C  
HETATM   15  C   UNL     1     -10.575   9.334  68.912  1.00  0.00    -0.222 C  
HETATM   16  C   UNL     1      -9.659   8.706  67.899  1.00  0.00    -0.173 C  
HETATM   17  C   UNL     1      -9.296   7.250  68.099  1.00  0.00    -0.131 C  
HETATM   18  C   UNL     1     -10.297   6.481  68.910  1.00  0.00    -0.196 C  
HETATM   19  C   UNL     1     -10.979   7.183  70.008  1.00  0.00    -0.287 C  
HETATM   20  O   UNL     1     -10.490   5.277  68.735  1.00  0.00    -0.173 OA 
ENDROOT
BRANCH   4  21
HETATM   21  C   UNL     1     -11.732  15.734  70.781  1.00  0.00    -0.430 C  
HETATM   22  C   UNL     1     -12.369  16.341  71.742  1.00  0.00    -0.230 C  
ENDBRANCH   4  21
BRANCH   7  23
HETATM   23  C   UNL     1     -12.396  13.965  67.636  1.00  0.00    -0.069 C  
HETATM   24  C   UNL     1     -12.023  14.058  66.155  1.00  0.00    -0.440 C  
ENDBRANCH   7  23
TORSDOF 2
ENDMDL
MODEL       41
REMARK 921   NORMALIZED FREE ENERGY PREDICTED BY IDOCK:   -5.36 KCAL/MOL
REMARK 922        TOTAL FREE ENERGY PREDICTED BY IDOCK:   -4.77 KCAL/MOL
REMARK 923 INTER-LIGAND FREE ENERGY PREDICTED BY IDOCK:   -5.99 KCAL/MOL
REMARK 924 INTRA-LIGAND FREE ENERGY PREDICTED BY IDOCK:    1.23 KCAL/MOL
REMARK 927      BINDING AFFINITY PREDICTED BY RF-SCORE:    0.00 PKD
ROOT
HETATM    1  C   UNL     1     -10.606   8.573  68.262  1.00  0.00    -0.173 C  
HETATM    2  C   UNL     1     -10.468   7.363  69.147  1.00  0.00    -0.217 C  
HETATM    3  C   UNL     1      -9.286   6.860  68.365  1.00  0.00    -0.129 C  
HETATM    4  C   UNL     1     -10.042   6.717  66.598  1.00  0.00    -0.136 C  
HETATM    5  C   UNL     1     -12.044  10.897  70.476  1.00  0.00    -0.464 C  
HETATM    6  O   UNL     1      -9.094   6.361  65.585  1.00  0.00    -0.344 OA 
HETATM    7  C   UNL     1      -9.690   8.300  66.915  1.00  0.00    -0.291 C  
HETATM    8  C   UNL     1      -9.994   9.478  66.038  1.00  0.00    -0.348 C  
HETATM    9  C   UNL     1     -10.256   9.851  68.978  1.00  0.00    -0.213 C  
HETATM   10  C   UNL     1     -11.793  12.164  69.715  1.00  0.00    -0.397 C  
HETATM   11  H   UNL     1      -9.467   6.290  64.714  1.00  0.00     0.000 HD 
HETATM   12  C   UNL     1     -10.264  10.688  66.568  1.00  0.00    -0.288 C  
HETATM   13  C   UNL     1     -10.822  10.020  70.413  1.00  0.00    -0.380 C  
HETATM   14  C   UNL     1     -10.585  10.945  67.986  1.00  0.00    -0.239 C  
HETATM   15  C   UNL     1     -11.238  12.059  68.376  1.00  0.00    -0.313 C  
HETATM   16  C   UNL     1     -11.398  13.219  67.433  1.00  0.00    -0.337 C  
HETATM   17  C   UNL     1     -12.144  14.433  67.946  1.00  0.00    -0.280 C  
HETATM   18  C   UNL     1     -12.129  14.567  69.441  1.00  0.00    -0.290 C  
HETATM   19  C   UNL     1     -12.174  13.335  70.244  1.00  0.00    -0.391 C  
HETATM   20  O   UNL     1     -12.168  15.667  69.996  1.00  0.00    -0.367 OA 
ENDROOT
BRANCH   4  21
HETATM   21  C   UNL     1     -10.055   5.460  67.453  1.00  0.00    -0.223 C  
HETATM   22  C   UNL     1     -10.066   4.383  68.185  1.00  0.00     0.014 C  
ENDBRANCH   4  21
BRANCH   7  23
HETATM   23  C   UNL     1      -7.973   8.413  66.816  1.00  0.00    -0.098 C  
HETATM   24  C   UNL     1      -7.269   9.313  65.798  1.00  0.00    -0.090 C  
ENDBRANCH   7  23
TORSDOF 2
ENDMDL
MODEL       42
REMARK 921   NORMALIZED FREE ENERGY PREDICTED BY IDOCK:   -5.36 KCAL/MOL
REMARK 922        TOTAL FREE ENERGY PREDICTED BY IDOCK:   -4.77 KCAL/MOL
REMARK 923 INTER-LIGAND FREE ENERGY PREDICTED BY IDOCK:   -6.13 KCAL/MOL
REMARK 924 INTRA-LIGAND FREE ENERGY PREDICTED BY IDOCK:    1.36 KCAL/MOL
REMARK 927      BINDING AFFINITY PREDICTED BY RF-SCORE:    0.00 PKD
ROOT
HETATM    1  C   UNL     1     -10.135  11.887  66.241  1.00  0.00    -0.249 C  
HETATM    2  C   UNL     1     -10.688  12.270  67.588  1.00  0.00    -0.250 C  
HETATM    3  C   UNL     1     -11.753  13.129  66.966  1.00  0.00    -0.431 C  
HETATM    4  C   UNL     1     -10.685  14.365  65.942  1.00  0.00    -0.306 C  
HETATM    5  C   UNL     1      -8.771   8.718  66.921  1.00  0.00    -0.136 C  
HETATM    6  O   UNL     1     -11.450  15.260  65.126  1.00  0.00    -0.333 OA 
HETATM    7  C   UNL     1     -10.783  12.927  65.134  1.00  0.00    -0.326 C  
HETATM    8  C   UNL     1     -10.079  12.568  63.859  1.00  0.00    -0.308 C  
HETATM    9  C   UNL     1     -10.373  10.436  65.914  1.00  0.00    -0.261 C  
HETATM   10  C   UNL     1      -8.607   8.204  65.522  1.00  0.00    -0.173 C  
HETATM   11  H   UNL     1     -10.924  15.869  64.622  1.00  0.00     0.000 HD 
HETATM   12  C   UNL     1      -9.697  11.298  63.610  1.00  0.00    -0.351 C  
HETATM   13  C   UNL     1     -10.099   9.415  67.050  1.00  0.00    -0.304 C  
HETATM   14  C   UNL     1      -9.637  10.214  64.611  1.00  0.00    -0.379 C  
HETATM   15  C   UNL     1      -8.878   9.116  64.423  1.00  0.00    -0.156 C  
HETATM   16  C   UNL     1      -8.301   8.809  63.069  1.00  0.00    -0.175 C  
HETATM   17  C   UNL     1      -7.459   7.557  62.940  1.00  0.00    -0.107 C  
HETATM   18  C   UNL     1      -7.761   6.514  63.976  1.00  0.00    -0.105 C  
HETATM   19  C   UNL     1      -8.125   6.969  65.327  1.00  0.00    -0.134 C  
HETATM   20  O   UNL     1      -7.627   5.311  63.746  1.00  0.00    -0.063 OA 
ENDROOT
BRANCH   4  21
HETATM   21  C   UNL     1     -11.096  14.806  67.338  1.00  0.00    -0.327 C  
HETATM   22  C   UNL     1     -11.448  15.185  68.534  1.00  0.00    -0.335 C  
ENDBRANCH   4  21
BRANCH   7  23
HETATM   23  C   UNL     1     -12.386  12.868  64.502  1.00  0.00    -0.483 C  
HETATM   24  C   UNL     1     -12.738  12.085  63.235  1.00  0.00    -0.437 C  
ENDBRANCH   7  23
TORSDOF 2
ENDMDL
MODEL       43
REMARK 921   NORMALIZED FREE ENERGY PREDICTED BY IDOCK:   -5.26 KCAL/MOL
REMARK 922        TOTAL FREE ENERGY PREDICTED BY IDOCK:   -4.65 KCAL/MOL
REMARK 923 INTER-LIGAND FREE ENERGY PREDICTED BY IDOCK:   -5.91 KCAL/MOL
REMARK 924 INTRA-LIGAND FREE ENERGY PREDICTED BY IDOCK:    1.26 KCAL/MOL
REMARK 927      BINDING AFFINITY PREDICTED BY RF-SCORE:    0.00 PKD
ROOT
HETATM    1  C   UNL     1     -11.456  13.404  70.007  1.00  0.00    -0.126 C  
HETATM    2  C   UNL     1     -12.739  13.390  70.794  1.00  0.00    -0.301 C  
HETATM    3  C   UNL     1     -12.991  14.844  70.511  1.00  0.00    -0.339 C  
HETATM    4  C   UNL     1     -11.393  15.646  71.230  1.00  0.00    -0.390 C  
HETATM    5  C   UNL     1     -11.264  10.064  68.920  1.00  0.00    -0.179 C  
HETATM    6  O   UNL     1     -11.292  17.056  70.997  1.00  0.00    -0.321 OA 
HETATM    7  C   UNL     1     -11.055  14.986  69.754  1.00  0.00    -0.297 C  
HETATM    8  C   UNL     1      -9.710  14.908  69.095  1.00  0.00    -0.184 C  
HETATM    9  C   UNL     1     -11.551  12.597  68.738  1.00  0.00    -0.355 C  
HETATM   10  C   UNL     1     -10.238  10.206  67.836  1.00  0.00    -0.217 C  
HETATM   11  H   UNL     1     -10.504  17.451  71.352  1.00  0.00     0.000 HD 
HETATM   12  C   UNL     1      -9.394  13.881  68.280  1.00  0.00    -0.209 C  
HETATM   13  C   UNL     1     -12.237  11.210  68.847  1.00  0.00    -0.144 C  
HETATM   14  C   UNL     1     -10.149  12.617  68.169  1.00  0.00    -0.231 C  
HETATM   15  C   UNL     1      -9.586  11.495  67.677  1.00  0.00    -0.176 C  
HETATM   16  C   UNL     1      -8.272  11.555  66.948  1.00  0.00    -0.167 C  
HETATM   17  C   UNL     1      -7.706  10.252  66.427  1.00  0.00    -0.116 C  
HETATM   18  C   UNL     1      -8.741   9.190  66.197  1.00  0.00    -0.148 C  
HETATM   19  C   UNL     1      -9.884   9.129  67.121  1.00  0.00    -0.253 C  
HETATM   20  O   UNL     1      -8.610   8.332  65.322  1.00  0.00    -0.171 OA 
ENDROOT
BRANCH   4  21
HETATM   21  C   UNL     1     -12.602  15.580  72.150  1.00  0.00    -0.479 C  
HETATM   22  C   UNL     1     -13.637  15.523  72.939  1.00  0.00    -0.633 C  
ENDBRANCH   4  21
BRANCH   7  23
HETATM   23  C   UNL     1     -11.782  16.045  68.605  1.00  0.00    -0.273 C  
HETATM   24  C   UNL     1     -10.964  17.037  67.774  1.00  0.00    -0.199 C  
ENDBRANCH   7  23
TORSDOF 2
ENDMDL
MODEL       44
REMARK 921   NORMALIZED FREE ENERGY PREDICTED BY IDOCK:   -5.25 KCAL/MOL
REMARK 922        TOTAL FREE ENERGY PREDICTED BY IDOCK:   -4.64 KCAL/MOL
REMARK 923 INTER-LIGAND FREE ENERGY PREDICTED BY IDOCK:   -5.94 KCAL/MOL
REMARK 924 INTRA-LIGAND FREE ENERGY PREDICTED BY IDOCK:    1.30 KCAL/MOL
REMARK 927      BINDING AFFINITY PREDICTED BY RF-SCORE:    0.00 PKD
ROOT
HETATM    1  C   UNL     1      -8.198  15.848  67.099  1.00  0.00    -0.233 C  
HETATM    2  C   UNL     1      -7.209  16.481  68.040  1.00  0.00    -0.152 C  
HETATM    3  C   UNL     1      -8.148  17.613  68.351  1.00  0.00    -0.285 C  
HETATM    4  C   UNL     1      -8.450  18.340  66.592  1.00  0.00    -0.265 C  
HETATM    5  C   UNL     1      -7.316  12.452  67.337  1.00  0.00    -0.149 C  
HETATM    6  O   UNL     1      -9.424  19.390  66.554  1.00  0.00    -0.328 OA 
HETATM    7  C   UNL     1      -9.363  16.976  66.784  1.00  0.00    -0.268 C  
HETATM    8  C   UNL     1     -10.219  16.317  65.742  1.00  0.00    -0.390 C  
HETATM    9  C   UNL     1      -8.747  14.549  67.630  1.00  0.00    -0.186 C  
HETATM   10  C   UNL     1      -8.540  11.827  66.737  1.00  0.00    -0.185 C  
HETATM   11  H   UNL     1      -9.573  19.748  65.687  1.00  0.00     0.000 HD 
HETATM   12  C   UNL     1     -10.401  14.981  65.737  1.00  0.00    -0.354 C  
HETATM   13  C   UNL     1      -7.722  13.569  68.260  1.00  0.00    -0.137 C  
HETATM   14  C   UNL     1      -9.599  14.007  66.503  1.00  0.00    -0.307 C  
HETATM   15  C   UNL     1      -9.542  12.705  66.157  1.00  0.00    -0.222 C  
HETATM   16  C   UNL     1     -10.519  12.135  65.167  1.00  0.00    -0.317 C  
HETATM   17  C   UNL     1     -10.388  10.665  64.830  1.00  0.00    -0.347 C  
HETATM   18  C   UNL     1      -9.712   9.855  65.899  1.00  0.00    -0.262 C  
HETATM   19  C   UNL     1      -8.627  10.491  66.662  1.00  0.00    -0.133 C  
HETATM   20  O   UNL     1      -9.982   8.668  66.084  1.00  0.00    -0.260 OA 
ENDROOT
BRANCH   4  21
HETATM   21  C   UNL     1      -7.348  18.982  67.419  1.00  0.00    -0.245 C  
HETATM   22  C   UNL     1      -6.403  19.532  68.127  1.00  0.00    -0.261 C  
ENDBRANCH   4  21
BRANCH   7  23
HETATM   23  C   UNL     1     -10.646  17.431  67.840  1.00  0.00    -0.383 C  
HETATM   24  C   UNL     1     -11.382  16.417  68.720  1.00  0.00    -0.277 C  
ENDBRANCH   7  23
TORSDOF 2
ENDMDL
MODEL       45
REMARK 921   NORMALIZED FREE ENERGY PREDICTED BY IDOCK:   -5.22 KCAL/MOL
REMARK 922        TOTAL FREE ENERGY PREDICTED BY IDOCK:   -4.60 KCAL/MOL
REMARK 923 INTER-LIGAND FREE ENERGY PREDICTED BY IDOCK:   -5.91 KCAL/MOL
REMARK 924 INTRA-LIGAND FREE ENERGY PREDICTED BY IDOCK:    1.30 KCAL/MOL
REMARK 927      BINDING AFFINITY PREDICTED BY RF-SCORE:    0.00 PKD
ROOT
HETATM    1  C   UNL     1      -8.890  10.630  67.687  1.00  0.00    -0.131 C  
HETATM    2  C   UNL     1      -7.986  10.543  68.887  1.00  0.00    -0.128 C  
HETATM    3  C   UNL     1      -7.244   9.370  68.311  1.00  0.00    -0.077 C  
HETATM    4  C   UNL     1      -8.679   8.110  68.056  1.00  0.00    -0.128 C  
HETATM    5  C   UNL     1      -9.693  14.054  67.662  1.00  0.00    -0.228 C  
HETATM    6  O   UNL     1      -8.285   6.902  67.394  1.00  0.00    -0.117 OA 
HETATM    7  C   UNL     1      -8.709   9.225  66.837  1.00  0.00    -0.136 C  
HETATM    8  C   UNL     1      -9.737   9.336  65.750  1.00  0.00    -0.339 C  
HETATM    9  C   UNL     1      -8.638  11.867  66.865  1.00  0.00    -0.185 C  
HETATM   10  C   UNL     1     -10.235  14.179  66.269  1.00  0.00    -0.301 C  
HETATM   11  H   UNL     1      -8.993   6.281  67.269  1.00  0.00     0.000 HD 
HETATM   12  C   UNL     1     -10.063  10.534  65.222  1.00  0.00    -0.369 C  
HETATM   13  C   UNL     1      -8.458  13.195  67.647  1.00  0.00    -0.194 C  
HETATM   14  C   UNL     1      -9.717  11.845  65.804  1.00  0.00    -0.258 C  
HETATM   15  C   UNL     1     -10.397  12.966  65.486  1.00  0.00    -0.304 C  
HETATM   16  C   UNL     1     -11.333  12.983  64.310  1.00  0.00    -0.419 C  
HETATM   17  C   UNL     1     -12.060  14.278  64.019  1.00  0.00    -0.350 C  
HETATM   18  C   UNL     1     -11.363  15.497  64.550  1.00  0.00    -0.314 C  
HETATM   19  C   UNL     1     -10.642  15.377  65.827  1.00  0.00    -0.361 C  
HETATM   20  O   UNL     1     -11.454  16.593  63.994  1.00  0.00    -1.192 OA 
ENDROOT
BRANCH   4  21
HETATM   21  C   UNL     1      -7.900   8.008  69.357  1.00  0.00    -0.113 C  
HETATM   22  C   UNL     1      -7.232   7.920  70.472  1.00  0.00    -0.053 C  
ENDBRANCH   4  21
BRANCH   7  23
HETATM   23  C   UNL     1      -7.380   8.821  65.817  1.00  0.00    -0.085 C  
HETATM   24  C   UNL     1      -6.698   9.851  64.914  1.00  0.00    -0.123 C  
ENDBRANCH   7  23
TORSDOF 2
ENDMDL
MODEL       46
REMARK 921   NORMALIZED FREE ENERGY PREDICTED BY IDOCK:   -5.21 KCAL/MOL
REMARK 922        TOTAL FREE ENERGY PREDICTED BY IDOCK:   -4.60 KCAL/MOL
REMARK 923 INTER-LIGAND FREE ENERGY PREDICTED BY IDOCK:   -5.82 KCAL/MOL
REMARK 924 INTRA-LIGAND FREE ENERGY PREDICTED BY IDOCK:    1.22 KCAL/MOL
REMARK 927      BINDING AFFINITY PREDICTED BY RF-SCORE:    0.00 PKD
ROOT
HETATM    1  C   UNL     1     -10.847  10.254  70.036  1.00  0.00    -0.364 C  
HETATM    2  C   UNL     1     -11.942  11.284  70.102  1.00  0.00    -0.452 C  
HETATM    3  C   UNL     1     -11.822  11.583  68.633  1.00  0.00    -0.382 C  
HETATM    4  C   UNL     1      -9.972  12.108  68.510  1.00  0.00    -0.175 C  
HETATM    5  C   UNL     1     -11.763   8.089  72.652  1.00  0.00    -0.418 C  
HETATM    6  O   UNL     1      -9.522  12.348  67.172  1.00  0.00    -0.189 OA 
HETATM    7  C   UNL     1     -10.068  10.460  68.594  1.00  0.00    -0.188 C  
HETATM    8  C   UNL     1      -8.918   9.500  68.673  1.00  0.00    -0.132 C  
HETATM    9  C   UNL     1     -11.360   8.853  70.246  1.00  0.00    -0.179 C  
HETATM   10  C   UNL     1     -10.922   6.897  72.305  1.00  0.00    -0.275 C  
HETATM   11  H   UNL     1      -8.610  12.607  67.111  1.00  0.00     0.000 HD 
HETATM   12  C   UNL     1      -9.033   8.333  69.341  1.00  0.00    -0.147 C  
HETATM   13  C   UNL     1     -12.379   8.654  71.400  1.00  0.00    -0.344 C  
HETATM   14  C   UNL     1     -10.116   7.993  70.284  1.00  0.00    -0.192 C  
HETATM   15  C   UNL     1      -9.971   7.026  71.213  1.00  0.00    -0.196 C  
HETATM   16  C   UNL     1      -8.825   6.057  71.134  1.00  0.00    -0.139 C  
HETATM   17  C   UNL     1      -8.732   5.001  72.215  1.00  0.00    -0.128 C  
HETATM   18  C   UNL     1     -10.044   4.691  72.875  1.00  0.00    -0.159 C  
HETATM   19  C   UNL     1     -10.998   5.795  73.063  1.00  0.00    -0.314 C  
HETATM   20  O   UNL     1     -10.296   3.574  73.330  1.00  0.00    -0.137 OA 
ENDROOT
BRANCH   4  21
HETATM   21  C   UNL     1     -10.991  13.222  68.689  1.00  0.00    -0.294 C  
HETATM   22  C   UNL     1     -11.863  14.177  68.842  1.00  0.00    -0.382 C  
ENDBRANCH   4  21
BRANCH   7  23
HETATM   23  C   UNL     1     -10.644   9.958  67.049  1.00  0.00    -0.272 C  
HETATM   24  C   UNL     1      -9.784   9.143  66.080  1.00  0.00    -0.357 C  
ENDBRANCH   7  23
TORSDOF 2
ENDMDL
MODEL       47
REMARK 921   NORMALIZED FREE ENERGY PREDICTED BY IDOCK:   -5.21 KCAL/MOL
REMARK 922        TOTAL FREE ENERGY PREDICTED BY IDOCK:   -4.59 KCAL/MOL
REMARK 923 INTER-LIGAND FREE ENERGY PREDICTED BY IDOCK:   -5.90 KCAL/MOL
REMARK 924 INTRA-LIGAND FREE ENERGY PREDICTED BY IDOCK:    1.30 KCAL/MOL
REMARK 927      BINDING AFFINITY PREDICTED BY RF-SCORE:    0.00 PKD
ROOT
HETATM    1  C   UNL     1      -9.640  10.237  66.810  1.00  0.00    -0.214 C  
HETATM    2  C   UNL     1     -10.103   8.885  66.336  1.00  0.00    -0.333 C  
HETATM    3  C   UNL     1     -10.206   8.368  67.744  1.00  0.00    -0.283 C  
HETATM    4  C   UNL     1      -8.405   8.637  68.373  1.00  0.00    -0.127 C  
HETATM    5  C   UNL     1     -10.797  12.319  64.223  1.00  0.00    -0.392 C  
HETATM    6  O   UNL     1      -8.220   8.334  69.761  1.00  0.00    -0.116 OA 
HETATM    7  C   UNL     1      -9.211  10.078  68.397  1.00  0.00    -0.131 C  
HETATM    8  C   UNL     1      -8.637  11.420  68.743  1.00  0.00    -0.085 C  
HETATM    9  C   UNL     1     -10.666  11.314  66.568  1.00  0.00    -0.323 C  
HETATM   10  C   UNL     1     -10.692  13.652  64.900  1.00  0.00    -0.400 C  
HETATM   11  H   UNL     1      -7.332   8.466  70.071  1.00  0.00     0.000 HD 
HETATM   12  C   UNL     1      -9.107  12.546  68.168  1.00  0.00    -0.204 C  
HETATM   13  C   UNL     1     -11.364  11.308  65.183  1.00  0.00     0.013 C  
HETATM   14  C   UNL     1      -9.973  12.596  66.974  1.00  0.00    -0.220 C  
HETATM   15  C   UNL     1     -10.069  13.705  66.212  1.00  0.00    -0.301 C  
HETATM   16  C   UNL     1      -9.538  15.021  66.709  1.00  0.00    -0.260 C  
HETATM   17  C   UNL     1      -9.683  16.218  65.794  1.00  0.00    -0.299 C  
HETATM   18  C   UNL     1     -10.799  16.090  64.799  1.00  0.00    -0.294 C  
HETATM   19  C   UNL     1     -11.078  14.756  64.245  1.00  0.00     0.039 C  
HETATM   20  O   UNL     1     -11.414  17.072  64.381  1.00  0.00    -1.048 OA 
ENDROOT
BRANCH   4  21
HETATM   21  C   UNL     1      -8.737   7.265  67.808  1.00  0.00    -0.126 C  
HETATM   22  C   UNL     1      -9.022   6.089  67.325  1.00  0.00    -0.109 C  
ENDBRANCH   4  21
BRANCH   7  23
HETATM   23  C   UNL     1     -10.294   9.971  69.734  1.00  0.00    -0.290 C  
HETATM   24  C   UNL     1     -11.597  10.772  69.798  1.00  0.00    -0.393 C  
ENDBRANCH   7  23
TORSDOF 2
ENDMDL
MODEL       48
REMARK 921   NORMALIZED FREE ENERGY PREDICTED BY IDOCK:   -5.17 KCAL/MOL
REMARK 922        TOTAL FREE ENERGY PREDICTED BY IDOCK:   -4.56 KCAL/MOL
REMARK 923 INTER-LIGAND FREE ENERGY PREDICTED BY IDOCK:   -6.07 KCAL/MOL
REMARK 924 INTRA-LIGAND FREE ENERGY PREDICTED BY IDOCK:    1.52 KCAL/MOL
REMARK 927      BINDING AFFINITY PREDICTED BY RF-SCORE:    0.00 PKD
ROOT
HETATM    1  C   UNL     1      -9.277  10.981  67.878  1.00  0.00    -0.155 C  
HETATM    2  C   UNL     1      -8.411  11.293  66.687  1.00  0.00    -0.163 C  
HETATM    3  C   UNL     1      -8.603   9.914  66.120  1.00  0.00    -0.138 C  
HETATM    4  C   UNL     1      -7.947   8.822  67.566  1.00  0.00    -0.102 C  
HETATM    5  C   UNL     1     -10.542  14.164  68.675  1.00  0.00    -0.253 C  
HETATM    6  O   UNL     1      -8.115   7.414  67.356  1.00  0.00    -0.110 OA 
HETATM    7  C   UNL     1      -9.474   9.342  67.923  1.00  0.00    -0.150 C  
HETATM    8  C   UNL     1     -10.221   9.112  69.204  1.00  0.00    -0.215 C  
HETATM    9  C   UNL     1     -10.577  11.743  67.859  1.00  0.00    -0.231 C  
HETATM   10  C   UNL     1     -11.681  13.771  69.568  1.00  0.00    -0.380 C  
HETATM   11  H   UNL     1      -7.791   6.876  68.068  1.00  0.00     0.000 HD 
HETATM   12  C   UNL     1     -11.106  10.019  69.664  1.00  0.00    -0.300 C  
HETATM   13  C   UNL     1     -10.494  13.246  67.484  1.00  0.00    -0.237 C  
HETATM   14  C   UNL     1     -11.233  11.408  69.181  1.00  0.00    -0.335 C  
HETATM   15  C   UNL     1     -11.816  12.370  69.926  1.00  0.00    -0.376 C  
HETATM   16  C   UNL     1     -12.624  12.008  71.141  1.00  0.00    -0.372 C  
HETATM   17  C   UNL     1     -13.245  13.144  71.925  1.00  0.00    -0.526 C  
HETATM   18  C   UNL     1     -13.463  14.391  71.118  1.00  0.00    -0.306 C  
HETATM   19  C   UNL     1     -12.471  14.723  70.083  1.00  0.00    -0.359 C  
HETATM   20  O   UNL     1     -14.387  15.169  71.359  1.00  0.00    -0.489 OA 
ENDROOT
BRANCH   4  21
HETATM   21  C   UNL     1      -6.956   9.173  66.467  1.00  0.00    -0.080 C  
HETATM   22  C   UNL     1      -6.107   9.475  65.527  1.00  0.00    -0.065 C  
ENDBRANCH   4  21
BRANCH   7  23
HETATM   23  C   UNL     1     -10.519   8.418  66.911  1.00  0.00    -0.359 C  
HETATM   24  C   UNL     1     -10.996   7.014  67.291  1.00  0.00    -0.372 C  
ENDBRANCH   7  23
TORSDOF 2
ENDMDL
MODEL       49
REMARK 921   NORMALIZED FREE ENERGY PREDICTED BY IDOCK:   -5.10 KCAL/MOL
REMARK 922        TOTAL FREE ENERGY PREDICTED BY IDOCK:   -4.47 KCAL/MOL
REMARK 923 INTER-LIGAND FREE ENERGY PREDICTED BY IDOCK:   -5.82 KCAL/MOL
REMARK 924 INTRA-LIGAND FREE ENERGY PREDICTED BY IDOCK:    1.35 KCAL/MOL
REMARK 927      BINDING AFFINITY PREDICTED BY RF-SCORE:    0.00 PKD
ROOT
HETATM    1  C   UNL     1     -10.828   7.574  70.393  1.00  0.00    -0.255 C  
HETATM    2  C   UNL     1     -10.738   9.029  70.023  1.00  0.00    -0.247 C  
HETATM    3  C   UNL     1     -10.987   9.460  71.442  1.00  0.00    -0.443 C  
HETATM    4  C   UNL     1     -12.689   8.627  71.791  1.00  0.00    -0.359 C  
HETATM    5  C   UNL     1      -8.755   6.105  67.961  1.00  0.00    -0.113 C  
HETATM    6  O   UNL     1     -13.141   8.769  73.144  1.00  0.00    -0.794 OA 
HETATM    7  C   UNL     1     -11.492   7.493  71.903  1.00  0.00    -0.307 C  
HETATM    8  C   UNL     1     -11.672   6.021  72.132  1.00  0.00    -0.335 C  
HETATM    9  C   UNL     1      -9.500   6.870  70.283  1.00  0.00    -0.162 C  
HETATM   10  C   UNL     1      -8.540   4.759  68.587  1.00  0.00    -0.101 C  
HETATM   11  H   UNL     1     -13.980   8.359  73.316  1.00  0.00     0.000 HD 
HETATM   12  C   UNL     1     -10.809   5.127  71.608  1.00  0.00    -0.124 C  
HETATM   13  C   UNL     1      -8.657   7.173  69.016  1.00  0.00    -0.129 C  
HETATM   14  C   UNL     1      -9.817   5.415  70.554  1.00  0.00    -0.267 C  
HETATM   15  C   UNL     1      -9.287   4.438  69.791  1.00  0.00    -0.224 C  
HETATM   16  C   UNL     1      -9.454   2.994  70.175  1.00  0.00    -0.206 C  
HETATM   17  C   UNL     1      -8.830   1.957  69.266  1.00  0.00    -0.132 C  
HETATM   18  C   UNL     1      -7.683   2.477  68.449  1.00  0.00    -0.054 C  
HETATM   19  C   UNL     1      -7.752   3.867  67.972  1.00  0.00    -0.066 C  
HETATM   20  O   UNL     1      -6.748   1.752  68.105  1.00  0.00    -0.031 OA 
ENDROOT
BRANCH   4  21
HETATM   21  C   UNL     1     -12.717  10.069  71.312  1.00  0.00    -0.500 C  
HETATM   22  C   UNL     1     -12.741  11.306  70.901  1.00  0.00    -0.412 C  
ENDBRANCH   4  21
BRANCH   7  23
HETATM   23  C   UNL     1     -10.683   7.830  73.387  1.00  0.00    -0.225 C  
HETATM   24  C   UNL     1      -9.171   7.659  73.552  1.00  0.00    -0.331 C  
ENDBRANCH   7  23
TORSDOF 2
ENDMDL
MODEL       50
REMARK 921   NORMALIZED FREE ENERGY PREDICTED BY IDOCK:   -5.05 KCAL/MOL
REMARK 922        TOTAL FREE ENERGY PREDICTED BY IDOCK:   -4.42 KCAL/MOL
REMARK 923 INTER-LIGAND FREE ENERGY PREDICTED BY IDOCK:   -5.75 KCAL/MOL
REMARK 924 INTRA-LIGAND FREE ENERGY PREDICTED BY IDOCK:    1.33 KCAL/MOL
REMARK 927      BINDING AFFINITY PREDICTED BY RF-SCORE:    0.00 PKD
ROOT
HETATM    1  C   UNL     1     -10.567  11.730  65.343  1.00  0.00    -0.325 C  
HETATM    2  C   UNL     1     -10.327  12.855  64.373  1.00  0.00    -0.393 C  
HETATM    3  C   UNL     1     -10.485  13.890  65.451  1.00  0.00    -0.357 C  
HETATM    4  C   UNL     1     -12.258  13.492  66.092  1.00  0.00    -0.433 C  
HETATM    5  C   UNL     1      -8.742   9.119  63.853  1.00  0.00    -0.154 C  
HETATM    6  O   UNL     1     -12.653  14.264  67.233  1.00  0.00    -0.544 OA 
HETATM    7  C   UNL     1     -11.193  12.396  66.718  1.00  0.00    -0.363 C  
HETATM    8  C   UNL     1     -11.529  11.205  67.567  1.00  0.00    -0.296 C  
HETATM    9  C   UNL     1      -9.329  10.905  65.584  1.00  0.00    -0.236 C  
HETATM   10  C   UNL     1      -8.659   8.171  65.011  1.00  0.00    -0.076 C  
HETATM   11  H   UNL     1     -13.527  14.068  67.549  1.00  0.00     0.000 HD 
HETATM   12  C   UNL     1     -10.786  10.081  67.510  1.00  0.00    -0.339 C  
HETATM   13  C   UNL     1      -8.495  10.524  64.333  1.00  0.00    -0.130 C  
HETATM   14  C   UNL     1      -9.798   9.763  66.460  1.00  0.00    -0.286 C  
HETATM   15  C   UNL     1      -9.402   8.497  66.216  1.00  0.00    -0.287 C  
HETATM   16  C   UNL     1      -9.718   7.398  67.191  1.00  0.00    -0.223 C  
HETATM   17  C   UNL     1      -9.240   6.004  66.846  1.00  0.00    -0.131 C  
HETATM   18  C   UNL     1      -8.066   5.979  65.911  1.00  0.00    -0.119 C  
HETATM   19  C   UNL     1      -7.993   7.016  64.869  1.00  0.00    -0.127 C  
HETATM   20  O   UNL     1      -7.227   5.077  65.942  1.00  0.00    -0.073 OA 
ENDROOT
BRANCH   4  21
HETATM   21  C   UNL     1     -12.140  14.571  65.027  1.00  0.00    -0.390 C  
HETATM   22  C   UNL     1     -12.037  15.494  64.114  1.00  0.00    -0.058 C  
ENDBRANCH   4  21
BRANCH   7  23
HETATM   23  C   UNL     1     -10.308  13.257  67.922  1.00  0.00    -0.239 C  
HETATM   24  C   UNL     1      -8.839  12.958  68.228  1.00  0.00    -0.168 C  
ENDBRANCH   7  23
TORSDOF 2
ENDMDL
MODEL       51
REMARK 921   NORMALIZED FREE ENERGY PREDICTED BY IDOCK:   -4.95 KCAL/MOL
REMARK 922        TOTAL FREE ENERGY PREDICTED BY IDOCK:   -4.31 KCAL/MOL
REMARK 923 INTER-LIGAND FREE ENERGY PREDICTED BY IDOCK:   -5.53 KCAL/MOL
REMARK 924 INTRA-LIGAND FREE ENERGY PREDICTED BY IDOCK:    1.22 KCAL/MOL
REMARK 927      BINDING AFFINITY PREDICTED BY RF-SCORE:    0.00 PKD
ROOT
HETATM    1  C   UNL     1      -9.763  13.781  67.976  1.00  0.00    -0.232 C  
HETATM    2  C   UNL     1      -8.926  15.008  68.219  1.00  0.00    -0.174 C  
HETATM    3  C   UNL     1      -9.863  15.500  69.287  1.00  0.00    -0.270 C  
HETATM    4  C   UNL     1     -11.520  15.606  68.309  1.00  0.00    -0.350 C  
HETATM    5  C   UNL     1      -7.341  11.494  66.848  1.00  0.00    -0.140 C  
HETATM    6  O   UNL     1     -12.653  15.947  69.117  1.00  0.00    -0.455 OA 
HETATM    7  C   UNL     1     -11.222  14.031  68.709  1.00  0.00    -0.298 C  
HETATM    8  C   UNL     1     -12.031  12.835  68.301  1.00  0.00    -0.276 C  
HETATM    9  C   UNL     1      -9.075  12.517  68.422  1.00  0.00    -0.135 C  
HETATM   10  C   UNL     1      -8.104  10.213  67.006  1.00  0.00    -0.117 C  
HETATM   11  H   UNL     1     -13.470  15.999  68.635  1.00  0.00     0.000 HD 
HETATM   12  C   UNL     1     -11.448  11.635  68.109  1.00  0.00    -0.382 C  
HETATM   13  C   UNL     1      -7.577  12.374  68.046  1.00  0.00    -0.128 C  
HETATM   14  C   UNL     1      -9.996  11.403  67.974  1.00  0.00    -0.192 C  
HETATM   15  C   UNL     1      -9.505  10.295  67.384  1.00  0.00    -0.174 C  
HETATM   16  C   UNL     1     -10.397   9.117  67.110  1.00  0.00    -0.337 C  
HETATM   17  C   UNL     1      -9.771   7.910  66.444  1.00  0.00    -0.235 C  
HETATM   18  C   UNL     1      -8.288   7.804  66.651  1.00  0.00    -0.126 C  
HETATM   19  C   UNL     1      -7.509   9.052  66.703  1.00  0.00    -0.086 C  
HETATM   20  O   UNL     1      -7.713   6.716  66.690  1.00  0.00    -0.098 OA 
ENDROOT
BRANCH   4  21
HETATM   21  C   UNL     1     -10.694  16.879  68.399  1.00  0.00    -0.368 C  
HETATM   22  C   UNL     1      -9.985  17.970  68.476  1.00  0.00    -0.395 C  
ENDBRANCH   4  21
BRANCH   7  23
HETATM   23  C   UNL     1     -11.539  13.922  70.400  1.00  0.00    -0.177 C  
HETATM   24  C   UNL     1     -12.653  13.039  70.968  1.00  0.00    -0.386 C  
ENDBRANCH   7  23
TORSDOF 2
ENDMDL
MODEL       52
REMARK 921   NORMALIZED FREE ENERGY PREDICTED BY IDOCK:   -4.93 KCAL/MOL
REMARK 922        TOTAL FREE ENERGY PREDICTED BY IDOCK:   -4.29 KCAL/MOL
REMARK 923 INTER-LIGAND FREE ENERGY PREDICTED BY IDOCK:   -5.58 KCAL/MOL
REMARK 924 INTRA-LIGAND FREE ENERGY PREDICTED BY IDOCK:    1.30 KCAL/MOL
REMARK 927      BINDING AFFINITY PREDICTED BY RF-SCORE:    0.00 PKD
ROOT
HETATM    1  C   UNL     1      -8.944  13.068  67.128  1.00  0.00    -0.223 C  
HETATM    2  C   UNL     1      -7.991  14.120  67.629  1.00  0.00    -0.187 C  
HETATM    3  C   UNL     1      -9.075  15.160  67.670  1.00  0.00    -0.181 C  
HETATM    4  C   UNL     1      -9.670  15.151  65.837  1.00  0.00    -0.350 C  
HETATM    5  C   UNL     1      -7.471  10.132  68.385  1.00  0.00    -0.086 C  
HETATM    6  O   UNL     1     -10.809  15.984  65.589  1.00  0.00    -0.327 OA 
HETATM    7  C   UNL     1     -10.311  13.848  66.625  1.00  0.00    -0.278 C  
HETATM    8  C   UNL     1     -11.139  12.753  66.019  1.00  0.00    -0.315 C  
HETATM    9  C   UNL     1      -9.206  11.995  68.152  1.00  0.00    -0.195 C  
HETATM   10  C   UNL     1      -8.622   9.183  68.232  1.00  0.00    -0.129 C  
HETATM   11  H   UNL     1     -11.102  15.980  64.686  1.00  0.00     0.000 HD 
HETATM   12  C   UNL     1     -11.088  11.495  66.504  1.00  0.00    -0.341 C  
HETATM   13  C   UNL     1      -7.971  11.449  68.916  1.00  0.00    -0.085 C  
HETATM   14  C   UNL     1     -10.059  10.977  67.426  1.00  0.00    -0.216 C  
HETATM   15  C   UNL     1      -9.812   9.656  67.546  1.00  0.00    -0.213 C  
HETATM   16  C   UNL     1     -10.769   8.646  66.976  1.00  0.00    -0.190 C  
HETATM   17  C   UNL     1     -10.421   7.184  67.151  1.00  0.00    -0.389 C  
HETATM   18  C   UNL     1      -9.514   6.911  68.316  1.00  0.00    -0.126 C  
HETATM   19  C   UNL     1      -8.485   7.913  68.636  1.00  0.00    -0.128 C  
HETATM   20  O   UNL     1      -9.556   5.849  68.939  1.00  0.00    -0.127 OA 
ENDROOT
BRANCH   4  21
HETATM   21  C   UNL     1      -8.619  16.183  66.212  1.00  0.00    -0.373 C  
HETATM   22  C   UNL     1      -7.717  17.067  66.533  1.00  0.00    -0.327 C  
ENDBRANCH   4  21
BRANCH   7  23
HETATM   23  C   UNL     1     -11.543  14.492  67.644  1.00  0.00    -0.402 C  
HETATM   24  C   UNL     1     -12.030  13.766  68.900  1.00  0.00    -0.394 C  
ENDBRANCH   7  23
TORSDOF 2
ENDMDL
MODEL       53
REMARK 921   NORMALIZED FREE ENERGY PREDICTED BY IDOCK:   -4.91 KCAL/MOL
REMARK 922        TOTAL FREE ENERGY PREDICTED BY IDOCK:   -4.26 KCAL/MOL
REMARK 923 INTER-LIGAND FREE ENERGY PREDICTED BY IDOCK:   -5.57 KCAL/MOL
REMARK 924 INTRA-LIGAND FREE ENERGY PREDICTED BY IDOCK:    1.31 KCAL/MOL
REMARK 927      BINDING AFFINITY PREDICTED BY RF-SCORE:    0.00 PKD
ROOT
HETATM    1  C   UNL     1      -9.944   5.698  70.393  1.00  0.00    -0.267 C  
HETATM    2  C   UNL     1     -10.140   4.300  70.913  1.00  0.00    -0.161 C  
HETATM    3  C   UNL     1      -8.659   4.047  70.947  1.00  0.00    -0.108 C  
HETATM    4  C   UNL     1      -8.184   4.364  69.107  1.00  0.00    -0.071 C  
HETATM    5  C   UNL     1     -12.800   7.320  71.650  1.00  0.00    -0.415 C  
HETATM    6  O   UNL     1      -6.776   4.309  68.849  1.00  0.00    -0.044 OA 
HETATM    7  C   UNL     1      -8.379   5.813  69.878  1.00  0.00    -0.119 C  
HETATM    8  C   UNL     1      -8.311   7.175  69.254  1.00  0.00    -0.133 C  
HETATM    9  C   UNL     1     -10.321   6.747  71.406  1.00  0.00    -0.223 C  
HETATM   10  C   UNL     1     -12.381   8.749  71.476  1.00  0.00    -0.380 C  
HETATM   11  H   UNL     1      -6.542   4.466  67.942  1.00  0.00     0.000 HD 
HETATM   12  C   UNL     1      -9.055   8.195  69.730  1.00  0.00    -0.148 C  
HETATM   13  C   UNL     1     -11.644   6.517  72.183  1.00  0.00    -0.349 C  
HETATM   14  C   UNL     1     -10.191   8.059  70.663  1.00  0.00    -0.205 C  
HETATM   15  C   UNL     1     -11.134   9.016  70.777  1.00  0.00    -0.328 C  
HETATM   16  C   UNL     1     -10.913  10.381  70.189  1.00  0.00    -0.365 C  
HETATM   17  C   UNL     1     -12.020  11.399  70.359  1.00  0.00    -0.465 C  
HETATM   18  C   UNL     1     -12.915  11.131  71.533  1.00  0.00    -0.437 C  
HETATM   19  C   UNL     1     -13.203   9.729  71.874  1.00  0.00    -0.545 C  
HETATM   20  O   UNL     1     -13.471  12.042  72.149  1.00  0.00    -0.476 OA 
ENDROOT
BRANCH   4  21
HETATM   21  C   UNL     1      -8.474   2.925  69.502  1.00  0.00    -0.101 C  
HETATM   22  C   UNL     1      -8.721   1.692  69.841  1.00  0.00    -0.104 C  
ENDBRANCH   4  21
BRANCH   7  23
HETATM   23  C   UNL     1      -6.989   5.983  70.884  1.00  0.00    -0.067 C  
HETATM   24  C   UNL     1      -6.807   7.168  71.835  1.00  0.00    -0.059 C  
ENDBRANCH   7  23
TORSDOF 2
ENDMDL
MODEL       54
REMARK 921   NORMALIZED FREE ENERGY PREDICTED BY IDOCK:   -4.89 KCAL/MOL
REMARK 922        TOTAL FREE ENERGY PREDICTED BY IDOCK:   -4.24 KCAL/MOL
REMARK 923 INTER-LIGAND FREE ENERGY PREDICTED BY IDOCK:   -5.46 KCAL/MOL
REMARK 924 INTRA-LIGAND FREE ENERGY PREDICTED BY IDOCK:    1.22 KCAL/MOL
REMARK 927      BINDING AFFINITY PREDICTED BY RF-SCORE:    0.00 PKD
ROOT
HETATM    1  C   UNL     1      -9.362  12.020  67.733  1.00  0.00    -0.190 C  
HETATM    2  C   UNL     1      -8.625  11.115  68.683  1.00  0.00    -0.151 C  
HETATM    3  C   UNL     1      -8.493  10.040  67.640  1.00  0.00    -0.114 C  
HETATM    4  C   UNL     1     -10.341   9.722  67.195  1.00  0.00    -0.248 C  
HETATM    5  C   UNL     1      -8.502  15.193  68.983  1.00  0.00    -0.214 C  
HETATM    6  O   UNL     1     -10.530   8.802  66.114  1.00  0.00    -0.274 OA 
HETATM    7  C   UNL     1      -9.828  11.100  66.443  1.00  0.00    -0.248 C  
HETATM    8  C   UNL     1     -10.666  12.038  65.624  1.00  0.00    -0.313 C  
HETATM    9  C   UNL     1      -8.551  13.231  67.347  1.00  0.00    -0.204 C  
HETATM   10  C   UNL     1      -8.894  16.045  67.812  1.00  0.00    -0.177 C  
HETATM   11  H   UNL     1     -11.441   8.645  65.895  1.00  0.00     0.000 HD 
HETATM   12  C   UNL     1     -10.393  13.359  65.586  1.00  0.00    -0.295 C  
HETATM   13  C   UNL     1      -7.799  13.956  68.493  1.00  0.00    -0.139 C  
HETATM   14  C   UNL     1      -9.496  14.072  66.516  1.00  0.00    -0.295 C  
HETATM   15  C   UNL     1      -9.578  15.405  66.701  1.00  0.00    -0.276 C  
HETATM   16  C   UNL     1     -10.376  16.259  65.755  1.00  0.00    -0.393 C  
HETATM   17  C   UNL     1     -10.420  17.747  66.030  1.00  0.00    -0.286 C  
HETATM   18  C   UNL     1      -9.253  18.251  66.828  1.00  0.00    -0.288 C  
HETATM   19  C   UNL     1      -8.696  17.369  67.866  1.00  0.00    -0.237 C  
HETATM   20  O   UNL     1      -8.818  19.396  66.695  1.00  0.00    -0.306 OA 
ENDROOT
BRANCH   4  21
HETATM   21  C   UNL     1      -9.724   8.820  68.253  1.00  0.00    -0.175 C  
HETATM   22  C   UNL     1      -9.196   8.046  69.159  1.00  0.00    -0.151 C  
ENDBRANCH   4  21
BRANCH   7  23
HETATM   23  C   UNL     1      -8.810  10.566  65.158  1.00  0.00    -0.206 C  
HETATM   24  C   UNL     1      -9.222  10.676  63.688  1.00  0.00    -0.283 C  
ENDBRANCH   7  23
TORSDOF 2
ENDMDL
MODEL       55
REMARK 921   NORMALIZED FREE ENERGY PREDICTED BY IDOCK:   -4.85 KCAL/MOL
REMARK 922        TOTAL FREE ENERGY PREDICTED BY IDOCK:   -4.19 KCAL/MOL
REMARK 923 INTER-LIGAND FREE ENERGY PREDICTED BY IDOCK:   -5.43 KCAL/MOL
REMARK 924 INTRA-LIGAND FREE ENERGY PREDICTED BY IDOCK:    1.24 KCAL/MOL
REMARK 927      BINDING AFFINITY PREDICTED BY RF-SCORE:    0.00 PKD
ROOT
HETATM    1  C   UNL     1     -11.414  13.399  69.035  1.00  0.00    -0.348 C  
HETATM    2  C   UNL     1     -11.662  12.720  70.355  1.00  0.00    -0.097 C  
HETATM    3  C   UNL     1     -10.982  11.461  69.895  1.00  0.00    -0.030 C  
HETATM    4  C   UNL     1     -12.029  11.019  68.339  1.00  0.00    -0.086 C  
HETATM    5  C   UNL     1     -11.267  16.777  70.003  1.00  0.00     0.140 C  
HETATM    6  O   UNL     1     -11.532   9.896  67.601  1.00  0.00    -0.520 OA 
HETATM    7  C   UNL     1     -10.970  12.228  67.959  1.00  0.00    -0.265 C  
HETATM    8  C   UNL     1     -10.881  12.963  66.654  1.00  0.00    -0.288 C  
HETATM    9  C   UNL     1     -10.418  14.524  69.145  1.00  0.00    -0.224 C  
HETATM   10  C   UNL     1     -10.628  17.366  68.781  1.00  0.00    -0.283 C  
HETATM   11  H   UNL     1     -12.048   9.678  66.834  1.00  0.00     0.000 HD 
HETATM   12  C   UNL     1     -10.494  14.255  66.609  1.00  0.00    -0.278 C  
HETATM   13  C   UNL     1     -10.585  15.482  70.354  1.00  0.00    -0.294 C  
HETATM   14  C   UNL     1     -10.409  15.160  67.772  1.00  0.00    -0.243 C  
HETATM   15  C   UNL     1     -10.426  16.501  67.631  1.00  0.00    -0.305 C  
HETATM   16  C   UNL     1     -10.231  17.129  66.279  1.00  0.00    -0.340 C  
HETATM   17  C   UNL     1     -10.265  18.641  66.203  1.00  0.00    -0.450 C  
HETATM   18  C   UNL     1      -9.924  19.321  67.497  1.00  0.00    -0.365 C  
HETATM   19  C   UNL     1     -10.358  18.678  68.748  1.00  0.00    -0.203 C  
HETATM   20  O   UNL     1      -9.378  20.425  67.528  1.00  0.00    -0.372 OA 
ENDROOT
BRANCH   4  21
HETATM   21  C   UNL     1     -12.436  10.362  69.648  1.00  0.00     0.022 C  
HETATM   22  C   UNL     1     -12.785   9.799  70.770  1.00  0.00    -0.251 C  
ENDBRANCH   4  21
BRANCH   7  23
HETATM   23  C   UNL     1      -9.425  11.468  67.867  1.00  0.00    -0.178 C  
HETATM   24  C   UNL     1      -8.724  11.196  66.534  1.00  0.00    -0.174 C  
ENDBRANCH   7  23
TORSDOF 2
ENDMDL
MODEL       56
REMARK 921   NORMALIZED FREE ENERGY PREDICTED BY IDOCK:   -4.84 KCAL/MOL
REMARK 922        TOTAL FREE ENERGY PREDICTED BY IDOCK:   -4.19 KCAL/MOL
REMARK 923 INTER-LIGAND FREE ENERGY PREDICTED BY IDOCK:   -5.48 KCAL/MOL
REMARK 924 INTRA-LIGAND FREE ENERGY PREDICTED BY IDOCK:    1.29 KCAL/MOL
REMARK 927      BINDING AFFINITY PREDICTED BY RF-SCORE:    0.00 PKD
ROOT
HETATM    1  C   UNL     1      -9.551  14.283  66.267  1.00  0.00    -0.310 C  
HETATM    2  C   UNL     1      -9.567  15.432  67.238  1.00  0.00    -0.213 C  
HETATM    3  C   UNL     1     -10.882  15.932  66.706  1.00  0.00    -0.228 C  
HETATM    4  C   UNL     1     -10.451  16.207  64.848  1.00  0.00    -0.044 C  
HETATM    5  C   UNL     1      -7.679  11.893  68.044  1.00  0.00    -0.132 C  
HETATM    6  O   UNL     1     -11.572  16.584  64.039  1.00  0.00    -1.490 OA 
HETATM    7  C   UNL     1     -10.695  14.596  65.119  1.00  0.00    -0.430 C  
HETATM    8  C   UNL     1     -10.515  13.484  64.128  1.00  0.00    -0.104 C  
HETATM    9  C   UNL     1      -9.732  12.951  66.949  1.00  0.00    -0.240 C  
HETATM   10  C   UNL     1      -8.022  10.663  67.258  1.00  0.00    -0.116 C  
HETATM   11  H   UNL     1     -11.360  16.720  63.124  1.00  0.00     0.000 HD 
HETATM   12  C   UNL     1     -10.121  12.257  64.525  1.00  0.00    -0.280 C  
HETATM   13  C   UNL     1      -8.918  12.722  68.250  1.00  0.00    -0.175 C  
HETATM   14  C   UNL     1      -9.549  11.931  65.846  1.00  0.00    -0.248 C  
HETATM   15  C   UNL     1      -8.806  10.823  66.045  1.00  0.00    -0.192 C  
HETATM   16  C   UNL     1      -8.778   9.728  65.016  1.00  0.00    -0.198 C  
HETATM   17  C   UNL     1      -7.919   8.517  65.313  1.00  0.00    -0.120 C  
HETATM   18  C   UNL     1      -7.668   8.295  66.776  1.00  0.00    -0.094 C  
HETATM   19  C   UNL     1      -7.519   9.480  67.637  1.00  0.00    -0.091 C  
HETATM   20  O   UNL     1      -7.500   7.168  67.244  1.00  0.00    -0.094 OA 
ENDROOT
BRANCH   4  21
HETATM   21  C   UNL     1     -10.326  17.412  65.768  1.00  0.00    -0.226 C  
HETATM   22  C   UNL     1     -10.219  18.445  66.554  1.00  0.00    -0.423 C  
ENDBRANCH   4  21
BRANCH   7  23
HETATM   23  C   UNL     1     -12.399  14.420  65.311  1.00  0.00    -0.372 C  
HETATM   24  C   UNL     1     -13.028  13.177  65.947  1.00  0.00     0.339 C  
ENDBRANCH   7  23
TORSDOF 2
ENDMDL
MODEL       57
REMARK 921   NORMALIZED FREE ENERGY PREDICTED BY IDOCK:   -4.82 KCAL/MOL
REMARK 922        TOTAL FREE ENERGY PREDICTED BY IDOCK:   -4.17 KCAL/MOL
REMARK 923 INTER-LIGAND FREE ENERGY PREDICTED BY IDOCK:   -5.39 KCAL/MOL
REMARK 924 INTRA-LIGAND FREE ENERGY PREDICTED BY IDOCK:    1.22 KCAL/MOL
REMARK 927      BINDING AFFINITY PREDICTED BY RF-SCORE:    0.00 PKD
ROOT
HETATM    1  C   UNL     1     -11.632  10.937  69.735  1.00  0.00    -0.399 C  
HETATM    2  C   UNL     1     -12.393  10.634  70.997  1.00  0.00    -0.507 C  
HETATM    3  C   UNL     1     -11.421   9.557  71.389  1.00  0.00    -0.462 C  
HETATM    4  C   UNL     1     -11.525   8.388  69.861  1.00  0.00     0.178 C  
HETATM    5  C   UNL     1     -12.404  14.334  69.253  1.00  0.00    -0.197 C  
HETATM    6  O   UNL     1     -10.595   7.298  69.895  1.00  0.00    -0.220 OA 
HETATM    7  C   UNL     1     -10.579   9.690  69.488  1.00  0.00    -0.247 C  
HETATM    8  C   UNL     1      -9.969  10.001  68.153  1.00  0.00    -0.176 C  
HETATM    9  C   UNL     1     -10.965  12.288  69.776  1.00  0.00     0.214 C  
HETATM   10  C   UNL     1     -11.338  14.701  68.263  1.00  0.00    -0.317 C  
HETATM   11  H   UNL     1     -10.646   6.721  69.142  1.00  0.00     0.000 HD 
HETATM   12  C   UNL     1      -9.779  11.276  67.757  1.00  0.00    -0.184 C  
HETATM   13  C   UNL     1     -11.814  13.463  70.329  1.00  0.00    -0.316 C  
HETATM   14  C   UNL     1     -10.380  12.466  68.393  1.00  0.00    -0.236 C  
HETATM   15  C   UNL     1     -10.500  13.638  67.736  1.00  0.00    -0.241 C  
HETATM   16  C   UNL     1      -9.762  13.869  66.447  1.00  0.00    -0.309 C  
HETATM   17  C   UNL     1      -9.949  15.210  65.771  1.00  0.00    -0.375 C  
HETATM   18  C   UNL     1     -10.362  16.309  66.706  1.00  0.00    -0.296 C  
HETATM   19  C   UNL     1     -11.256  15.964  67.822  1.00  0.00    -0.258 C  
HETATM   20  O   UNL     1     -10.045  17.484  66.511  1.00  0.00    -0.304 OA 
ENDROOT
BRANCH   4  21
HETATM   21  C   UNL     1     -12.422   8.054  71.042  1.00  0.00    -0.125 C  
HETATM   22  C   UNL     1     -13.190   7.768  72.055  1.00  0.00    -0.228 C  
ENDBRANCH   4  21
BRANCH   7  23
HETATM   23  C   UNL     1      -9.097   9.431  70.330  1.00  0.00    -0.302 C  
HETATM   24  C   UNL     1      -7.778   9.159  69.602  1.00  0.00    -0.082 C  
ENDBRANCH   7  23
TORSDOF 2
ENDMDL
MODEL       58
REMARK 921   NORMALIZED FREE ENERGY PREDICTED BY IDOCK:   -4.79 KCAL/MOL
REMARK 922        TOTAL FREE ENERGY PREDICTED BY IDOCK:   -4.12 KCAL/MOL
REMARK 923 INTER-LIGAND FREE ENERGY PREDICTED BY IDOCK:   -5.34 KCAL/MOL
REMARK 924 INTRA-LIGAND FREE ENERGY PREDICTED BY IDOCK:    1.22 KCAL/MOL
REMARK 927      BINDING AFFINITY PREDICTED BY RF-SCORE:    0.00 PKD
ROOT
HETATM    1  C   UNL     1     -10.755   7.258  69.296  1.00  0.00    -0.212 C  
HETATM    2  C   UNL     1     -10.580   5.884  69.883  1.00  0.00    -0.370 C  
HETATM    3  C   UNL     1      -9.273   5.686  69.168  1.00  0.00    -0.136 C  
HETATM    4  C   UNL     1      -9.813   5.921  67.333  1.00  0.00    -0.131 C  
HETATM    5  C   UNL     1     -12.672   8.842  71.782  1.00  0.00    -0.421 C  
HETATM    6  O   UNL     1      -8.727   5.903  66.398  1.00  0.00    -0.122 OA 
HETATM    7  C   UNL     1      -9.674   7.401  68.055  1.00  0.00    -0.161 C  
HETATM    8  C   UNL     1     -10.010   8.730  67.446  1.00  0.00    -0.267 C  
HETATM    9  C   UNL     1     -10.628   8.346  70.331  1.00  0.00    -0.236 C  
HETATM   10  C   UNL     1     -12.482  10.274  71.380  1.00  0.00    -0.528 C  
HETATM   11  H   UNL     1      -8.993   6.019  65.494  1.00  0.00     0.000 HD 
HETATM   12  C   UNL     1     -10.468   9.746  68.205  1.00  0.00    -0.258 C  
HETATM   13  C   UNL     1     -11.362   8.110  71.678  1.00  0.00    -0.315 C  
HETATM   14  C   UNL     1     -10.967   9.620  69.588  1.00  0.00    -0.253 C  
HETATM   15  C   UNL     1     -11.777  10.547  70.139  1.00  0.00    -0.410 C  
HETATM   16  C   UNL     1     -11.962  11.886  69.481  1.00  0.00    -0.355 C  
HETATM   17  C   UNL     1     -12.888  12.872  70.160  1.00  0.00     0.309 C  
HETATM   18  C   UNL     1     -13.050  12.635  71.634  1.00  0.00    -0.323 C  
HETATM   19  C   UNL     1     -13.046  11.244  72.113  1.00  0.00    -0.272 C  
HETATM   20  O   UNL     1     -13.271  13.557  72.420  1.00  0.00    -0.465 OA 
ENDROOT
BRANCH   4  21
HETATM   21  C   UNL     1      -9.779   4.496  67.861  1.00  0.00    -0.195 C  
HETATM   22  C   UNL     1      -9.751   3.274  68.313  1.00  0.00    -0.017 C  
ENDBRANCH   4  21
BRANCH   7  23
HETATM   23  C   UNL     1      -7.979   7.674  68.212  1.00  0.00    -0.123 C  
HETATM   24  C   UNL     1      -7.255   8.786  67.450  1.00  0.00    -0.080 C  
ENDBRANCH   7  23
TORSDOF 2
ENDMDL
MODEL       59
REMARK 921   NORMALIZED FREE ENERGY PREDICTED BY IDOCK:   -4.77 KCAL/MOL
REMARK 922        TOTAL FREE ENERGY PREDICTED BY IDOCK:   -4.11 KCAL/MOL
REMARK 923 INTER-LIGAND FREE ENERGY PREDICTED BY IDOCK:   -5.36 KCAL/MOL
REMARK 924 INTRA-LIGAND FREE ENERGY PREDICTED BY IDOCK:    1.25 KCAL/MOL
REMARK 927      BINDING AFFINITY PREDICTED BY RF-SCORE:    0.00 PKD
ROOT
HETATM    1  C   UNL     1      -9.696   8.712  67.918  1.00  0.00    -0.192 C  
HETATM    2  C   UNL     1     -10.091   8.357  66.510  1.00  0.00    -0.317 C  
HETATM    3  C   UNL     1      -8.775   8.834  65.963  1.00  0.00    -0.193 C  
HETATM    4  C   UNL     1      -8.765  10.666  66.560  1.00  0.00    -0.146 C  
HETATM    5  C   UNL     1     -11.576   6.395  69.779  1.00  0.00    -0.397 C  
HETATM    6  O   UNL     1      -7.547  11.365  66.278  1.00  0.00    -0.324 OA 
HETATM    7  C   UNL     1      -8.360   9.679  67.821  1.00  0.00    -0.121 C  
HETATM    8  C   UNL     1      -8.122  10.096  69.243  1.00  0.00    -0.149 C  
HETATM    9  C   UNL     1      -9.495   7.495  68.784  1.00  0.00    -0.148 C  
HETATM   10  C   UNL     1     -10.870   6.493  71.099  1.00  0.00    -0.296 C  
HETATM   11  H   UNL     1      -7.542  12.268  66.572  1.00  0.00     0.000 HD 
HETATM   12  C   UNL     1      -8.417   9.269  70.267  1.00  0.00    -0.224 C  
HETATM   13  C   UNL     1     -10.564   6.377  68.666  1.00  0.00    -0.300 C  
HETATM   14  C   UNL     1      -9.245   8.051  70.169  1.00  0.00    -0.152 C  
HETATM   15  C   UNL     1      -9.842   7.509  71.250  1.00  0.00    -0.188 C  
HETATM   16  C   UNL     1      -9.450   7.941  72.635  1.00  0.00    -0.284 C  
HETATM   17  C   UNL     1     -10.167   7.286  73.796  1.00  0.00    -0.370 C  
HETATM   18  C   UNL     1     -10.739   5.936  73.473  1.00  0.00    -0.259 C  
HETATM   19  C   UNL     1     -11.270   5.720  72.118  1.00  0.00    -0.327 C  
HETATM   20  O   UNL     1     -10.850   5.055  74.326  1.00  0.00    -0.320 OA 
ENDROOT
BRANCH   4  21
HETATM   21  C   UNL     1      -9.292  10.404  65.158  1.00  0.00    -0.271 C  
HETATM   22  C   UNL     1      -9.743  10.180  63.956  1.00  0.00    -0.273 C  
ENDBRANCH   4  21
BRANCH   7  23
HETATM   23  C   UNL     1      -6.751   9.156  67.492  1.00  0.00    -0.069 C  
HETATM   24  C   UNL     1      -5.614   9.321  68.503  1.00  0.00    -0.041 C  
ENDBRANCH   7  23
TORSDOF 2
ENDMDL
MODEL       60
REMARK 921   NORMALIZED FREE ENERGY PREDICTED BY IDOCK:   -4.77 KCAL/MOL
REMARK 922        TOTAL FREE ENERGY PREDICTED BY IDOCK:   -4.10 KCAL/MOL
REMARK 923 INTER-LIGAND FREE ENERGY PREDICTED BY IDOCK:   -5.33 KCAL/MOL
REMARK 924 INTRA-LIGAND FREE ENERGY PREDICTED BY IDOCK:    1.23 KCAL/MOL
REMARK 927      BINDING AFFINITY PREDICTED BY RF-SCORE:    0.00 PKD
ROOT
HETATM    1  C   UNL     1      -9.979  11.969  67.293  1.00  0.00    -0.205 C  
HETATM    2  C   UNL     1      -9.225  12.969  66.458  1.00  0.00    -0.187 C  
HETATM    3  C   UNL     1      -9.952  14.124  67.089  1.00  0.00    -0.255 C  
HETATM    4  C   UNL     1     -11.783  13.675  66.688  1.00  0.00    -0.388 C  
HETATM    5  C   UNL     1      -7.657   9.336  67.501  1.00  0.00    -0.088 C  
HETATM    6  O   UNL     1     -12.743  14.559  67.279  1.00  0.00    -0.376 OA 
HETATM    7  C   UNL     1     -11.263  12.762  67.964  1.00  0.00    -0.310 C  
HETATM    8  C   UNL     1     -12.029  11.673  68.656  1.00  0.00    -0.311 C  
HETATM    9  C   UNL     1      -9.099  11.286  68.308  1.00  0.00    -0.173 C  
HETATM   10  C   UNL     1      -8.248   8.562  68.641  1.00  0.00    -0.122 C  
HETATM   11  H   UNL     1     -13.645  14.338  67.082  1.00  0.00     0.000 HD 
HETATM   12  C   UNL     1     -11.393  10.615  69.198  1.00  0.00    -0.338 C  
HETATM   13  C   UNL     1      -7.709  10.808  67.809  1.00  0.00    -0.104 C  
HETATM   14  C   UNL     1      -9.989  10.239  68.940  1.00  0.00    -0.209 C  
HETATM   15  C   UNL     1      -9.537   8.988  69.160  1.00  0.00    -0.161 C  
HETATM   16  C   UNL     1     -10.356   8.008  69.953  1.00  0.00    -0.221 C  
HETATM   17  C   UNL     1      -9.780   6.623  70.155  1.00  0.00    -0.174 C  
HETATM   18  C   UNL     1      -8.284   6.567  70.048  1.00  0.00    -0.130 C  
HETATM   19  C   UNL     1      -7.629   7.456  69.076  1.00  0.00    -0.102 C  
HETATM   20  O   UNL     1      -7.616   5.747  70.681  1.00  0.00    -0.086 OA 
ENDROOT
BRANCH   4  21
HETATM   21  C   UNL     1     -11.076  14.606  65.716  1.00  0.00    -0.331 C  
HETATM   22  C   UNL     1     -10.471  15.404  64.882  1.00  0.00    -0.323 C  
ENDBRANCH   4  21
BRANCH   7  23
HETATM   23  C   UNL     1     -11.199  13.846  69.303  1.00  0.00    -0.296 C  
HETATM   24  C   UNL     1     -12.193  13.771  70.465  1.00  0.00    -0.440 C  
ENDBRANCH   7  23
TORSDOF 2
ENDMDL
MODEL       61
REMARK 921   NORMALIZED FREE ENERGY PREDICTED BY IDOCK:   -4.73 KCAL/MOL
REMARK 922        TOTAL FREE ENERGY PREDICTED BY IDOCK:   -4.06 KCAL/MOL
REMARK 923 INTER-LIGAND FREE ENERGY PREDICTED BY IDOCK:   -5.31 KCAL/MOL
REMARK 924 INTRA-LIGAND FREE ENERGY PREDICTED BY IDOCK:    1.25 KCAL/MOL
REMARK 927      BINDING AFFINITY PREDICTED BY RF-SCORE:    0.00 PKD
ROOT
HETATM    1  C   UNL     1      -9.933   6.725  68.702  1.00  0.00    -0.147 C  
HETATM    2  C   UNL     1     -10.613   8.036  68.415  1.00  0.00    -0.150 C  
HETATM    3  C   UNL     1     -10.766   7.699  66.958  1.00  0.00    -0.340 C  
HETATM    4  C   UNL     1      -8.932   7.399  66.450  1.00  0.00    -0.163 C  
HETATM    5  C   UNL     1     -10.804   6.207  72.070  1.00  0.00    -0.292 C  
HETATM    6  O   UNL     1      -8.767   6.936  65.105  1.00  0.00    -0.348 OA 
HETATM    7  C   UNL     1      -9.501   6.070  67.249  1.00  0.00    -0.119 C  
HETATM    8  C   UNL     1      -8.715   4.850  67.631  1.00  0.00    -0.103 C  
HETATM    9  C   UNL     1     -10.782   5.809  69.545  1.00  0.00    -0.408 C  
HETATM   10  C   UNL     1     -10.476   4.750  72.198  1.00  0.00    -0.243 C  
HETATM   11  H   UNL     1      -7.862   6.789  64.854  1.00  0.00     0.000 HD 
HETATM   12  C   UNL     1      -9.014   4.153  68.745  1.00  0.00    -0.160 C  
HETATM   13  C   UNL     1     -11.502   6.453  70.759  1.00  0.00    -0.415 C  
HETATM   14  C   UNL     1      -9.887   4.624  69.838  1.00  0.00    -0.296 C  
HETATM   15  C   UNL     1      -9.824   4.095  71.077  1.00  0.00    -0.247 C  
HETATM   16  C   UNL     1      -9.082   2.810  71.321  1.00  0.00    -0.179 C  
HETATM   17  C   UNL     1      -9.056   2.282  72.740  1.00  0.00    -0.100 C  
HETATM   18  C   UNL     1     -10.200   2.759  73.586  1.00  0.00    -0.118 C  
HETATM   19  C   UNL     1     -10.698   4.126  73.364  1.00  0.00    -0.303 C  
HETATM   20  O   UNL     1     -10.662   2.077  74.502  1.00  0.00    -0.136 OA 
ENDROOT
BRANCH   4  21
HETATM   21  C   UNL     1      -9.488   8.796  66.221  1.00  0.00    -0.300 C  
HETATM   22  C   UNL     1      -9.965   9.992  66.025  1.00  0.00    -0.334 C  
ENDBRANCH   4  21
BRANCH   7  23
HETATM   23  C   UNL     1     -10.558   5.287  66.134  1.00  0.00    -0.251 C  
HETATM   24  C   UNL     1     -10.159   4.013  65.385  1.00  0.00    -0.157 C  
ENDBRANCH   7  23
TORSDOF 2
ENDMDL
MODEL       62
REMARK 921   NORMALIZED FREE ENERGY PREDICTED BY IDOCK:   -4.67 KCAL/MOL
REMARK 922        TOTAL FREE ENERGY PREDICTED BY IDOCK:   -4.00 KCAL/MOL
REMARK 923 INTER-LIGAND FREE ENERGY PREDICTED BY IDOCK:   -5.23 KCAL/MOL
REMARK 924 INTRA-LIGAND FREE ENERGY PREDICTED BY IDOCK:    1.23 KCAL/MOL
REMARK 927      BINDING AFFINITY PREDICTED BY RF-SCORE:    0.00 PKD
ROOT
HETATM    1  C   UNL     1     -11.148   8.214  69.473  1.00  0.00     0.040 C  
HETATM    2  C   UNL     1     -11.592   9.416  70.262  1.00  0.00    -0.181 C  
HETATM    3  C   UNL     1     -11.470   8.673  71.563  1.00  0.00    -0.363 C  
HETATM    4  C   UNL     1     -12.661   7.190  71.258  1.00  0.00    -0.366 C  
HETATM    5  C   UNL     1      -9.668   9.729  66.664  1.00  0.00    -0.257 C  
HETATM    6  O   UNL     1     -12.666   6.219  72.312  1.00  0.00    -0.537 OA 
HETATM    7  C   UNL     1     -11.230   6.909  70.481  1.00  0.00    -0.353 C  
HETATM    8  C   UNL     1     -10.910   5.749  69.586  1.00  0.00    -0.418 C  
HETATM    9  C   UNL     1      -9.790   8.406  68.848  1.00  0.00    -0.184 C  
HETATM   10  C   UNL     1      -8.896   8.563  66.122  1.00  0.00    -0.200 C  
HETATM   11  H   UNL     1     -13.253   5.488  72.162  1.00  0.00     0.000 HD 
HETATM   12  C   UNL     1     -10.055   5.886  68.552  1.00  0.00    -0.210 C  
HETATM   13  C   UNL     1      -9.529   9.773  68.162  1.00  0.00    -0.146 C  
HETATM   14  C   UNL     1      -9.585   7.171  67.998  1.00  0.00    -0.140 C  
HETATM   15  C   UNL     1      -9.086   7.266  66.748  1.00  0.00    -0.172 C  
HETATM   16  C   UNL     1      -8.711   6.030  65.980  1.00  0.00    -0.154 C  
HETATM   17  C   UNL     1      -8.159   6.220  64.583  1.00  0.00    -0.115 C  
HETATM   18  C   UNL     1      -7.535   7.566  64.356  1.00  0.00    -0.096 C  
HETATM   19  C   UNL     1      -8.139   8.728  65.028  1.00  0.00    -0.144 C  
HETATM   20  O   UNL     1      -6.603   7.727  63.567  1.00  0.00    -0.061 OA 
ENDROOT
BRANCH   4  21
HETATM   21  C   UNL     1     -13.244   8.403  71.966  1.00  0.00    -0.372 C  
HETATM   22  C   UNL     1     -13.743   9.442  72.572  1.00  0.00    -0.419 C  
ENDBRANCH   4  21
BRANCH   7  23
HETATM   23  C   UNL     1     -10.105   6.518  71.728  1.00  0.00    -0.202 C  
HETATM   24  C   UNL     1      -9.336   5.195  71.749  1.00  0.00    -0.179 C  
ENDBRANCH   7  23
TORSDOF 2
ENDMDL
MODEL       63
REMARK 921   NORMALIZED FREE ENERGY PREDICTED BY IDOCK:   -4.56 KCAL/MOL
REMARK 922        TOTAL FREE ENERGY PREDICTED BY IDOCK:   -3.87 KCAL/MOL
REMARK 923 INTER-LIGAND FREE ENERGY PREDICTED BY IDOCK:   -5.09 KCAL/MOL
REMARK 924 INTRA-LIGAND FREE ENERGY PREDICTED BY IDOCK:    1.22 KCAL/MOL
REMARK 927      BINDING AFFINITY PREDICTED BY RF-SCORE:    0.00 PKD
ROOT
HETATM    1  C   UNL     1      -8.769   9.372  67.159  1.00  0.00    -0.134 C  
HETATM    2  C   UNL     1      -8.613  10.251  65.947  1.00  0.00    -0.160 C  
HETATM    3  C   UNL     1      -8.244   9.080  65.079  1.00  0.00    -0.154 C  
HETATM    4  C   UNL     1      -6.704   8.396  66.014  1.00  0.00    -0.061 C  
HETATM    5  C   UNL     1     -11.151  11.167  69.023  1.00  0.00    -0.299 C  
HETATM    6  O   UNL     1      -6.187   7.175  65.470  1.00  0.00    -0.036 OA 
HETATM    7  C   UNL     1      -8.076   7.917  66.799  1.00  0.00    -0.108 C  
HETATM    8  C   UNL     1      -8.150   7.161  68.093  1.00  0.00    -0.124 C  
HETATM    9  C   UNL     1     -10.203   9.261  67.608  1.00  0.00    -0.285 C  
HETATM   10  C   UNL     1     -11.578  10.101  69.987  1.00  0.00    -0.323 C  
HETATM   11  H   UNL     1      -5.428   6.838  65.931  1.00  0.00     0.000 HD 
HETATM   12  C   UNL     1      -9.175   7.350  68.950  1.00  0.00    -0.142 C  
HETATM   13  C   UNL     1     -11.022  10.578  67.644  1.00  0.00    -0.375 C  
HETATM   14  C   UNL     1     -10.137   8.468  68.895  1.00  0.00    -0.213 C  
HETATM   15  C   UNL     1     -10.857   8.839  69.974  1.00  0.00    -0.231 C  
HETATM   16  C   UNL     1     -10.933   7.950  71.183  1.00  0.00    -0.262 C  
HETATM   17  C   UNL     1     -11.761   8.437  72.353  1.00  0.00    -0.452 C  
HETATM   18  C   UNL     1     -12.827   9.423  71.973  1.00  0.00    -0.414 C  
HETATM   19  C   UNL     1     -12.531  10.373  70.888  1.00  0.00    -0.478 C  
HETATM   20  O   UNL     1     -13.886   9.510  72.596  1.00  0.00    -0.370 OA 
ENDROOT
BRANCH   4  21
HETATM   21  C   UNL     1      -6.439   9.367  64.875  1.00  0.00    -0.078 C  
HETATM   22  C   UNL     1      -6.212  10.199  63.898  1.00  0.00    -0.133 C  
ENDBRANCH   4  21
BRANCH   7  23
HETATM   23  C   UNL     1      -8.762   6.685  65.807  1.00  0.00    -0.126 C  
HETATM   24  C   UNL     1      -8.923   5.241  66.289  1.00  0.00    -0.133 C  
ENDBRANCH   7  23
TORSDOF 2
ENDMDL
MODEL       64
REMARK 921   NORMALIZED FREE ENERGY PREDICTED BY IDOCK:   -4.55 KCAL/MOL
REMARK 922        TOTAL FREE ENERGY PREDICTED BY IDOCK:   -3.86 KCAL/MOL
REMARK 923 INTER-LIGAND FREE ENERGY PREDICTED BY IDOCK:   -5.17 KCAL/MOL
REMARK 924 INTRA-LIGAND FREE ENERGY PREDICTED BY IDOCK:    1.32 KCAL/MOL
REMARK 927      BINDING AFFINITY PREDICTED BY RF-SCORE:    0.00 PKD
ROOT
HETATM    1  C   UNL     1      -8.748  10.400  69.694  1.00  0.00    -0.056 C  
HETATM    2  C   UNL     1      -7.449   9.676  69.927  1.00  0.00    -0.127 C  
HETATM    3  C   UNL     1      -8.133   8.338  69.927  1.00  0.00    -0.117 C  
HETATM    4  C   UNL     1      -9.410   8.571  71.351  1.00  0.00    -0.211 C  
HETATM    5  C   UNL     1      -7.651  13.275  67.991  1.00  0.00    -0.145 C  
HETATM    6  O   UNL     1     -10.311   7.469  71.514  1.00  0.00    -0.196 OA 
HETATM    7  C   UNL     1      -9.967   9.325  69.990  1.00  0.00    -0.238 C  
HETATM    8  C   UNL     1     -11.209  10.158  69.872  1.00  0.00    -0.343 C  
HETATM    9  C   UNL     1      -8.819  11.027  68.325  1.00  0.00    -0.144 C  
HETATM   10  C   UNL     1      -8.956  13.752  67.427  1.00  0.00    -0.224 C  
HETATM   11  H   UNL     1     -10.940   7.584  72.216  1.00  0.00     0.000 HD 
HETATM   12  C   UNL     1     -11.271  11.193  69.010  1.00  0.00    -0.318 C  
HETATM   13  C   UNL     1      -7.553  11.781  67.842  1.00  0.00    -0.121 C  
HETATM   14  C   UNL     1     -10.114  11.810  68.333  1.00  0.00    -0.201 C  
HETATM   15  C   UNL     1     -10.168  13.061  67.830  1.00  0.00    -0.228 C  
HETATM   16  C   UNL     1     -11.488  13.762  67.670  1.00  0.00    -0.354 C  
HETATM   17  C   UNL     1     -11.466  15.164  67.099  1.00  0.00    -0.254 C  
HETATM   18  C   UNL     1     -10.257  15.457  66.259  1.00  0.00    -0.290 C  
HETATM   19  C   UNL     1      -8.977  14.849  66.657  1.00  0.00    -0.301 C  
HETATM   20  O   UNL     1     -10.296  16.249  65.316  1.00  0.00    -0.552 OA 
ENDROOT
BRANCH   4  21
HETATM   21  C   UNL     1      -8.082   7.931  71.719  1.00  0.00    -0.127 C  
HETATM   22  C   UNL     1      -6.943   7.383  72.035  1.00  0.00    -0.062 C  
ENDBRANCH   4  21
BRANCH   7  23
HETATM   23  C   UNL     1     -10.476   8.055  68.942  1.00  0.00    -0.207 C  
HETATM   24  C   UNL     1     -10.417   8.178  67.417  1.00  0.00    -0.356 C  
ENDBRANCH   7  23
TORSDOF 2
ENDMDL
MODEL       65
REMARK 921   NORMALIZED FREE ENERGY PREDICTED BY IDOCK:   -4.46 KCAL/MOL
REMARK 922        TOTAL FREE ENERGY PREDICTED BY IDOCK:   -3.76 KCAL/MOL
REMARK 923 INTER-LIGAND FREE ENERGY PREDICTED BY IDOCK:   -5.06 KCAL/MOL
REMARK 924 INTRA-LIGAND FREE ENERGY PREDICTED BY IDOCK:    1.30 KCAL/MOL
REMARK 927      BINDING AFFINITY PREDICTED BY RF-SCORE:    0.00 PKD
ROOT
HETATM    1  C   UNL     1      -9.149  13.066  67.087  1.00  0.00    -0.225 C  
HETATM    2  C   UNL     1      -8.786  14.153  68.062  1.00  0.00    -0.177 C  
HETATM    3  C   UNL     1     -10.170  14.164  68.647  1.00  0.00    -0.238 C  
HETATM    4  C   UNL     1     -11.232  14.545  67.085  1.00  0.00    -0.333 C  
HETATM    5  C   UNL     1      -6.042  11.488  66.609  1.00  0.00    -0.126 C  
HETATM    6  O   UNL     1     -12.645  14.503  67.316  1.00  0.00    -0.508 OA 
HETATM    7  C   UNL     1     -10.796  12.952  67.073  1.00  0.00    -0.282 C  
HETATM    8  C   UNL     1     -11.072  11.956  65.986  1.00  0.00    -0.369 C  
HETATM    9  C   UNL     1      -8.458  11.763  67.395  1.00  0.00    -0.158 C  
HETATM   10  C   UNL     1      -6.500  10.204  65.984  1.00  0.00    -0.100 C  
HETATM   11  H   UNL     1     -13.169  14.691  66.546  1.00  0.00     0.000 HD 
HETATM   12  C   UNL     1     -10.216  10.944  65.737  1.00  0.00    -0.318 C  
HETATM   13  C   UNL     1      -6.951  11.845  67.754  1.00  0.00    -0.102 C  
HETATM   14  C   UNL     1      -8.833  10.852  66.246  1.00  0.00    -0.187 C  
HETATM   15  C   UNL     1      -7.908  10.070  65.654  1.00  0.00    -0.138 C  
HETATM   16  C   UNL     1      -8.318   9.036  64.642  1.00  0.00    -0.180 C  
HETATM   17  C   UNL     1      -7.221   8.198  64.021  1.00  0.00    -0.091 C  
HETATM   18  C   UNL     1      -5.984   8.096  64.866  1.00  0.00    -0.045 C  
HETATM   19  C   UNL     1      -5.595   9.271  65.661  1.00  0.00    -0.045 C  
HETATM   20  O   UNL     1      -5.258   7.101  64.838  1.00  0.00    -0.027 OA 
ENDROOT
BRANCH   4  21
HETATM   21  C   UNL     1     -10.823  15.732  67.942  1.00  0.00    -0.314 C  
HETATM   22  C   UNL     1     -10.473  16.750  68.677  1.00  0.00    -0.333 C  
ENDBRANCH   4  21
BRANCH   7  23
HETATM   23  C   UNL     1     -11.771  12.204  68.283  1.00  0.00    -0.401 C  
HETATM   24  C   UNL     1     -11.496  10.789  68.798  1.00  0.00    -0.364 C  
ENDBRANCH   7  23
TORSDOF 2
ENDMDL
MODEL       66
REMARK 921   NORMALIZED FREE ENERGY PREDICTED BY IDOCK:   -4.43 KCAL/MOL
REMARK 922        TOTAL FREE ENERGY PREDICTED BY IDOCK:   -3.73 KCAL/MOL
REMARK 923 INTER-LIGAND FREE ENERGY PREDICTED BY IDOCK:   -5.03 KCAL/MOL
REMARK 924 INTRA-LIGAND FREE ENERGY PREDICTED BY IDOCK:    1.30 KCAL/MOL
REMARK 927      BINDING AFFINITY PREDICTED BY RF-SCORE:    0.00 PKD
ROOT
HETATM    1  C   UNL     1      -9.941   9.093  66.324  1.00  0.00    -0.352 C  
HETATM    2  C   UNL     1      -9.190   9.125  65.020  1.00  0.00    -0.180 C  
HETATM    3  C   UNL     1      -9.049  10.620  65.076  1.00  0.00    -0.229 C  
HETATM    4  C   UNL     1     -10.895  11.165  65.172  1.00  0.00    -0.159 C  
HETATM    5  C   UNL     1      -9.113   5.896  67.532  1.00  0.00    -0.106 C  
HETATM    6  O   UNL     1     -11.079  12.574  65.356  1.00  0.00    -0.287 OA 
HETATM    7  C   UNL     1     -10.402  10.643  66.660  1.00  0.00    -0.297 C  
HETATM    8  C   UNL     1     -11.254  10.500  67.886  1.00  0.00    -0.358 C  
HETATM    9  C   UNL     1      -9.146   8.449  67.430  1.00  0.00    -0.152 C  
HETATM   10  C   UNL     1      -9.520   6.051  68.967  1.00  0.00    -0.143 C  
HETATM   11  H   UNL     1     -11.989  12.842  65.403  1.00  0.00     0.000 HD 
HETATM   12  C   UNL     1     -10.997   9.545  68.802  1.00  0.00    -0.116 C  
HETATM   13  C   UNL     1      -8.398   7.138  67.073  1.00  0.00    -0.118 C  
HETATM   14  C   UNL     1     -10.104   8.387  68.600  1.00  0.00    -0.210 C  
HETATM   15  C   UNL     1     -10.201   7.274  69.356  1.00  0.00    -0.193 C  
HETATM   16  C   UNL     1     -11.012   7.279  70.621  1.00  0.00    -0.278 C  
HETATM   17  C   UNL     1     -11.072   5.990  71.413  1.00  0.00    -0.336 C  
HETATM   18  C   UNL     1      -9.908   5.075  71.171  1.00  0.00    -0.187 C  
HETATM   19  C   UNL     1      -9.337   5.031  69.816  1.00  0.00    -0.191 C  
HETATM   20  O   UNL     1      -9.487   4.312  72.043  1.00  0.00    -0.124 OA 
ENDROOT
BRANCH   4  21
HETATM   21  C   UNL     1     -10.264  11.122  63.790  1.00  0.00    -0.434 C  
HETATM   22  C   UNL     1      -9.722  11.086  62.605  1.00  0.00    -0.241 C  
ENDBRANCH   4  21
BRANCH   7  23
HETATM   23  C   UNL     1      -9.384  11.895  67.266  1.00  0.00    -0.177 C  
HETATM   24  C   UNL     1      -8.430  11.677  68.443  1.00  0.00    -0.157 C  
ENDBRANCH   7  23
TORSDOF 2
ENDMDL
MODEL       67
REMARK 921   NORMALIZED FREE ENERGY PREDICTED BY IDOCK:   -4.39 KCAL/MOL
REMARK 922        TOTAL FREE ENERGY PREDICTED BY IDOCK:   -3.68 KCAL/MOL
REMARK 923 INTER-LIGAND FREE ENERGY PREDICTED BY IDOCK:   -4.98 KCAL/MOL
REMARK 924 INTRA-LIGAND FREE ENERGY PREDICTED BY IDOCK:    1.30 KCAL/MOL
REMARK 927      BINDING AFFINITY PREDICTED BY RF-SCORE:    0.00 PKD
ROOT
HETATM    1  C   UNL     1      -7.559  16.495  67.898  1.00  0.00    -0.162 C  
HETATM    2  C   UNL     1      -7.002  17.790  68.425  1.00  0.00    -0.228 C  
HETATM    3  C   UNL     1      -8.315  18.495  68.233  1.00  0.00    -0.344 C  
HETATM    4  C   UNL     1      -8.606  18.234  66.346  1.00  0.00    -0.242 C  
HETATM    5  C   UNL     1      -5.572  14.137  69.590  1.00  0.00    -0.097 C  
HETATM    6  O   UNL     1      -9.874  18.712  65.880  1.00  0.00    -0.510 OA 
HETATM    7  C   UNL     1      -8.992  16.846  67.156  1.00  0.00    -0.219 C  
HETATM    8  C   UNL     1      -9.403  15.539  66.546  1.00  0.00    -0.311 C  
HETATM    9  C   UNL     1      -7.680  15.442  68.970  1.00  0.00    -0.186 C  
HETATM   10  C   UNL     1      -6.396  12.904  69.372  1.00  0.00    -0.109 C  
HETATM   11  H   UNL     1     -10.017  18.583  64.950  1.00  0.00     0.000 HD 
HETATM   12  C   UNL     1      -9.097  14.368  67.141  1.00  0.00    -0.238 C  
HETATM   13  C   UNL     1      -6.473  15.293  69.933  1.00  0.00    -0.162 C  
HETATM   14  C   UNL     1      -8.117  14.196  68.231  1.00  0.00    -0.146 C  
HETATM   15  C   UNL     1      -7.553  13.000  68.498  1.00  0.00    -0.121 C  
HETATM   16  C   UNL     1      -8.115  11.741  67.900  1.00  0.00    -0.144 C  
HETATM   17  C   UNL     1      -7.425  10.439  68.246  1.00  0.00    -0.090 C  
HETATM   18  C   UNL     1      -6.662  10.482  69.538  1.00  0.00    -0.089 C  
HETATM   19  C   UNL     1      -5.992  11.741  69.901  1.00  0.00    -0.146 C  
HETATM   20  O   UNL     1      -6.516   9.481  70.242  1.00  0.00    -0.053 OA 
ENDROOT
BRANCH   4  21
HETATM   21  C   UNL     1      -7.931  19.531  66.763  1.00  0.00    -0.307 C  
HETATM   22  C   UNL     1      -7.352  20.642  67.119  1.00  0.00    -0.389 C  
ENDBRANCH   4  21
BRANCH   7  23
HETATM   23  C   UNL     1     -10.488  17.180  67.944  1.00  0.00    -0.369 C  
HETATM   24  C   UNL     1     -10.926  16.447  69.215  1.00  0.00    -0.322 C  
ENDBRANCH   7  23
TORSDOF 2
ENDMDL
MODEL       68
REMARK 921   NORMALIZED FREE ENERGY PREDICTED BY IDOCK:   -4.27 KCAL/MOL
REMARK 922        TOTAL FREE ENERGY PREDICTED BY IDOCK:   -3.55 KCAL/MOL
REMARK 923 INTER-LIGAND FREE ENERGY PREDICTED BY IDOCK:   -4.94 KCAL/MOL
REMARK 924 INTRA-LIGAND FREE ENERGY PREDICTED BY IDOCK:    1.39 KCAL/MOL
REMARK 927      BINDING AFFINITY PREDICTED BY RF-SCORE:    0.00 PKD
ROOT
HETATM    1  C   UNL     1      -9.543   9.891  67.282  1.00  0.00    -0.195 C  
HETATM    2  C   UNL     1     -10.465   8.764  66.903  1.00  0.00    -0.319 C  
HETATM    3  C   UNL     1      -9.848   7.846  67.922  1.00  0.00    -0.201 C  
HETATM    4  C   UNL     1      -8.004   7.853  67.362  1.00  0.00    -0.122 C  
HETATM    5  C   UNL     1     -11.506  12.698  66.483  1.00  0.00    -0.409 C  
HETATM    6  O   UNL     1      -7.126   7.136  68.239  1.00  0.00    -0.076 OA 
HETATM    7  C   UNL     1      -8.328   9.244  68.194  1.00  0.00    -0.120 C  
HETATM    8  C   UNL     1      -7.393  10.397  68.407  1.00  0.00    -0.085 C  
HETATM    9  C   UNL     1     -10.268  11.023  67.964  1.00  0.00    -0.201 C  
HETATM   10  C   UNL     1     -10.755  13.758  67.232  1.00  0.00    -0.286 C  
HETATM   11  H   UNL     1      -6.217   7.140  67.963  1.00  0.00     0.000 HD 
HETATM   12  C   UNL     1      -7.858  11.659  68.507  1.00  0.00    -0.140 C  
HETATM   13  C   UNL     1     -11.617  11.461  67.334  1.00  0.00    -0.266 C  
HETATM   14  C   UNL     1      -9.219  12.098  68.137  1.00  0.00    -0.197 C  
HETATM   15  C   UNL     1      -9.499  13.389  67.863  1.00  0.00    -0.216 C  
HETATM   16  C   UNL     1      -8.518  14.473  68.211  1.00  0.00    -0.161 C  
HETATM   17  C   UNL     1      -8.905  15.896  67.870  1.00  0.00    -0.179 C  
HETATM   18  C   UNL     1     -10.387  16.113  67.764  1.00  0.00    -0.283 C  
HETATM   19  C   UNL     1     -11.205  15.020  67.215  1.00  0.00    -0.339 C  
HETATM   20  O   UNL     1     -10.908  17.194  68.039  1.00  0.00    -0.378 OA 
ENDROOT
BRANCH   4  21
HETATM   21  C   UNL     1      -8.879   6.729  66.829  1.00  0.00    -0.127 C  
HETATM   22  C   UNL     1      -9.628   5.766  66.373  1.00  0.00    -0.175 C  
ENDBRANCH   4  21
BRANCH   7  23
HETATM   23  C   UNL     1      -8.442   8.769  69.847  1.00  0.00    -0.131 C  
HETATM   24  C   UNL     1      -9.524   9.315  70.782  1.00  0.00    -0.336 C  
ENDBRANCH   7  23
TORSDOF 2
ENDMDL
MODEL       69
REMARK 921   NORMALIZED FREE ENERGY PREDICTED BY IDOCK:   -4.21 KCAL/MOL
REMARK 922        TOTAL FREE ENERGY PREDICTED BY IDOCK:   -3.48 KCAL/MOL
REMARK 923 INTER-LIGAND FREE ENERGY PREDICTED BY IDOCK:   -4.70 KCAL/MOL
REMARK 924 INTRA-LIGAND FREE ENERGY PREDICTED BY IDOCK:    1.23 KCAL/MOL
REMARK 927      BINDING AFFINITY PREDICTED BY RF-SCORE:    0.00 PKD
ROOT
HETATM    1  C   UNL     1      -9.399  13.806  66.834  1.00  0.00    -0.267 C  
HETATM    2  C   UNL     1     -10.382  14.151  65.748  1.00  0.00    -0.338 C  
HETATM    3  C   UNL     1     -11.331  13.073  66.191  1.00  0.00    -0.349 C  
HETATM    4  C   UNL     1     -10.211  11.511  66.056  1.00  0.00    -0.242 C  
HETATM    5  C   UNL     1      -7.827  16.906  67.366  1.00  0.00    -0.192 C  
HETATM    6  O   UNL     1     -10.825  10.309  66.537  1.00  0.00    -0.123 OA 
HETATM    7  C   UNL     1      -9.837  12.333  67.440  1.00  0.00    -0.199 C  
HETATM    8  C   UNL     1      -8.736  12.007  68.405  1.00  0.00    -0.147 C  
HETATM    9  C   UNL     1      -9.299  14.882  67.883  1.00  0.00    -0.191 C  
HETATM   10  C   UNL     1      -7.173  16.638  68.688  1.00  0.00    -0.192 C  
HETATM   11  H   UNL     1     -10.272   9.539  66.470  1.00  0.00     0.000 HD 
HETATM   12  C   UNL     1      -8.105  12.980  69.093  1.00  0.00     0.493 C  
HETATM   13  C   UNL     1      -9.223  16.345  67.371  1.00  0.00    -0.213 C  
HETATM   14  C   UNL     1      -8.181  14.423  68.794  1.00  0.00    -0.126 C  
HETATM   15  C   UNL     1      -7.239  15.289  69.223  1.00  0.00    -0.184 C  
HETATM   16  C   UNL     1      -6.242  14.875  70.269  1.00  0.00    -0.152 C  
HETATM   17  C   UNL     1      -5.217  15.903  70.697  1.00  0.00    -0.168 C  
HETATM   18  C   UNL     1      -5.650  17.322  70.471  1.00  0.00    -0.144 C  
HETATM   19  C   UNL     1      -6.469  17.611  69.284  1.00  0.00    -0.240 C  
HETATM   20  O   UNL     1      -5.269  18.242  71.196  1.00  0.00    -0.287 OA 
ENDROOT
BRANCH   4  21
HETATM   21  C   UNL     1     -11.085  11.834  64.855  1.00  0.00    -0.345 C  
HETATM   22  C   UNL     1     -11.834  12.111  63.825  1.00  0.00    -0.592 C  
ENDBRANCH   4  21
BRANCH   7  23
HETATM   23  C   UNL     1     -11.147  12.029  68.518  1.00  0.00    -0.289 C  
HETATM   24  C   UNL     1     -11.001  11.135  69.752  1.00  0.00    -0.216 C  
ENDBRANCH   7  23
TORSDOF 2
ENDMDL
MODEL       70
REMARK 921   NORMALIZED FREE ENERGY PREDICTED BY IDOCK:   -4.19 KCAL/MOL
REMARK 922        TOTAL FREE ENERGY PREDICTED BY IDOCK:   -3.45 KCAL/MOL
REMARK 923 INTER-LIGAND FREE ENERGY PREDICTED BY IDOCK:   -4.68 KCAL/MOL
REMARK 924 INTRA-LIGAND FREE ENERGY PREDICTED BY IDOCK:    1.23 KCAL/MOL
REMARK 927      BINDING AFFINITY PREDICTED BY RF-SCORE:    0.00 PKD
ROOT
HETATM    1  C   UNL     1      -9.838  12.100  66.531  1.00  0.00    -0.232 C  
HETATM    2  C   UNL     1      -9.008  13.299  66.158  1.00  0.00     0.215 C  
HETATM    3  C   UNL     1      -9.710  14.165  67.167  1.00  0.00    -0.248 C  
HETATM    4  C   UNL     1     -11.540  14.004  66.586  1.00  0.00    -0.382 C  
HETATM    5  C   UNL     1      -7.641   9.462  65.764  1.00  0.00    -0.099 C  
HETATM    6  O   UNL     1     -12.485  14.648  67.449  1.00  0.00    -0.537 OA 
HETATM    7  C   UNL     1     -11.113  12.647  67.426  1.00  0.00    -0.315 C  
HETATM    8  C   UNL     1     -11.953  11.421  67.632  1.00  0.00     0.002 C  
HETATM    9  C   UNL     1      -9.030  11.034  67.225  1.00  0.00    -0.138 C  
HETATM   10  C   UNL     1      -8.311   8.346  66.508  1.00  0.00    -0.111 C  
HETATM   11  H   UNL     1     -13.387  14.570  67.163  1.00  0.00     0.000 HD 
HETATM   12  C   UNL     1     -11.386  10.202  67.741  1.00  0.00    -0.060 C  
HETATM   13  C   UNL     1      -7.643  10.706  66.612  1.00  0.00    -0.129 C  
HETATM   14  C   UNL     1      -9.990   9.876  67.390  1.00  0.00    -0.235 C  
HETATM   15  C   UNL     1      -9.601   8.612  67.123  1.00  0.00    -0.227 C  
HETATM   16  C   UNL     1     -10.493   7.451  67.463  1.00  0.00    -0.338 C  
HETATM   17  C   UNL     1      -9.986   6.064  67.132  1.00  0.00    -0.186 C  
HETATM   18  C   UNL     1      -8.490   5.970  67.044  1.00  0.00    -0.108 C  
HETATM   19  C   UNL     1      -7.758   7.126  66.501  1.00  0.00    -0.100 C  
HETATM   20  O   UNL     1      -7.885   4.936  67.329  1.00  0.00    -0.094 OA 
ENDROOT
BRANCH   4  21
HETATM   21  C   UNL     1     -10.755  15.195  66.059  1.00  0.00    -0.333 C  
HETATM   22  C   UNL     1     -10.083  16.215  65.607  1.00  0.00    -0.366 C  
ENDBRANCH   4  21
BRANCH   7  23
HETATM   23  C   UNL     1     -11.058  13.133  69.079  1.00  0.00    -0.282 C  
HETATM   24  C   UNL     1     -11.969  12.518  70.144  1.00  0.00    -0.377 C  
ENDBRANCH   7  23
TORSDOF 2
ENDMDL
MODEL       71
REMARK 921   NORMALIZED FREE ENERGY PREDICTED BY IDOCK:   -4.13 KCAL/MOL
REMARK 922        TOTAL FREE ENERGY PREDICTED BY IDOCK:   -3.39 KCAL/MOL
REMARK 923 INTER-LIGAND FREE ENERGY PREDICTED BY IDOCK:   -4.61 KCAL/MOL
REMARK 924 INTRA-LIGAND FREE ENERGY PREDICTED BY IDOCK:    1.22 KCAL/MOL
REMARK 927      BINDING AFFINITY PREDICTED BY RF-SCORE:    0.00 PKD
ROOT
HETATM    1  C   UNL     1     -10.043   7.916  70.642  1.00  0.00    -0.197 C  
HETATM    2  C   UNL     1     -10.468   7.886  72.085  1.00  0.00    -0.308 C  
HETATM    3  C   UNL     1      -9.215   7.163  72.494  1.00  0.00    -0.159 C  
HETATM    4  C   UNL     1      -9.320   5.584  71.395  1.00  0.00    -0.147 C  
HETATM    5  C   UNL     1     -11.664  10.818  69.495  1.00  0.00    -0.384 C  
HETATM    6  O   UNL     1      -8.170   4.733  71.484  1.00  0.00    -0.100 OA 
HETATM    7  C   UNL     1      -8.790   6.852  70.479  1.00  0.00    -0.155 C  
HETATM    8  C   UNL     1      -8.525   6.842  69.002  1.00  0.00    -0.128 C  
HETATM    9  C   UNL     1      -9.715   9.308  70.167  1.00  0.00    -0.252 C  
HETATM   10  C   UNL     1     -10.914  11.043  68.216  1.00  0.00    -0.287 C  
HETATM   11  H   UNL     1      -8.222   3.955  70.943  1.00  0.00     0.000 HD 
HETATM   12  C   UNL     1      -8.715   7.948  68.255  1.00  0.00    -0.130 C  
HETATM   13  C   UNL     1     -10.700  10.432  70.584  1.00  0.00     0.020 C  
HETATM   14  C   UNL     1      -9.451   9.153  68.685  1.00  0.00    -0.145 C  
HETATM   15  C   UNL     1      -9.960  10.030  67.797  1.00  0.00    -0.203 C  
HETATM   16  C   UNL     1      -9.546   9.981  66.352  1.00  0.00    -0.248 C  
HETATM   17  C   UNL     1     -10.163  10.999  65.417  1.00  0.00    -0.333 C  
HETATM   18  C   UNL     1     -10.644  12.242  66.106  1.00  0.00    -0.249 C  
HETATM   19  C   UNL     1     -11.213  12.106  67.456  1.00  0.00    -0.357 C  
HETATM   20  O   UNL     1     -10.652  13.337  65.542  1.00  0.00    -0.276 OA 
ENDROOT
BRANCH   4  21
HETATM   21  C   UNL     1      -9.882   5.478  72.803  1.00  0.00    -0.185 C  
HETATM   22  C   UNL     1     -10.363   5.386  74.011  1.00  0.00    -0.299 C  
ENDBRANCH   4  21
BRANCH   7  23
HETATM   23  C   UNL     1      -7.160   7.122  70.973  1.00  0.00    -0.069 C  
HETATM   24  C   UNL     1      -5.968   6.827  70.059  1.00  0.00    -0.023 C  
ENDBRANCH   7  23
TORSDOF 2
ENDMDL
MODEL       72
REMARK 921   NORMALIZED FREE ENERGY PREDICTED BY IDOCK:   -4.11 KCAL/MOL
REMARK 922        TOTAL FREE ENERGY PREDICTED BY IDOCK:   -3.37 KCAL/MOL
REMARK 923 INTER-LIGAND FREE ENERGY PREDICTED BY IDOCK:   -4.67 KCAL/MOL
REMARK 924 INTRA-LIGAND FREE ENERGY PREDICTED BY IDOCK:    1.30 KCAL/MOL
REMARK 927      BINDING AFFINITY PREDICTED BY RF-SCORE:    0.00 PKD
ROOT
HETATM    1  C   UNL     1     -10.014  10.278  65.519  1.00  0.00    -0.364 C  
HETATM    2  C   UNL     1      -9.779  11.450  64.606  1.00  0.00    -0.275 C  
HETATM    3  C   UNL     1      -9.922  12.429  65.738  1.00  0.00    -0.270 C  
HETATM    4  C   UNL     1     -11.690  12.005  66.375  1.00  0.00    -0.252 C  
HETATM    5  C   UNL     1      -8.215   7.741  63.876  1.00  0.00     0.010 C  
HETATM    6  O   UNL     1     -12.070  12.718  67.559  1.00  0.00    -0.359 OA 
HETATM    7  C   UNL     1     -10.623  10.874  66.933  1.00  0.00    -0.312 C  
HETATM    8  C   UNL     1     -10.956   9.641  67.721  1.00  0.00    -0.203 C  
HETATM    9  C   UNL     1      -8.778   9.436  65.704  1.00  0.00    -0.179 C  
HETATM   10  C   UNL     1      -8.125   6.733  64.983  1.00  0.00    -0.126 C  
HETATM   11  H   UNL     1     -12.942  12.509  67.873  1.00  0.00     0.000 HD 
HETATM   12  C   UNL     1     -10.219   8.519  67.599  1.00  0.00    -0.297 C  
HETATM   13  C   UNL     1      -7.958   9.118  64.426  1.00  0.00    -0.137 C  
HETATM   14  C   UNL     1      -9.243   8.252  66.524  1.00  0.00    -0.236 C  
HETATM   15  C   UNL     1      -8.855   6.999  66.211  1.00  0.00    -0.164 C  
HETATM   16  C   UNL     1      -9.166   5.852  67.131  1.00  0.00    -0.116 C  
HETATM   17  C   UNL     1      -8.697   4.476  66.708  1.00  0.00    -0.111 C  
HETATM   18  C   UNL     1      -7.533   4.495  65.762  1.00  0.00    -0.081 C  
HETATM   19  C   UNL     1      -7.466   5.585  64.775  1.00  0.00    -0.071 C  
HETATM   20  O   UNL     1      -6.698   3.589  65.737  1.00  0.00    -0.039 OA 
ENDROOT
BRANCH   4  21
HETATM   21  C   UNL     1     -11.578  13.137  65.366  1.00  0.00    -0.362 C  
HETATM   22  C   UNL     1     -11.480  14.106  64.501  1.00  0.00    -0.380 C  
ENDBRANCH   4  21
BRANCH   7  23
HETATM   23  C   UNL     1      -9.723  11.668  68.171  1.00  0.00    -0.189 C  
HETATM   24  C   UNL     1      -8.347  11.176  68.625  1.00  0.00    -0.154 C  
ENDBRANCH   7  23
TORSDOF 2
ENDMDL
MODEL       73
REMARK 921   NORMALIZED FREE ENERGY PREDICTED BY IDOCK:   -4.11 KCAL/MOL
REMARK 922        TOTAL FREE ENERGY PREDICTED BY IDOCK:   -3.36 KCAL/MOL
REMARK 923 INTER-LIGAND FREE ENERGY PREDICTED BY IDOCK:   -4.67 KCAL/MOL
REMARK 924 INTRA-LIGAND FREE ENERGY PREDICTED BY IDOCK:    1.31 KCAL/MOL
REMARK 927      BINDING AFFINITY PREDICTED BY RF-SCORE:    0.00 PKD
ROOT
HETATM    1  C   UNL     1      -9.162  13.069  66.823  1.00  0.00    -0.229 C  
HETATM    2  C   UNL     1      -8.836  14.507  67.122  1.00  0.00    -0.245 C  
HETATM    3  C   UNL     1     -10.284  14.847  67.338  1.00  0.00    -0.234 C  
HETATM    4  C   UNL     1     -11.043  14.333  65.643  1.00  0.00    -0.316 C  
HETATM    5  C   UNL     1      -6.213  11.453  67.853  1.00  0.00    -0.051 C  
HETATM    6  O   UNL     1     -12.471  14.436  65.588  1.00  0.00    -0.401 OA 
HETATM    7  C   UNL     1     -10.790  12.982  66.560  1.00  0.00    -0.294 C  
HETATM    8  C   UNL     1     -11.004  11.559  66.136  1.00  0.00    -0.320 C  
HETATM    9  C   UNL     1      -8.676  12.133  67.899  1.00  0.00    -0.176 C  
HETATM   10  C   UNL     1      -6.709  10.040  67.929  1.00  0.00    -0.067 C  
HETATM   11  H   UNL     1     -12.846  14.183  64.753  1.00  0.00     0.000 HD 
HETATM   12  C   UNL     1     -10.237  10.565  66.629  1.00  0.00    -0.289 C  
HETATM   13  C   UNL     1      -7.243  12.381  68.439  1.00  0.00    -0.110 C  
HETATM   14  C   UNL     1      -8.968  10.749  67.360  1.00  0.00    -0.141 C  
HETATM   15  C   UNL     1      -8.056   9.761  67.461  1.00  0.00    -0.114 C  
HETATM   16  C   UNL     1      -8.416   8.349  67.094  1.00  0.00    -0.123 C  
HETATM   17  C   UNL     1      -7.337   7.297  67.232  1.00  0.00    -0.098 C  
HETATM   18  C   UNL     1      -6.264   7.656  68.219  1.00  0.00    -0.040 C  
HETATM   19  C   UNL     1      -5.874   9.070  68.328  1.00  0.00    -0.038 C  
HETATM   20  O   UNL     1      -5.656   6.798  68.861  1.00  0.00    -0.016 OA 
ENDROOT
BRANCH   4  21
HETATM   21  C   UNL     1     -10.643  15.791  65.801  1.00  0.00    -0.369 C  
HETATM   22  C   UNL     1     -10.300  17.040  65.936  1.00  0.00    -0.310 C  
ENDBRANCH   4  21
BRANCH   7  23
HETATM   23  C   UNL     1     -12.017  13.017  67.771  1.00  0.00    -0.344 C  
HETATM   24  C   UNL     1     -11.819  12.395  69.156  1.00  0.00    -0.352 C  
ENDBRANCH   7  23
TORSDOF 2
ENDMDL
MODEL       74
REMARK 921   NORMALIZED FREE ENERGY PREDICTED BY IDOCK:   -4.07 KCAL/MOL
REMARK 922        TOTAL FREE ENERGY PREDICTED BY IDOCK:   -3.32 KCAL/MOL
REMARK 923 INTER-LIGAND FREE ENERGY PREDICTED BY IDOCK:   -4.56 KCAL/MOL
REMARK 924 INTRA-LIGAND FREE ENERGY PREDICTED BY IDOCK:    1.23 KCAL/MOL
REMARK 927      BINDING AFFINITY PREDICTED BY RF-SCORE:    0.00 PKD
ROOT
HETATM    1  C   UNL     1     -10.093  10.225  66.921  1.00  0.00    -0.274 C  
HETATM    2  C   UNL     1     -10.081  11.719  66.743  1.00  0.00    -0.235 C  
HETATM    3  C   UNL     1     -10.081  11.949  68.229  1.00  0.00    -0.203 C  
HETATM    4  C   UNL     1     -11.690  11.023  68.749  1.00  0.00    -0.314 C  
HETATM    5  C   UNL     1      -8.466   9.159  63.990  1.00  0.00    -0.195 C  
HETATM    6  O   UNL     1     -11.900  10.970  70.165  1.00  0.00    -0.294 OA 
HETATM    7  C   UNL     1     -10.484   9.923  68.497  1.00  0.00    -0.232 C  
HETATM    8  C   UNL     1     -10.610   8.428  68.549  1.00  0.00    -0.149 C  
HETATM    9  C   UNL     1      -8.800   9.584  66.488  1.00  0.00    -0.156 C  
HETATM   10  C   UNL     1      -8.134   7.750  64.379  1.00  0.00    -0.091 C  
HETATM   11  H   UNL     1     -12.693  10.514  70.421  1.00  0.00     0.000 HD 
HETATM   12  C   UNL     1      -9.845   7.639  67.767  1.00  0.00    -0.196 C  
HETATM   13  C   UNL     1      -8.194  10.080  65.149  1.00  0.00    -0.146 C  
HETATM   14  C   UNL     1      -9.053   8.097  66.608  1.00  0.00    -0.202 C  
HETATM   15  C   UNL     1      -8.657   7.247  65.638  1.00  0.00    -0.123 C  
HETATM   16  C   UNL     1      -8.744   5.761  65.844  1.00  0.00    -0.149 C  
HETATM   17  C   UNL     1      -8.281   4.874  64.708  1.00  0.00    -0.126 C  
HETATM   18  C   UNL     1      -7.297   5.534  63.785  1.00  0.00    -0.054 C  
HETATM   19  C   UNL     1      -7.459   6.972  63.522  1.00  0.00    -0.099 C  
HETATM   20  O   UNL     1      -6.431   4.891  63.190  1.00  0.00    -0.025 OA 
ENDROOT
BRANCH   4  21
HETATM   21  C   UNL     1     -11.812  12.515  68.483  1.00  0.00    -0.341 C  
HETATM   22  C   UNL     1     -11.917  13.794  68.257  1.00  0.00    -0.392 C  
ENDBRANCH   4  21
BRANCH   7  23
HETATM   23  C   UNL     1      -9.430  10.083  69.851  1.00  0.00    -0.221 C  
HETATM   24  C   UNL     1      -9.358   9.032  70.962  1.00  0.00    -0.339 C  
ENDBRANCH   7  23
TORSDOF 2
ENDMDL
MODEL       75
REMARK 921   NORMALIZED FREE ENERGY PREDICTED BY IDOCK:   -3.95 KCAL/MOL
REMARK 922        TOTAL FREE ENERGY PREDICTED BY IDOCK:   -3.19 KCAL/MOL
REMARK 923 INTER-LIGAND FREE ENERGY PREDICTED BY IDOCK:   -4.42 KCAL/MOL
REMARK 924 INTRA-LIGAND FREE ENERGY PREDICTED BY IDOCK:    1.23 KCAL/MOL
REMARK 927      BINDING AFFINITY PREDICTED BY RF-SCORE:    0.00 PKD
ROOT
HETATM    1  C   UNL     1      -8.463   6.699  66.850  1.00  0.00    -0.115 C  
HETATM    2  C   UNL     1      -8.275   6.876  65.368  1.00  0.00    -0.134 C  
HETATM    3  C   UNL     1      -8.288   5.391  65.135  1.00  0.00    -0.144 C  
HETATM    4  C   UNL     1      -6.830   4.825  66.260  1.00  0.00    -0.062 C  
HETATM    5  C   UNL     1     -10.130   9.676  67.704  1.00  0.00    -0.241 C  
HETATM    6  O   UNL     1      -6.669   3.404  66.336  1.00  0.00    -0.049 OA 
HETATM    7  C   UNL     1      -8.161   5.113  67.195  1.00  0.00    -0.107 C  
HETATM    8  C   UNL     1      -8.232   5.057  68.693  1.00  0.00    -0.085 C  
HETATM    9  C   UNL     1      -9.816   7.169  67.319  1.00  0.00    -0.217 C  
HETATM   10  C   UNL     1     -10.653   9.298  69.057  1.00  0.00    -0.225 C  
HETATM   11  H   UNL     1      -5.950   3.125  66.891  1.00  0.00     0.000 HD 
HETATM   12  C   UNL     1      -9.070   5.861  69.378  1.00  0.00    -0.134 C  
HETATM   13  C   UNL     1     -10.313   8.525  66.752  1.00  0.00    -0.346 C  
HETATM   14  C   UNL     1      -9.762   7.043  68.826  1.00  0.00    -0.143 C  
HETATM   15  C   UNL     1     -10.237   8.024  69.620  1.00  0.00    -0.208 C  
HETATM   16  C   UNL     1     -10.351   7.817  71.104  1.00  0.00    -0.218 C  
HETATM   17  C   UNL     1     -10.892   8.966  71.927  1.00  0.00    -0.433 C  
HETATM   18  C   UNL     1     -11.754   9.917  71.147  1.00  0.00    -0.396 C  
HETATM   19  C   UNL     1     -11.399  10.175  69.743  1.00  0.00    -0.312 C  
HETATM   20  O   UNL     1     -12.679  10.538  71.674  1.00  0.00    -0.405 OA 
ENDROOT
BRANCH   4  21
HETATM   21  C   UNL     1      -6.506   5.086  64.798  1.00  0.00    -0.035 C  
HETATM   22  C   UNL     1      -6.229   5.311  63.545  1.00  0.00    -0.022 C  
ENDBRANCH   4  21
BRANCH   7  23
HETATM   23  C   UNL     1      -9.223   3.789  66.894  1.00  0.00    -0.198 C  
HETATM   24  C   UNL     1      -9.511   2.715  67.946  1.00  0.00    -0.186 C  
ENDBRANCH   7  23
TORSDOF 2
ENDMDL
MODEL       76
REMARK 921   NORMALIZED FREE ENERGY PREDICTED BY IDOCK:   -3.94 KCAL/MOL
REMARK 922        TOTAL FREE ENERGY PREDICTED BY IDOCK:   -3.18 KCAL/MOL
REMARK 923 INTER-LIGAND FREE ENERGY PREDICTED BY IDOCK:   -4.40 KCAL/MOL
REMARK 924 INTRA-LIGAND FREE ENERGY PREDICTED BY IDOCK:    1.22 KCAL/MOL
REMARK 927      BINDING AFFINITY PREDICTED BY RF-SCORE:    0.00 PKD
ROOT
HETATM    1  C   UNL     1      -9.567   8.657  69.310  1.00  0.00    -0.166 C  
HETATM    2  C   UNL     1     -10.304   9.940  69.037  1.00  0.00    -0.224 C  
HETATM    3  C   UNL     1      -9.945   9.898  67.578  1.00  0.00    -0.229 C  
HETATM    4  C   UNL     1      -8.021   9.857  67.668  1.00  0.00    -0.109 C  
HETATM    5  C   UNL     1     -11.361   7.391  72.058  1.00  0.00    -0.301 C  
HETATM    6  O   UNL     1      -7.381   9.694  66.396  1.00  0.00    -0.092 OA 
HETATM    7  C   UNL     1      -8.615   8.350  67.996  1.00  0.00    -0.135 C  
HETATM    8  C   UNL     1      -7.821   7.146  68.408  1.00  0.00    -0.122 C  
HETATM    9  C   UNL     1     -10.496   7.522  69.656  1.00  0.00    -0.235 C  
HETATM   10  C   UNL     1     -10.884   5.970  72.042  1.00  0.00    -0.300 C  
HETATM   11  H   UNL     1      -6.432   9.674  66.440  1.00  0.00     0.000 HD 
HETATM   12  C   UNL     1      -8.350   6.212  69.225  1.00  0.00    -0.116 C  
HETATM   13  C   UNL     1     -11.643   7.844  70.651  1.00  0.00    -0.215 C  
HETATM   14  C   UNL     1      -9.578   6.378  70.027  1.00  0.00    -0.171 C  
HETATM   15  C   UNL     1      -9.829   5.613  71.109  1.00  0.00    -0.229 C  
HETATM   16  C   UNL     1      -9.025   4.369  71.367  1.00  0.00    -0.164 C  
HETATM   17  C   UNL     1      -9.367   3.565  72.603  1.00  0.00    -0.153 C  
HETATM   18  C   UNL     1     -10.773   3.765  73.087  1.00  0.00    -0.176 C  
HETATM   19  C   UNL     1     -11.366   5.104  72.945  1.00  0.00    -0.354 C  
HETATM   20  O   UNL     1     -11.395   2.875  73.669  1.00  0.00    -0.228 OA 
ENDROOT
BRANCH   4  21
HETATM   21  C   UNL     1      -8.671  11.221  67.503  1.00  0.00    -0.138 C  
HETATM   22  C   UNL     1      -9.228  12.391  67.363  1.00  0.00    -0.184 C  
ENDBRANCH   4  21
BRANCH   7  23
HETATM   23  C   UNL     1      -9.149   7.731  66.478  1.00  0.00    -0.208 C  
HETATM   24  C   UNL     1      -8.487   6.525  65.808  1.00  0.00    -0.149 C  
ENDBRANCH   7  23
TORSDOF 2
ENDMDL
MODEL       77
REMARK 921   NORMALIZED FREE ENERGY PREDICTED BY IDOCK:   -3.93 KCAL/MOL
REMARK 922        TOTAL FREE ENERGY PREDICTED BY IDOCK:   -3.17 KCAL/MOL
REMARK 923 INTER-LIGAND FREE ENERGY PREDICTED BY IDOCK:   -4.51 KCAL/MOL
REMARK 924 INTRA-LIGAND FREE ENERGY PREDICTED BY IDOCK:    1.35 KCAL/MOL
REMARK 927      BINDING AFFINITY PREDICTED BY RF-SCORE:    0.00 PKD
ROOT
HETATM    1  C   UNL     1      -7.958  10.312  66.650  1.00  0.00    -0.116 C  
HETATM    2  C   UNL     1      -6.565   9.768  66.821  1.00  0.00    -0.067 C  
HETATM    3  C   UNL     1      -6.618   9.067  65.492  1.00  0.00    -0.068 C  
HETATM    4  C   UNL     1      -8.162   7.937  65.728  1.00  0.00    -0.130 C  
HETATM    5  C   UNL     1      -7.790  13.271  68.543  1.00  0.00    -0.110 C  
HETATM    6  O   UNL     1      -8.540   7.213  64.552  1.00  0.00    -0.345 OA 
HETATM    7  C   UNL     1      -8.658   9.480  65.407  1.00  0.00    -0.173 C  
HETATM    8  C   UNL     1     -10.072   9.982  65.399  1.00  0.00    -0.317 C  
HETATM    9  C   UNL     1      -7.972  11.806  66.457  1.00  0.00    -0.009 C  
HETATM   10  C   UNL     1      -9.013  13.972  68.031  1.00  0.00    -0.182 C  
HETATM   11  H   UNL     1      -9.301   6.656  64.668  1.00  0.00     0.000 HD 
HETATM   12  C   UNL     1     -10.360  11.251  65.751  1.00  0.00    -0.310 C  
HETATM   13  C   UNL     1      -7.055  12.635  67.394  1.00  0.00    -0.138 C  
HETATM   14  C   UNL     1      -9.440  12.174  66.445  1.00  0.00    -0.238 C  
HETATM   15  C   UNL     1      -9.890  13.246  67.129  1.00  0.00    -0.237 C  
HETATM   16  C   UNL     1     -11.309  13.714  66.966  1.00  0.00    -0.344 C  
HETATM   17  C   UNL     1     -11.738  14.924  67.769  1.00  0.00    -0.340 C  
HETATM   18  C   UNL     1     -10.602  15.821  68.167  1.00  0.00    -0.275 C  
HETATM   19  C   UNL     1      -9.311  15.195  68.492  1.00  0.00    -0.192 C  
HETATM   20  O   UNL     1     -10.751  17.036  68.310  1.00  0.00    -0.358 OA 
ENDROOT
BRANCH   4  21
HETATM   21  C   UNL     1      -6.807   7.321  66.038  1.00  0.00    -0.057 C  
HETATM   22  C   UNL     1      -5.645   6.793  66.302  1.00  0.00    -0.018 C  
ENDBRANCH   4  21
BRANCH   7  23
HETATM   23  C   UNL     1      -8.351   9.717  63.727  1.00  0.00    -0.173 C  
HETATM   24  C   UNL     1      -9.254  10.581  62.844  1.00  0.00    -0.318 C  
ENDBRANCH   7  23
TORSDOF 2
ENDMDL
MODEL       78
REMARK 921   NORMALIZED FREE ENERGY PREDICTED BY IDOCK:   -3.93 KCAL/MOL
REMARK 922        TOTAL FREE ENERGY PREDICTED BY IDOCK:   -3.16 KCAL/MOL
REMARK 923 INTER-LIGAND FREE ENERGY PREDICTED BY IDOCK:   -4.38 KCAL/MOL
REMARK 924 INTRA-LIGAND FREE ENERGY PREDICTED BY IDOCK:    1.22 KCAL/MOL
REMARK 927      BINDING AFFINITY PREDICTED BY RF-SCORE:    0.00 PKD
ROOT
HETATM    1  C   UNL     1     -10.269   9.497  67.705  1.00  0.00    -0.265 C  
HETATM    2  C   UNL     1      -9.973  10.927  67.343  1.00  0.00    -0.215 C  
HETATM    3  C   UNL     1     -10.052  11.364  68.779  1.00  0.00    -0.199 C  
HETATM    4  C   UNL     1     -11.837  10.805  69.241  1.00  0.00    -0.288 C  
HETATM    5  C   UNL     1      -8.631   7.767  65.118  1.00  0.00    -0.023 C  
HETATM    6  O   UNL     1     -12.167  10.990  70.623  1.00  0.00    -0.326 OA 
HETATM    7  C   UNL     1     -10.833   9.493  69.257  1.00  0.00    -0.211 C  
HETATM    8  C   UNL     1     -11.231   8.064  69.485  1.00  0.00     0.140 C  
HETATM    9  C   UNL     1      -9.082   8.593  67.494  1.00  0.00    -0.146 C  
HETATM   10  C   UNL     1      -8.592   6.392  65.715  1.00  0.00    -0.152 C  
HETATM   11  H   UNL     1     -13.047  10.715  70.851  1.00  0.00     0.000 HD 
HETATM   12  C   UNL     1     -10.560   7.055  68.893  1.00  0.00    -0.233 C  
HETATM   13  C   UNL     1      -8.291   8.784  66.174  1.00  0.00    -0.126 C  
HETATM   14  C   UNL     1      -9.609   7.202  67.774  1.00  0.00    -0.146 C  
HETATM   15  C   UNL     1      -9.296   6.169  66.966  1.00  0.00    -0.132 C  
HETATM   16  C   UNL     1      -9.666   4.763  67.348  1.00  0.00    -0.209 C  
HETATM   17  C   UNL     1      -9.281   3.658  66.387  1.00  0.00    -0.177 C  
HETATM   18  C   UNL     1      -8.124   4.005  65.496  1.00  0.00    -0.101 C  
HETATM   19  C   UNL     1      -8.001   5.397  65.037  1.00  0.00    -0.110 C  
HETATM   20  O   UNL     1      -7.343   3.148  65.080  1.00  0.00    -0.068 OA 
ENDROOT
BRANCH   4  21
HETATM   21  C   UNL     1     -11.666  12.243  68.778  1.00  0.00    -0.390 C  
HETATM   22  C   UNL     1     -11.521  13.475  68.381  1.00  0.00    -0.346 C  
ENDBRANCH   4  21
BRANCH   7  23
HETATM   23  C   UNL     1      -9.880   9.666  70.683  1.00  0.00    -0.268 C  
HETATM   24  C   UNL     1      -9.994   8.701  71.866  1.00  0.00    -0.392 C  
ENDBRANCH   7  23
TORSDOF 2
ENDMDL
MODEL       79
REMARK 921   NORMALIZED FREE ENERGY PREDICTED BY IDOCK:   -3.84 KCAL/MOL
REMARK 922        TOTAL FREE ENERGY PREDICTED BY IDOCK:   -3.06 KCAL/MOL
REMARK 923 INTER-LIGAND FREE ENERGY PREDICTED BY IDOCK:   -4.43 KCAL/MOL
REMARK 924 INTRA-LIGAND FREE ENERGY PREDICTED BY IDOCK:    1.36 KCAL/MOL
REMARK 927      BINDING AFFINITY PREDICTED BY RF-SCORE:    0.00 PKD
ROOT
HETATM    1  C   UNL     1      -8.624  11.049  69.004  1.00  0.00    -0.076 C  
HETATM    2  C   UNL     1      -7.689  10.079  69.675  1.00  0.00    -0.158 C  
HETATM    3  C   UNL     1      -8.257   8.918  68.907  1.00  0.00    -0.117 C  
HETATM    4  C   UNL     1     -10.115   9.013  69.408  1.00  0.00    -0.198 C  
HETATM    5  C   UNL     1      -6.746  14.020  69.110  1.00  0.00    -0.112 C  
HETATM    6  O   UNL     1     -10.953   8.075  68.723  1.00  0.00    -0.420 OA 
HETATM    7  C   UNL     1      -9.800  10.159  68.260  1.00  0.00    -0.162 C  
HETATM    8  C   UNL     1     -10.754  11.195  67.744  1.00  0.00    -0.267 C  
HETATM    9  C   UNL     1      -7.905  11.992  68.074  1.00  0.00    -0.145 C  
HETATM   10  C   UNL     1      -7.499  14.836  68.102  1.00  0.00    -0.119 C  
HETATM   11  H   UNL     1     -11.869   8.122  68.970  1.00  0.00     0.000 HD 
HETATM   12  C   UNL     1     -10.313  12.403  67.339  1.00  0.00    -0.217 C  
HETATM   13  C   UNL     1      -6.585  12.613  68.601  1.00  0.00    -0.083 C  
HETATM   14  C   UNL     1      -8.974  12.959  67.613  1.00  0.00    -0.192 C  
HETATM   15  C   UNL     1      -8.729  14.285  67.559  1.00  0.00    -0.204 C  
HETATM   16  C   UNL     1      -9.724  15.219  66.929  1.00  0.00    -0.243 C  
HETATM   17  C   UNL     1      -9.377  16.692  66.908  1.00  0.00    -0.246 C  
HETATM   18  C   UNL     1      -7.904  16.970  66.986  1.00  0.00    -0.191 C  
HETATM   19  C   UNL     1      -7.078  16.074  67.810  1.00  0.00    -0.163 C  
HETATM   20  O   UNL     1      -7.400  17.962  66.458  1.00  0.00    -0.207 OA 
ENDROOT
BRANCH   4  21
HETATM   21  C   UNL     1      -9.231   8.085  70.226  1.00  0.00    -0.155 C  
HETATM   22  C   UNL     1      -8.474   7.290  70.927  1.00  0.00    -0.128 C  
ENDBRANCH   4  21
BRANCH   7  23
HETATM   23  C   UNL     1      -9.630   9.287  66.782  1.00  0.00    -0.240 C  
HETATM   24  C   UNL     1      -9.872   9.935  65.417  1.00  0.00    -0.384 C  
ENDBRANCH   7  23
TORSDOF 2
ENDMDL
MODEL       80
REMARK 921   NORMALIZED FREE ENERGY PREDICTED BY IDOCK:   -3.82 KCAL/MOL
REMARK 922        TOTAL FREE ENERGY PREDICTED BY IDOCK:   -3.05 KCAL/MOL
REMARK 923 INTER-LIGAND FREE ENERGY PREDICTED BY IDOCK:   -4.28 KCAL/MOL
REMARK 924 INTRA-LIGAND FREE ENERGY PREDICTED BY IDOCK:    1.23 KCAL/MOL
REMARK 927      BINDING AFFINITY PREDICTED BY RF-SCORE:    0.00 PKD
ROOT
HETATM    1  C   UNL     1     -10.822  13.858  68.765  1.00  0.00    -0.282 C  
HETATM    2  C   UNL     1     -11.141  12.580  68.037  1.00  0.00    -0.285 C  
HETATM    3  C   UNL     1     -12.399  12.377  68.834  1.00  0.00     0.209 C  
HETATM    4  C   UNL     1     -11.701  12.348  70.630  1.00  0.00     0.284 C  
HETATM    5  C   UNL     1      -8.996  15.616  66.328  1.00  0.00    -0.377 C  
HETATM    6  O   UNL     1     -12.709  12.281  71.646  1.00  0.00    -0.296 OA 
HETATM    7  C   UNL     1     -11.789  13.912  70.103  1.00  0.00    -0.368 C  
HETATM    8  C   UNL     1     -11.311  15.131  70.835  1.00  0.00    -0.345 C  
HETATM    9  C   UNL     1     -10.950  15.072  67.882  1.00  0.00    -0.291 C  
HETATM   10  C   UNL     1      -9.050  16.996  66.913  1.00  0.00    -0.253 C  
HETATM   11  H   UNL     1     -12.364  12.267  72.532  1.00  0.00     0.000 HD 
HETATM   12  C   UNL     1     -10.841  16.203  70.165  1.00  0.00    -0.328 C  
HETATM   13  C   UNL     1     -10.344  14.960  66.458  1.00  0.00    -0.295 C  
HETATM   14  C   UNL     1     -10.463  16.220  68.739  1.00  0.00    -0.282 C  
HETATM   15  C   UNL     1      -9.634  17.156  68.234  1.00  0.00    -0.280 C  
HETATM   16  C   UNL     1      -9.301  18.388  69.028  1.00  0.00    -0.131 C  
HETATM   17  C   UNL     1      -8.362  19.391  68.392  1.00  0.00    -0.385 C  
HETATM   18  C   UNL     1      -8.334  19.331  66.893  1.00  0.00    -0.283 C  
HETATM   19  C   UNL     1      -8.477  18.013  66.254  1.00  0.00    -0.214 C  
HETATM   20  O   UNL     1      -8.110  20.328  66.205  1.00  0.00    -0.239 OA 
ENDROOT
BRANCH   4  21
HETATM   21  C   UNL     1     -11.879  11.004  69.942  1.00  0.00    -0.431 C  
HETATM   22  C   UNL     1     -12.033   9.853  69.352  1.00  0.00     0.268 C  
ENDBRANCH   4  21
BRANCH   7  23
HETATM   23  C   UNL     1     -13.466  14.307  70.128  1.00  0.00     0.763 C  
HETATM   24  C   UNL     1     -14.070  15.252  71.170  1.00  0.00    -0.438 C  
ENDBRANCH   7  23
TORSDOF 2
ENDMDL
MODEL       81
REMARK 921   NORMALIZED FREE ENERGY PREDICTED BY IDOCK:   -3.72 KCAL/MOL
REMARK 922        TOTAL FREE ENERGY PREDICTED BY IDOCK:   -2.93 KCAL/MOL
REMARK 923 INTER-LIGAND FREE ENERGY PREDICTED BY IDOCK:   -4.23 KCAL/MOL
REMARK 924 INTRA-LIGAND FREE ENERGY PREDICTED BY IDOCK:    1.30 KCAL/MOL
REMARK 927      BINDING AFFINITY PREDICTED BY RF-SCORE:    0.00 PKD
ROOT
HETATM    1  C   UNL     1      -9.162   8.081  71.449  1.00  0.00    -0.180 C  
HETATM    2  C   UNL     1      -8.542   6.858  72.068  1.00  0.00    -0.121 C  
HETATM    3  C   UNL     1      -9.723   6.006  71.697  1.00  0.00    -0.180 C  
HETATM    4  C   UNL     1     -11.154   6.948  72.579  1.00  0.00    -0.266 C  
HETATM    5  C   UNL     1      -6.310   9.924  70.532  1.00  0.00    -0.109 C  
HETATM    6  O   UNL     1     -12.457   6.421  72.303  1.00  0.00    -0.532 OA 
HETATM    7  C   UNL     1     -10.756   7.741  71.185  1.00  0.00    -0.245 C  
HETATM    8  C   UNL     1     -11.321   9.045  70.704  1.00  0.00    -0.311 C  
HETATM    9  C   UNL     1      -8.430   8.534  70.212  1.00  0.00    -0.128 C  
HETATM   10  C   UNL     1      -6.932  10.902  69.581  1.00  0.00    -0.128 C  
HETATM   11  H   UNL     1     -13.162   6.885  72.738  1.00  0.00     0.000 HD 
HETATM   12  C   UNL     1     -10.572   9.899  69.977  1.00  0.00    -0.335 C  
HETATM   13  C   UNL     1      -6.881   8.552  70.290  1.00  0.00    -0.039 C  
HETATM   14  C   UNL     1      -9.106   9.831  69.823  1.00  0.00    -0.246 C  
HETATM   15  C   UNL     1      -8.379  10.905  69.453  1.00  0.00     0.051 C  
HETATM   16  C   UNL     1      -9.053  12.126  68.893  1.00  0.00     0.230 C  
HETATM   17  C   UNL     1      -8.168  13.290  68.501  1.00  0.00    -0.084 C  
HETATM   18  C   UNL     1      -6.754  12.898  68.185  1.00  0.00    -0.096 C  
HETATM   19  C   UNL     1      -6.155  11.800  68.960  1.00  0.00    -0.066 C  
HETATM   20  O   UNL     1      -6.073  13.521  67.369  1.00  0.00    -0.330 OA 
ENDROOT
BRANCH   4  21
HETATM   21  C   UNL     1     -10.519   5.796  73.341  1.00  0.00    -0.264 C  
HETATM   22  C   UNL     1      -9.974   4.809  73.994  1.00  0.00    -0.200 C  
ENDBRANCH   4  21
BRANCH   7  23
HETATM   23  C   UNL     1     -11.387   6.766  69.911  1.00  0.00    -0.374 C  
HETATM   24  C   UNL     1     -10.840   6.829  68.483  1.00  0.00    -0.280 C  
ENDBRANCH   7  23
TORSDOF 2
ENDMDL
MODEL       82
REMARK 921   NORMALIZED FREE ENERGY PREDICTED BY IDOCK:   -3.69 KCAL/MOL
REMARK 922        TOTAL FREE ENERGY PREDICTED BY IDOCK:   -2.90 KCAL/MOL
REMARK 923 INTER-LIGAND FREE ENERGY PREDICTED BY IDOCK:   -4.13 KCAL/MOL
REMARK 924 INTRA-LIGAND FREE ENERGY PREDICTED BY IDOCK:    1.23 KCAL/MOL
REMARK 927      BINDING AFFINITY PREDICTED BY RF-SCORE:    0.00 PKD
ROOT
HETATM    1  C   UNL     1      -9.980   7.012  69.471  1.00  0.00    -0.166 C  
HETATM    2  C   UNL     1     -11.351   7.566  69.753  1.00  0.00     0.007 C  
HETATM    3  C   UNL     1     -10.781   8.737  70.504  1.00  0.00    -0.259 C  
HETATM    4  C   UNL     1      -9.769   7.843  71.878  1.00  0.00    -0.177 C  
HETATM    5  C   UNL     1     -10.531   5.284  66.458  1.00  0.00    -0.354 C  
HETATM    6  O   UNL     1      -8.998   8.725  72.703  1.00  0.00    -0.380 OA 
HETATM    7  C   UNL     1      -8.920   7.802  70.461  1.00  0.00    -0.150 C  
HETATM    8  C   UNL     1      -7.618   7.098  70.217  1.00  0.00    -0.090 C  
HETATM    9  C   UNL     1      -9.616   7.095  68.011  1.00  0.00    -0.140 C  
HETATM   10  C   UNL     1      -9.114   5.102  66.004  1.00  0.00    -0.149 C  
HETATM   11  H   UNL     1      -8.500   8.285  73.380  1.00  0.00     0.000 HD 
HETATM   12  C   UNL     1      -7.323   6.584  69.006  1.00  0.00    -0.093 C  
HETATM   13  C   UNL     1     -10.713   6.677  66.998  1.00  0.00    -0.437 C  
HETATM   14  C   UNL     1      -8.288   6.375  67.909  1.00  0.00    -0.118 C  
HETATM   15  C   UNL     1      -8.049   5.504  66.908  1.00  0.00    -0.101 C  
HETATM   16  C   UNL     1      -6.673   4.934  66.704  1.00  0.00    -0.051 C  
HETATM   17  C   UNL     1      -6.486   3.962  65.559  1.00  0.00    -0.033 C  
HETATM   18  C   UNL     1      -7.498   4.117  64.461  1.00  0.00    -0.072 C  
HETATM   19  C   UNL     1      -8.870   4.491  64.836  1.00  0.00    -0.148 C  
HETATM   20  O   UNL     1      -7.229   3.855  63.287  1.00  0.00    -0.048 OA 
ENDROOT
BRANCH   4  21
HETATM   21  C   UNL     1     -11.186   8.261  72.233  1.00  0.00    -0.443 C  
HETATM   22  C   UNL     1     -12.401   8.620  72.537  1.00  0.00    -0.378 C  
ENDBRANCH   4  21
BRANCH   7  23
HETATM   23  C   UNL     1      -8.327   9.405  70.239  1.00  0.00    -0.217 C  
HETATM   24  C   UNL     1      -6.847   9.760  70.397  1.00  0.00    -0.135 C  
ENDBRANCH   7  23
TORSDOF 2
ENDMDL
MODEL       83
REMARK 921   NORMALIZED FREE ENERGY PREDICTED BY IDOCK:   -3.68 KCAL/MOL
REMARK 922        TOTAL FREE ENERGY PREDICTED BY IDOCK:   -2.89 KCAL/MOL
REMARK 923 INTER-LIGAND FREE ENERGY PREDICTED BY IDOCK:   -4.20 KCAL/MOL
REMARK 924 INTRA-LIGAND FREE ENERGY PREDICTED BY IDOCK:    1.31 KCAL/MOL
REMARK 927      BINDING AFFINITY PREDICTED BY RF-SCORE:    0.00 PKD
ROOT
HETATM    1  C   UNL     1      -9.465   6.817  67.948  1.00  0.00    -0.118 C  
HETATM    2  C   UNL     1      -9.305   5.664  68.902  1.00  0.00    -0.144 C  
HETATM    3  C   UNL     1      -7.975   5.290  68.310  1.00  0.00    -0.088 C  
HETATM    4  C   UNL     1      -8.457   4.994  66.468  1.00  0.00    -0.110 C  
HETATM    5  C   UNL     1     -11.466   9.011  69.831  1.00  0.00     0.070 C  
HETATM    6  O   UNL     1      -7.342   4.727  65.609  1.00  0.00    -0.074 OA 
HETATM    7  C   UNL     1      -8.346   6.618  66.749  1.00  0.00    -0.115 C  
HETATM    8  C   UNL     1      -8.667   7.718  65.781  1.00  0.00    -0.160 C  
HETATM    9  C   UNL     1      -9.375   8.153  68.639  1.00  0.00    -0.143 C  
HETATM   10  C   UNL     1     -11.268  10.275  69.048  1.00  0.00    -0.260 C  
HETATM   11  H   UNL     1      -7.580   4.581  64.701  1.00  0.00     0.000 HD 
HETATM   12  C   UNL     1      -9.153   8.901  66.210  1.00  0.00    -0.236 C  
HETATM   13  C   UNL     1     -10.150   8.295  69.975  1.00  0.00    -0.196 C  
HETATM   14  C   UNL     1      -9.695   9.162  67.558  1.00  0.00    -0.204 C  
HETATM   15  C   UNL     1     -10.525  10.197  67.802  1.00  0.00    -0.277 C  
HETATM   16  C   UNL     1     -10.694  11.295  66.789  1.00  0.00    -0.323 C  
HETATM   17  C   UNL     1     -11.644  12.421  67.137  1.00  0.00    -0.435 C  
HETATM   18  C   UNL     1     -11.852  12.605  68.612  1.00  0.00    -0.302 C  
HETATM   19  C   UNL     1     -11.858  11.405  69.462  1.00  0.00    -0.426 C  
HETATM   20  O   UNL     1     -12.101  13.708  69.101  1.00  0.00    -0.345 OA 
ENDROOT
BRANCH   4  21
HETATM   21  C   UNL     1      -8.435   3.774  67.376  1.00  0.00    -0.104 C  
HETATM   22  C   UNL     1      -8.416   2.729  68.153  1.00  0.00    -0.103 C  
ENDBRANCH   4  21
BRANCH   7  23
HETATM   23  C   UNL     1      -6.658   6.945  66.873  1.00  0.00    -0.047 C  
HETATM   24  C   UNL     1      -6.118   8.314  67.294  1.00  0.00    -0.055 C  
ENDBRANCH   7  23
TORSDOF 2
ENDMDL
MODEL       84
REMARK 921   NORMALIZED FREE ENERGY PREDICTED BY IDOCK:   -3.64 KCAL/MOL
REMARK 922        TOTAL FREE ENERGY PREDICTED BY IDOCK:   -2.84 KCAL/MOL
REMARK 923 INTER-LIGAND FREE ENERGY PREDICTED BY IDOCK:   -4.13 KCAL/MOL
REMARK 924 INTRA-LIGAND FREE ENERGY PREDICTED BY IDOCK:    1.29 KCAL/MOL
REMARK 927      BINDING AFFINITY PREDICTED BY RF-SCORE:    0.00 PKD
ROOT
HETATM    1  C   UNL     1      -9.525   8.407  69.486  1.00  0.00    -0.166 C  
HETATM    2  C   UNL     1     -10.510   7.388  69.993  1.00  0.00    -0.233 C  
HETATM    3  C   UNL     1      -9.498   6.804  70.939  1.00  0.00    -0.159 C  
HETATM    4  C   UNL     1      -8.092   6.305  69.720  1.00  0.00    -0.120 C  
HETATM    5  C   UNL     1     -11.664  11.031  68.532  1.00  0.00    -0.348 C  
HETATM    6  O   UNL     1      -6.910   5.812  70.363  1.00  0.00    -0.046 OA 
HETATM    7  C   UNL     1      -8.027   7.934  69.992  1.00  0.00    -0.111 C  
HETATM    8  C   UNL     1      -7.104   8.916  69.332  1.00  0.00    -0.057 C  
HETATM    9  C   UNL     1      -9.885   9.811  69.901  1.00  0.00    -0.279 C  
HETATM   10  C   UNL     1     -10.669  12.148  68.426  1.00  0.00    -0.252 C  
HETATM   11  H   UNL     1      -6.217   5.566  69.762  1.00  0.00     0.000 HD 
HETATM   12  C   UNL     1      -7.489  10.189  69.111  1.00  0.00    -0.098 C  
HETATM   13  C   UNL     1     -11.376  10.214  69.762  1.00  0.00    -0.312 C  
HETATM   14  C   UNL     1      -8.876  10.687  69.192  1.00  0.00    -0.133 C  
HETATM   15  C   UNL     1      -9.260  11.824  68.575  1.00  0.00    -0.152 C  
HETATM   16  C   UNL     1      -8.236  12.782  68.034  1.00  0.00    -0.168 C  
HETATM   17  C   UNL     1      -8.747  14.034  67.355  1.00  0.00    -0.212 C  
HETATM   18  C   UNL     1     -10.124  14.442  67.790  1.00  0.00    -0.226 C  
HETATM   19  C   UNL     1     -11.091  13.377  68.101  1.00  0.00    -0.284 C  
HETATM   20  O   UNL     1     -10.480  15.621  67.806  1.00  0.00    -0.261 OA 
ENDROOT
BRANCH   4  21
HETATM   21  C   UNL     1      -9.102   5.228  70.080  1.00  0.00    -0.163 C  
HETATM   22  C   UNL     1      -9.968   4.304  70.388  1.00  0.00    -0.213 C  
ENDBRANCH   4  21
BRANCH   7  23
HETATM   23  C   UNL     1      -7.394   8.104  71.587  1.00  0.00    -0.088 C  
HETATM   24  C   UNL     1      -5.923   8.434  71.854  1.00  0.00    -0.048 C  
ENDBRANCH   7  23
TORSDOF 2
ENDMDL
MODEL       85
REMARK 921   NORMALIZED FREE ENERGY PREDICTED BY IDOCK:   -3.60 KCAL/MOL
REMARK 922        TOTAL FREE ENERGY PREDICTED BY IDOCK:   -2.80 KCAL/MOL
REMARK 923 INTER-LIGAND FREE ENERGY PREDICTED BY IDOCK:   -4.71 KCAL/MOL
REMARK 924 INTRA-LIGAND FREE ENERGY PREDICTED BY IDOCK:    1.91 KCAL/MOL
REMARK 927      BINDING AFFINITY PREDICTED BY RF-SCORE:    0.00 PKD
ROOT
HETATM    1  C   UNL     1      -8.614  16.293  68.175  1.00  0.00    -0.183 C  
HETATM    2  C   UNL     1      -9.741  16.828  67.333  1.00  0.00    -0.245 C  
HETATM    3  C   UNL     1      -8.953  18.053  66.962  1.00  0.00    -0.261 C  
HETATM    4  C   UNL     1      -8.576  18.794  68.700  1.00  0.00    -0.323 C  
HETATM    5  C   UNL     1      -9.161  12.826  67.957  1.00  0.00    -0.207 C  
HETATM    6  O   UNL     1      -7.715  19.939  68.672  1.00  0.00    -0.295 OA 
HETATM    7  C   UNL     1      -7.548  17.533  68.409  1.00  0.00    -0.254 C  
HETATM    8  C   UNL     1      -6.543  16.959  69.363  1.00  0.00    -0.228 C  
HETATM    9  C   UNL     1      -7.983  15.062  67.578  1.00  0.00    -0.198 C  
HETATM   10  C   UNL     1      -7.832  12.326  68.441  1.00  0.00    -0.151 C  
HETATM   11  H   UNL     1      -7.529  20.304  69.529  1.00  0.00     0.000 HD 
HETATM   12  C   UNL     1      -6.224  15.649  69.330  1.00  0.00    -0.136 C  
HETATM   13  C   UNL     1      -8.953  13.987  67.022  1.00  0.00    -0.248 C  
HETATM   14  C   UNL     1      -6.985  14.603  68.619  1.00  0.00    -0.111 C  
HETATM   15  C   UNL     1      -6.879  13.299  68.947  1.00  0.00    -0.103 C  
HETATM   16  C   UNL     1      -5.767  12.825  69.841  1.00  0.00    -0.125 C  
HETATM   17  C   UNL     1      -5.717  11.347  70.163  1.00  0.00    -0.129 C  
HETATM   18  C   UNL     1      -6.396  10.480  69.143  1.00  0.00    -0.051 C  
HETATM   19  C   UNL     1      -7.603  11.007  68.486  1.00  0.00    -0.114 C  
HETATM   20  O   UNL     1      -6.023   9.329  68.916  1.00  0.00    -0.043 OA 
ENDROOT
BRANCH   4  21
HETATM   21  C   UNL     1      -9.806  19.324  67.981  1.00  0.00    -0.454 C  
HETATM   22  C   UNL     1     -10.859  19.779  67.364  1.00  0.00    -0.440 C  
ENDBRANCH   4  21
BRANCH   7  23
HETATM   23  C   UNL     1      -6.415  18.127  67.254  1.00  0.00    -0.192 C  
HETATM   24  C   UNL     1      -6.480  17.748  65.773  1.00  0.00    -0.220 C  
ENDBRANCH   7  23
TORSDOF 2
ENDMDL
MODEL       86
REMARK 921   NORMALIZED FREE ENERGY PREDICTED BY IDOCK:   -3.60 KCAL/MOL
REMARK 922        TOTAL FREE ENERGY PREDICTED BY IDOCK:   -2.80 KCAL/MOL
REMARK 923 INTER-LIGAND FREE ENERGY PREDICTED BY IDOCK:   -4.22 KCAL/MOL
REMARK 924 INTRA-LIGAND FREE ENERGY PREDICTED BY IDOCK:    1.43 KCAL/MOL
REMARK 927      BINDING AFFINITY PREDICTED BY RF-SCORE:    0.00 PKD
ROOT
HETATM    1  C   UNL     1     -10.153   8.819  68.906  1.00  0.00    -0.210 C  
HETATM    2  C   UNL     1     -11.291   9.533  69.584  1.00  0.00    -0.069 C  
HETATM    3  C   UNL     1     -11.506  10.429  68.397  1.00  0.00    -0.227 C  
HETATM    4  C   UNL     1      -9.772  11.254  68.235  1.00  0.00    -0.198 C  
HETATM    5  C   UNL     1     -10.321   5.645  70.413  1.00  0.00    -0.330 C  
HETATM    6  O   UNL     1      -9.634  12.099  67.086  1.00  0.00    -0.189 OA 
HETATM    7  C   UNL     1      -9.713   9.730  67.601  1.00  0.00    -0.186 C  
HETATM    8  C   UNL     1      -8.497   9.026  67.073  1.00  0.00    -0.120 C  
HETATM    9  C   UNL     1     -10.494   7.393  68.557  1.00  0.00    -0.215 C  
HETATM   10  C   UNL     1      -9.476   4.861  69.454  1.00  0.00    -0.218 C  
HETATM   11  H   UNL     1      -8.779  12.506  67.006  1.00  0.00     0.000 HD 
HETATM   12  C   UNL     1      -8.373   7.687  67.170  1.00  0.00    -0.121 C  
HETATM   13  C   UNL     1     -11.229   6.569  69.647  1.00  0.00    -0.446 C  
HETATM   14  C   UNL     1      -9.203   6.813  68.023  1.00  0.00    -0.117 C  
HETATM   15  C   UNL     1      -8.789   5.586  68.399  1.00  0.00    -0.107 C  
HETATM   16  C   UNL     1      -7.609   4.940  67.728  1.00  0.00    -0.083 C  
HETATM   17  C   UNL     1      -7.205   3.562  68.207  1.00  0.00    -0.051 C  
HETATM   18  C   UNL     1      -8.320   2.795  68.857  1.00  0.00    -0.064 C  
HETATM   19  C   UNL     1      -9.300   3.548  69.654  1.00  0.00    -0.244 C  
HETATM   20  O   UNL     1      -8.378   1.565  68.809  1.00  0.00    -0.051 OA 
ENDROOT
BRANCH   4  21
HETATM   21  C   UNL     1     -10.819  12.010  69.038  1.00  0.00    -0.223 C  
HETATM   22  C   UNL     1     -11.716  12.658  69.726  1.00  0.00    -0.354 C  
ENDBRANCH   4  21
BRANCH   7  23
HETATM   23  C   UNL     1     -10.557   9.827  66.101  1.00  0.00    -0.018 C  
HETATM   24  C   UNL     1      -9.858  10.201  64.791  1.00  0.00    -0.382 C  
ENDBRANCH   7  23
TORSDOF 2
ENDMDL
MODEL       87
REMARK 921   NORMALIZED FREE ENERGY PREDICTED BY IDOCK:   -3.56 KCAL/MOL
REMARK 922        TOTAL FREE ENERGY PREDICTED BY IDOCK:   -2.76 KCAL/MOL
REMARK 923 INTER-LIGAND FREE ENERGY PREDICTED BY IDOCK:   -3.99 KCAL/MOL
REMARK 924 INTRA-LIGAND FREE ENERGY PREDICTED BY IDOCK:    1.23 KCAL/MOL
REMARK 927      BINDING AFFINITY PREDICTED BY RF-SCORE:    0.00 PKD
ROOT
HETATM    1  C   UNL     1      -9.122   6.019  69.110  1.00  0.00    -0.124 C  
HETATM    2  C   UNL     1      -8.258   5.346  70.143  1.00  0.00    -0.100 C  
HETATM    3  C   UNL     1      -7.907   4.230  69.199  1.00  0.00    -0.057 C  
HETATM    4  C   UNL     1      -9.654   3.543  68.768  1.00  0.00    -0.067 C  
HETATM    5  C   UNL     1      -8.883   9.389  70.085  1.00  0.00    -0.249 C  
HETATM    6  O   UNL     1      -9.647   2.515  67.770  1.00  0.00    -0.352 OA 
HETATM    7  C   UNL     1      -9.381   4.923  67.902  1.00  0.00    -0.155 C  
HETATM    8  C   UNL     1     -10.354   5.620  66.997  1.00  0.00    -0.306 C  
HETATM    9  C   UNL     1      -8.535   7.319  68.627  1.00  0.00    -0.129 C  
HETATM   10  C   UNL     1      -9.393  10.053  68.840  1.00  0.00    -0.172 C  
HETATM   11  H   UNL     1     -10.509   2.177  67.557  1.00  0.00     0.000 HD 
HETATM   12  C   UNL     1     -10.325   6.959  66.845  1.00  0.00    -0.332 C  
HETATM   13  C   UNL     1      -7.955   8.264  69.712  1.00  0.00    -0.106 C  
HETATM   14  C   UNL     1      -9.595   7.901  67.717  1.00  0.00    -0.174 C  
HETATM   15  C   UNL     1      -9.922   9.208  67.783  1.00  0.00    -0.236 C  
HETATM   16  C   UNL     1     -10.837   9.818  66.759  1.00  0.00    -0.071 C  
HETATM   17  C   UNL     1     -11.156  11.291  66.902  1.00  0.00    -0.339 C  
HETATM   18  C   UNL     1     -10.120  12.065  67.663  1.00  0.00    -0.197 C  
HETATM   19  C   UNL     1      -9.439  11.391  68.780  1.00  0.00    -0.128 C  
HETATM   20  O   UNL     1      -9.897  13.255  67.434  1.00  0.00    -0.220 OA 
ENDROOT
BRANCH   4  21
HETATM   21  C   UNL     1      -8.911   2.862  69.906  1.00  0.00    -0.171 C  
HETATM   22  C   UNL     1      -8.274   2.278  70.881  1.00  0.00    -0.067 C  
ENDBRANCH   4  21
BRANCH   7  23
HETATM   23  C   UNL     1      -8.252   4.477  66.678  1.00  0.00    -0.102 C  
HETATM   24  C   UNL     1      -8.567   4.609  65.186  1.00  0.00    -0.135 C  
ENDBRANCH   7  23
TORSDOF 2
ENDMDL
MODEL       88
REMARK 921   NORMALIZED FREE ENERGY PREDICTED BY IDOCK:   -3.48 KCAL/MOL
REMARK 922        TOTAL FREE ENERGY PREDICTED BY IDOCK:   -2.66 KCAL/MOL
REMARK 923 INTER-LIGAND FREE ENERGY PREDICTED BY IDOCK:   -4.03 KCAL/MOL
REMARK 924 INTRA-LIGAND FREE ENERGY PREDICTED BY IDOCK:    1.37 KCAL/MOL
REMARK 927      BINDING AFFINITY PREDICTED BY RF-SCORE:    0.00 PKD
ROOT
HETATM    1  C   UNL     1      -8.880   8.927  68.432  1.00  0.00    -0.134 C  
HETATM    2  C   UNL     1      -8.008   8.999  67.208  1.00  0.00    -0.099 C  
HETATM    3  C   UNL     1      -8.227   7.544  66.901  1.00  0.00    -0.124 C  
HETATM    4  C   UNL     1      -7.595   6.721  68.524  1.00  0.00    -0.104 C  
HETATM    5  C   UNL     1     -10.081  12.227  68.631  1.00  0.00    -0.153 C  
HETATM    6  O   UNL     1      -7.791   5.303  68.574  1.00  0.00    -0.082 OA 
HETATM    7  C   UNL     1      -9.111   7.328  68.775  1.00  0.00    -0.127 C  
HETATM    8  C   UNL     1      -9.863   7.350  70.072  1.00  0.00    -0.179 C  
HETATM    9  C   UNL     1     -10.165   9.699  68.269  1.00  0.00    -0.216 C  
HETATM   10  C   UNL     1     -11.228  12.026  69.575  1.00  0.00    -0.220 C  
HETATM   11  H   UNL     1      -7.479   4.897  69.374  1.00  0.00     0.000 HD 
HETATM   12  C   UNL     1     -10.730   8.344  70.356  1.00  0.00    -0.244 C  
HETATM   13  C   UNL     1     -10.051  11.106  67.627  1.00  0.00    -0.203 C  
HETATM   14  C   UNL     1     -10.828   9.624  69.627  1.00  0.00    -0.266 C  
HETATM   15  C   UNL     1     -11.392  10.716  70.182  1.00  0.00    -0.402 C  
HETATM   16  C   UNL     1     -12.207  10.599  71.440  1.00  0.00    -0.405 C  
HETATM   17  C   UNL     1     -12.806  11.871  72.001  1.00  0.00    -0.248 C  
HETATM   18  C   UNL     1     -12.998  12.953  70.979  1.00  0.00    -0.098 C  
HETATM   19  C   UNL     1     -11.999  13.071  69.905  1.00  0.00    -0.381 C  
HETATM   20  O   UNL     1     -13.906  13.781  71.070  1.00  0.00    -0.010 OA 
ENDROOT
BRANCH   4  21
HETATM   21  C   UNL     1      -6.597   6.846  67.384  1.00  0.00    -0.051 C  
HETATM   22  C   UNL     1      -5.741   6.955  66.407  1.00  0.00    -0.029 C  
ENDBRANCH   4  21
BRANCH   7  23
HETATM   23  C   UNL     1     -10.174   6.256  67.943  1.00  0.00    -0.204 C  
HETATM   24  C   UNL     1     -11.394   6.754  67.164  1.00  0.00    -0.052 C  
ENDBRANCH   7  23
TORSDOF 2
ENDMDL
MODEL       89
REMARK 921   NORMALIZED FREE ENERGY PREDICTED BY IDOCK:   -3.48 KCAL/MOL
REMARK 922        TOTAL FREE ENERGY PREDICTED BY IDOCK:   -2.66 KCAL/MOL
REMARK 923 INTER-LIGAND FREE ENERGY PREDICTED BY IDOCK:   -3.96 KCAL/MOL
REMARK 924 INTRA-LIGAND FREE ENERGY PREDICTED BY IDOCK:    1.30 KCAL/MOL
REMARK 927      BINDING AFFINITY PREDICTED BY RF-SCORE:    0.00 PKD
ROOT
HETATM    1  C   UNL     1      -9.239   7.102  68.452  1.00  0.00    -0.133 C  
HETATM    2  C   UNL     1     -10.390   7.082  69.422  1.00  0.00    -0.218 C  
HETATM    3  C   UNL     1     -10.476   8.583  69.433  1.00  0.00    -0.223 C  
HETATM    4  C   UNL     1      -8.699   9.054  70.010  1.00  0.00    -0.157 C  
HETATM    5  C   UNL     1      -9.662   4.026  66.802  1.00  0.00    -0.216 C  
HETATM    6  O   UNL     1      -8.438  10.463  70.004  1.00  0.00    -0.362 OA 
HETATM    7  C   UNL     1      -8.664   8.650  68.408  1.00  0.00    -0.142 C  
HETATM    8  C   UNL     1      -7.447   8.549  67.536  1.00  0.00    -0.093 C  
HETATM    9  C   UNL     1      -9.620   6.564  67.097  1.00  0.00    -0.162 C  
HETATM   10  C   UNL     1      -8.787   4.254  65.605  1.00  0.00    -0.123 C  
HETATM   11  H   UNL     1      -7.562  10.696  70.288  1.00  0.00     0.000 HD 
HETATM   12  C   UNL     1      -7.393   7.665  66.519  1.00  0.00    -0.087 C  
HETATM   13  C   UNL     1     -10.469   5.265  67.081  1.00  0.00    -0.261 C  
HETATM   14  C   UNL     1      -8.322   6.535  66.320  1.00  0.00    -0.124 C  
HETATM   15  C   UNL     1      -7.993   5.470  65.562  1.00  0.00    -0.111 C  
HETATM   16  C   UNL     1      -6.798   5.521  64.651  1.00  0.00    -0.048 C  
HETATM   17  C   UNL     1      -6.494   4.284  63.833  1.00  0.00    -0.038 C  
HETATM   18  C   UNL     1      -7.688   3.405  63.597  1.00  0.00    -0.072 C  
HETATM   19  C   UNL     1      -8.688   3.298  64.671  1.00  0.00    -0.103 C  
HETATM   20  O   UNL     1      -7.799   2.717  62.581  1.00  0.00    -0.064 OA 
ENDROOT
BRANCH   4  21
HETATM   21  C   UNL     1      -9.765   8.951  71.088  1.00  0.00    -0.344 C  
HETATM   22  C   UNL     1     -10.679   8.862  72.013  1.00  0.00    -0.389 C  
ENDBRANCH   4  21
BRANCH   7  23
HETATM   23  C   UNL     1      -9.392   9.979  67.587  1.00  0.00    -0.159 C  
HETATM   24  C   UNL     1      -9.937   9.862  66.161  1.00  0.00    -0.331 C  
ENDBRANCH   7  23
TORSDOF 2
ENDMDL
MODEL       90
REMARK 921   NORMALIZED FREE ENERGY PREDICTED BY IDOCK:   -3.21 KCAL/MOL
REMARK 922        TOTAL FREE ENERGY PREDICTED BY IDOCK:   -2.36 KCAL/MOL
REMARK 923 INTER-LIGAND FREE ENERGY PREDICTED BY IDOCK:   -3.69 KCAL/MOL
REMARK 924 INTRA-LIGAND FREE ENERGY PREDICTED BY IDOCK:    1.32 KCAL/MOL
REMARK 927      BINDING AFFINITY PREDICTED BY RF-SCORE:    0.00 PKD
ROOT
HETATM    1  C   UNL     1      -8.919   9.391  66.797  1.00  0.00    -0.152 C  
HETATM    2  C   UNL     1      -8.133  10.663  66.627  1.00  0.00    -0.136 C  
HETATM    3  C   UNL     1      -8.258  10.998  68.087  1.00  0.00    -0.124 C  
HETATM    4  C   UNL     1     -10.173  11.033  68.299  1.00  0.00    -0.176 C  
HETATM    5  C   UNL     1      -7.595   7.402  64.216  1.00  0.00    -0.112 C  
HETATM    6  O   UNL     1     -10.607  11.219  69.652  1.00  0.00    -0.440 OA 
HETATM    7  C   UNL     1      -9.656   9.464  68.273  1.00  0.00    -0.156 C  
HETATM    8  C   UNL     1     -10.518   8.237  68.298  1.00  0.00    -0.211 C  
HETATM    9  C   UNL     1      -8.069   8.161  66.610  1.00  0.00    -0.103 C  
HETATM   10  C   UNL     1      -8.079   6.053  64.657  1.00  0.00    -0.132 C  
HETATM   11  H   UNL     1     -11.551  11.237  69.756  1.00  0.00     0.000 HD 
HETATM   12  C   UNL     1     -10.135   7.106  67.671  1.00  0.00    -0.229 C  
HETATM   13  C   UNL     1      -7.089   8.171  65.407  1.00  0.00    -0.063 C  
HETATM   14  C   UNL     1      -9.047   7.008  66.678  1.00  0.00    -0.175 C  
HETATM   15  C   UNL     1      -8.978   5.989  65.797  1.00  0.00    -0.116 C  
HETATM   16  C   UNL     1      -9.828   4.763  65.981  1.00  0.00    -0.229 C  
HETATM   17  C   UNL     1      -9.694   3.664  64.949  1.00  0.00    -0.172 C  
HETATM   18  C   UNL     1      -8.379   3.668  64.225  1.00  0.00    -0.090 C  
HETATM   19  C   UNL     1      -7.755   4.970  63.938  1.00  0.00    -0.079 C  
HETATM   20  O   UNL     1      -7.867   2.632  63.798  1.00  0.00    -0.070 OA 
ENDROOT
BRANCH   4  21
HETATM   21  C   UNL     1      -9.489  12.362  68.018  1.00  0.00    -0.208 C  
HETATM   22  C   UNL     1      -8.903  13.500  67.777  1.00  0.00    -0.198 C  
ENDBRANCH   4  21
BRANCH   7  23
HETATM   23  C   UNL     1      -8.897   9.209  69.799  1.00  0.00    -0.165 C  
HETATM   24  C   UNL     1      -9.069   7.912  70.593  1.00  0.00    -0.153 C  
ENDBRANCH   7  23
TORSDOF 2
ENDMDL
MODEL       91
REMARK 921   NORMALIZED FREE ENERGY PREDICTED BY IDOCK:   -3.18 KCAL/MOL
REMARK 922        TOTAL FREE ENERGY PREDICTED BY IDOCK:   -2.33 KCAL/MOL
REMARK 923 INTER-LIGAND FREE ENERGY PREDICTED BY IDOCK:   -4.28 KCAL/MOL
REMARK 924 INTRA-LIGAND FREE ENERGY PREDICTED BY IDOCK:    1.95 KCAL/MOL
REMARK 927      BINDING AFFINITY PREDICTED BY RF-SCORE:    0.00 PKD
ROOT
HETATM    1  C   UNL     1      -9.798  10.664  67.300  1.00  0.00    -0.206 C  
HETATM    2  C   UNL     1     -10.934  11.130  68.171  1.00  0.00    -0.292 C  
HETATM    3  C   UNL     1     -11.223  12.293  67.264  1.00  0.00    -0.358 C  
HETATM    4  C   UNL     1      -9.526  13.204  67.274  1.00  0.00    -0.225 C  
HETATM    5  C   UNL     1      -9.802   7.205  67.936  1.00  0.00    -0.170 C  
HETATM    6  O   UNL     1      -9.458  14.322  66.381  1.00  0.00    -0.280 OA 
HETATM    7  C   UNL     1      -9.438  11.899  66.265  1.00  0.00    -0.238 C  
HETATM    8  C   UNL     1      -8.220  11.408  65.540  1.00  0.00     0.303 C  
HETATM    9  C   UNL     1     -10.104   9.364  66.602  1.00  0.00    -0.332 C  
HETATM   10  C   UNL     1      -8.967   6.732  66.784  1.00  0.00    -0.141 C  
HETATM   11  H   UNL     1      -8.622  14.772  66.386  1.00  0.00     0.000 HD 
HETATM   12  C   UNL     1      -8.047  10.096  65.282  1.00  0.00    -0.151 C  
HETATM   13  C   UNL     1     -10.769   8.256  67.461  1.00  0.00    -0.217 C  
HETATM   14  C   UNL     1      -8.814   8.997  65.901  1.00  0.00    -0.210 C  
HETATM   15  C   UNL     1      -8.345   7.733  65.934  1.00  0.00    -0.135 C  
HETATM   16  C   UNL     1      -7.169   7.333  65.087  1.00  0.00    -0.070 C  
HETATM   17  C   UNL     1      -6.701   5.897  65.181  1.00  0.00    -0.044 C  
HETATM   18  C   UNL     1      -7.764   4.941  65.639  1.00  0.00    -0.087 C  
HETATM   19  C   UNL     1      -8.740   5.420  66.631  1.00  0.00    -0.115 C  
HETATM   20  O   UNL     1      -7.782   3.764  65.275  1.00  0.00    -0.080 OA 
ENDROOT
BRANCH   4  21
HETATM   21  C   UNL     1     -10.567  13.681  68.274  1.00  0.00    -0.261 C  
HETATM   22  C   UNL     1     -11.459  14.091  69.131  1.00  0.00    -0.340 C  
ENDBRANCH   4  21
BRANCH   7  23
HETATM   23  C   UNL     1     -10.340  12.345  64.865  1.00  0.00    -0.319 C  
HETATM   24  C   UNL     1     -11.770  11.856  64.623  1.00  0.00    -0.306 C  
ENDBRANCH   7  23
TORSDOF 2
ENDMDL
MODEL       92
REMARK 921   NORMALIZED FREE ENERGY PREDICTED BY IDOCK:   -2.28 KCAL/MOL
REMARK 922        TOTAL FREE ENERGY PREDICTED BY IDOCK:   -1.32 KCAL/MOL
REMARK 923 INTER-LIGAND FREE ENERGY PREDICTED BY IDOCK:   -2.69 KCAL/MOL
REMARK 924 INTRA-LIGAND FREE ENERGY PREDICTED BY IDOCK:    1.37 KCAL/MOL
REMARK 927      BINDING AFFINITY PREDICTED BY RF-SCORE:    0.00 PKD
ROOT
HETATM    1  C   UNL     1      -9.182  15.513  67.917  1.00  0.00    -0.187 C  
HETATM    2  C   UNL     1     -10.421  15.430  68.767  1.00  0.00    -0.231 C  
HETATM    3  C   UNL     1      -9.764  14.477  69.726  1.00  0.00     0.426 C  
HETATM    4  C   UNL     1      -9.274  13.037  68.544  1.00  0.00    -0.062 C  
HETATM    5  C   UNL     1      -9.494  18.731  66.535  1.00  0.00    -0.353 C  
HETATM    6  O   UNL     1      -8.505  12.003  69.171  1.00  0.00    -0.339 OA 
HETATM    7  C   UNL     1      -8.191  14.274  68.377  1.00  0.00    -0.144 C  
HETATM    8  C   UNL     1      -7.058  14.345  67.396  1.00  0.00    -0.121 C  
HETATM    9  C   UNL     1      -8.524  16.867  67.989  1.00  0.00    -0.213 C  
HETATM   10  C   UNL     1      -8.092  18.936  66.044  1.00  0.00    -0.159 C  
HETATM   11  H   UNL     1      -8.264  11.293  68.588  1.00  0.00     0.000 HD 
HETATM   12  C   UNL     1      -6.650  15.528  66.892  1.00  0.00     0.424 C  
HETATM   13  C   UNL     1      -9.463  18.099  67.900  1.00  0.00    -0.284 C  
HETATM   14  C   UNL     1      -7.399  16.797  66.979  1.00  0.00    -0.238 C  
HETATM   15  C   UNL     1      -7.167  17.819  66.130  1.00  0.00    -0.346 C  
HETATM   16  C   UNL     1      -5.942  17.825  65.260  1.00  0.00     0.158 C  
HETATM   17  C   UNL     1      -5.753  19.007  64.333  1.00  0.00    -0.311 C  
HETATM   18  C   UNL     1      -6.464  20.250  64.784  1.00  0.00    -0.282 C  
HETATM   19  C   UNL     1      -7.764  20.095  65.456  1.00  0.00    -0.039 C  
HETATM   20  O   UNL     1      -6.032  21.376  64.529  1.00  0.00    -0.174 OA 
ENDROOT
BRANCH   4  21
HETATM   21  C   UNL     1     -10.603  12.906  69.270  1.00  0.00     0.117 C  
HETATM   22  C   UNL     1     -11.742  12.794  69.892  1.00  0.00    -0.321 C  
ENDBRANCH   4  21
BRANCH   7  23
HETATM   23  C   UNL     1      -7.221  14.226  69.801  1.00  0.00     0.112 C  
HETATM   24  C   UNL     1      -5.805  14.806  69.848  1.00  0.00    -0.123 C  
ENDBRANCH   7  23
TORSDOF 2
ENDMDL
MODEL       93
REMARK 921   NORMALIZED FREE ENERGY PREDICTED BY IDOCK:   -1.65 KCAL/MOL
REMARK 922        TOTAL FREE ENERGY PREDICTED BY IDOCK:   -0.62 KCAL/MOL
REMARK 923 INTER-LIGAND FREE ENERGY PREDICTED BY IDOCK:   -1.97 KCAL/MOL
REMARK 924 INTRA-LIGAND FREE ENERGY PREDICTED BY IDOCK:    1.35 KCAL/MOL
REMARK 927      BINDING AFFINITY PREDICTED BY RF-SCORE:    0.00 PKD
ROOT
HETATM    1  C   UNL     1      -8.149   5.489  69.335  1.00  0.00    -0.095 C  
HETATM    2  C   UNL     1      -6.718   5.362  68.887  1.00  0.00    -0.053 C  
HETATM    3  C   UNL     1      -7.084   4.365  67.823  1.00  0.00    -0.064 C  
HETATM    4  C   UNL     1      -7.920   2.986  68.877  1.00  0.00    -0.056 C  
HETATM    5  C   UNL     1      -8.198   8.770  70.600  1.00  0.00    -0.159 C  
HETATM    6  O   UNL     1      -8.490   1.924  68.102  1.00  0.00    -0.061 OA 
HETATM    7  C   UNL     1      -8.984   4.232  68.665  1.00  0.00    -0.156 C  
HETATM    8  C   UNL     1     -10.352   4.354  69.270  1.00  0.00     0.373 C  
HETATM    9  C   UNL     1      -8.735   6.839  69.014  1.00  0.00    -0.130 C  
HETATM   10  C   UNL     1      -9.679   9.003  70.652  1.00  0.00    -0.287 C  
HETATM   11  H   UNL     1      -8.902   1.244  68.621  1.00  0.00     0.000 HD 
HETATM   12  C   UNL     1     -10.869   5.560  69.579  1.00  0.00    -0.254 C  
HETATM   13  C   UNL     1      -7.842   8.072  69.315  1.00  0.00    -0.114 C  
HETATM   14  C   UNL     1     -10.106   6.822  69.655  1.00  0.00    -0.197 C  
HETATM   15  C   UNL     1     -10.557   7.885  70.352  1.00  0.00    -0.228 C  
HETATM   16  C   UNL     1     -11.982   7.936  70.827  1.00  0.00    -0.146 C  
HETATM   17  C   UNL     1     -12.412   9.163  71.603  1.00  0.00    -0.434 C  
HETATM   18  C   UNL     1     -11.581  10.380  71.322  1.00  0.00    -0.146 C  
HETATM   19  C   UNL     1     -10.144  10.189  71.065  1.00  0.00     0.717 C  
HETATM   20  O   UNL     1     -12.049  11.518  71.389  1.00  0.00    -0.100 OA 
ENDROOT
BRANCH   4  21
HETATM   21  C   UNL     1      -6.440   2.816  68.576  1.00  0.00    -0.029 C  
HETATM   22  C   UNL     1      -5.171   2.670  68.317  1.00  0.00    -0.012 C  
ENDBRANCH   4  21
BRANCH   7  23
HETATM   23  C   UNL     1      -9.499   4.116  67.024  1.00  0.00    -0.215 C  
HETATM   24  C   UNL     1     -10.730   4.859  66.498  1.00  0.00    -0.120 C  
ENDBRANCH   7  23
TORSDOF 2
ENDMDL
MODEL       94
REMARK 921   NORMALIZED FREE ENERGY PREDICTED BY IDOCK:   -0.78 KCAL/MOL
REMARK 922        TOTAL FREE ENERGY PREDICTED BY IDOCK:    0.35 KCAL/MOL
REMARK 923 INTER-LIGAND FREE ENERGY PREDICTED BY IDOCK:   -1.48 KCAL/MOL
REMARK 924 INTRA-LIGAND FREE ENERGY PREDICTED BY IDOCK:    1.82 KCAL/MOL
REMARK 927      BINDING AFFINITY PREDICTED BY RF-SCORE:    0.00 PKD
ROOT
HETATM    1  C   UNL     1      -6.989   9.961  67.029  1.00  0.00    -0.088 C  
HETATM    2  C   UNL     1      -6.537  11.388  66.871  1.00  0.00    -0.141 C  
HETATM    3  C   UNL     1      -6.062  11.451  68.296  1.00  0.00    -0.045 C  
HETATM    4  C   UNL     1      -7.681  11.021  69.248  1.00  0.00    -0.068 C  
HETATM    5  C   UNL     1      -6.653   8.755  63.742  1.00  0.00    -0.087 C  
HETATM    6  O   UNL     1      -7.508  10.888  70.664  1.00  0.00    -0.110 OA 
HETATM    7  C   UNL     1      -7.017   9.633  68.647  1.00  0.00    -0.064 C  
HETATM    8  C   UNL     1      -7.605   8.255  68.717  1.00  0.00    -0.101 C  
HETATM    9  C   UNL     1      -6.143   8.999  66.235  1.00  0.00    -0.063 C  
HETATM   10  C   UNL     1      -6.708   7.279  64.004  1.00  0.00    -0.048 C  
HETATM   11  H   UNL     1      -8.306  10.676  71.133  1.00  0.00     0.000 HD 
HETATM   12  C   UNL     1      -7.381   7.353  67.740  1.00  0.00    -0.092 C  
HETATM   13  C   UNL     1      -5.792   9.420  64.783  1.00  0.00    -0.066 C  
HETATM   14  C   UNL     1      -6.827   7.660  66.407  1.00  0.00    -0.062 C  
HETATM   15  C   UNL     1      -7.007   6.836  65.355  1.00  0.00    -0.059 C  
HETATM   16  C   UNL     1      -7.517   5.436  65.560  1.00  0.00    -0.077 C  
HETATM   17  C   UNL     1      -7.693   4.573  64.330  1.00  0.00    -0.077 C  
HETATM   18  C   UNL     1      -6.835   4.988  63.170  1.00  0.00    -0.034 C  
HETATM   19  C   UNL     1      -6.582   6.425  62.979  1.00  0.00    -0.034 C  
HETATM   20  O   UNL     1      -6.421   4.174  62.342  1.00  0.00    -0.021 OA 
ENDROOT
BRANCH   4  21
HETATM   21  C   UNL     1      -7.376  12.496  69.045  1.00  0.00     0.043 C  
HETATM   22  C   UNL     1      -7.115  13.761  68.872  1.00  0.00    -0.107 C  
ENDBRANCH   4  21
BRANCH   7  23
HETATM   23  C   UNL     1      -5.645   9.317  69.642  1.00  0.00    -0.033 C  
HETATM   24  C   UNL     1      -5.776   8.884  71.104  1.00  0.00    -0.043 C  
ENDBRANCH   7  23
TORSDOF 2
ENDMDL
MODEL       95
REMARK 921   NORMALIZED FREE ENERGY PREDICTED BY IDOCK:   -0.56 KCAL/MOL
REMARK 922        TOTAL FREE ENERGY PREDICTED BY IDOCK:    0.60 KCAL/MOL
REMARK 923 INTER-LIGAND FREE ENERGY PREDICTED BY IDOCK:   -0.63 KCAL/MOL
REMARK 924 INTRA-LIGAND FREE ENERGY PREDICTED BY IDOCK:    1.23 KCAL/MOL
REMARK 927      BINDING AFFINITY PREDICTED BY RF-SCORE:    0.00 PKD
ROOT
HETATM    1  C   UNL     1      -6.855   8.053  68.188  1.00  0.00    -0.069 C  
HETATM    2  C   UNL     1      -6.157   7.056  67.303  1.00  0.00    -0.040 C  
HETATM    3  C   UNL     1      -7.063   5.943  67.752  1.00  0.00    -0.071 C  
HETATM    4  C   UNL     1      -6.762   5.962  69.655  1.00  0.00    -0.055 C  
HETATM    5  C   UNL     1      -6.334  11.047  66.419  1.00  0.00    -0.133 C  
HETATM    6  O   UNL     1      -7.600   5.060  70.387  1.00  0.00    -0.061 OA 
HETATM    7  C   UNL     1      -7.785   7.195  69.251  1.00  0.00    -0.108 C  
HETATM    8  C   UNL     1      -8.327   8.247  70.174  1.00  0.00    -0.124 C  
HETATM    9  C   UNL     1      -7.632   9.077  67.402  1.00  0.00    -0.088 C  
HETATM   10  C   UNL     1      -7.357  11.918  67.083  1.00  0.00    -0.142 C  
HETATM   11  H   UNL     1      -7.452   5.069  71.325  1.00  0.00     0.000 HD 
HETATM   12  C   UNL     1      -8.595   9.491  69.727  1.00  0.00    -0.201 C  
HETATM   13  C   UNL     1      -6.921   9.684  66.164  1.00  0.00    -0.093 C  
HETATM   14  C   UNL     1      -8.136  10.053  68.441  1.00  0.00    -0.101 C  
HETATM   15  C   UNL     1      -8.069  11.383  68.231  1.00  0.00    -0.143 C  
HETATM   16  C   UNL     1      -8.736  12.341  69.179  1.00  0.00     0.618 C  
HETATM   17  C   UNL     1      -8.615  13.818  68.874  1.00  0.00     0.138 C  
HETATM   18  C   UNL     1      -8.356  14.120  67.427  1.00  0.00    -0.197 C  
HETATM   19  C   UNL     1      -7.513  13.183  66.668  1.00  0.00     0.887 C  
HETATM   20  O   UNL     1      -8.754  15.159  66.897  1.00  0.00    -0.225 OA 
ENDROOT
BRANCH   4  21
HETATM   21  C   UNL     1      -5.921   4.995  68.837  1.00  0.00    -0.021 C  
HETATM   22  C   UNL     1      -5.200   4.166  68.136  1.00  0.00    -0.008 C  
ENDBRANCH   4  21
BRANCH   7  23
HETATM   23  C   UNL     1      -9.293   6.439  68.899  1.00  0.00    -0.130 C  
HETATM   24  C   UNL     1     -10.573   6.765  69.673  1.00  0.00    -0.267 C  
ENDBRANCH   7  23
TORSDOF 2
ENDMDL
MODEL       96
REMARK 921   NORMALIZED FREE ENERGY PREDICTED BY IDOCK:    1.10 KCAL/MOL
REMARK 922        TOTAL FREE ENERGY PREDICTED BY IDOCK:    2.45 KCAL/MOL
REMARK 923 INTER-LIGAND FREE ENERGY PREDICTED BY IDOCK:    1.15 KCAL/MOL
REMARK 924 INTRA-LIGAND FREE ENERGY PREDICTED BY IDOCK:    1.30 KCAL/MOL
REMARK 927      BINDING AFFINITY PREDICTED BY RF-SCORE:    0.00 PKD
ROOT
HETATM    1  C   UNL     1     -10.719  14.124  70.043  1.00  0.00     0.289 C  
HETATM    2  C   UNL     1     -11.147  12.681  70.056  1.00  0.00     0.414 C  
HETATM    3  C   UNL     1     -12.602  13.057  70.064  1.00  0.00     0.024 C  
HETATM    4  C   UNL     1     -12.700  14.136  71.657  1.00  0.00    -0.349 C  
HETATM    5  C   UNL     1      -7.621  13.921  68.392  1.00  0.00    -0.130 C  
HETATM    6  O   UNL     1     -13.978  14.748  71.870  1.00  0.00    -0.390 OA 
HETATM    7  C   UNL     1     -12.044  15.030  70.432  1.00  0.00    -0.384 C  
HETATM    8  C   UNL     1     -11.501  16.425  70.533  1.00  0.00    -0.163 C  
HETATM    9  C   UNL     1     -10.080  14.523  68.738  1.00  0.00    -0.239 C  
HETATM   10  C   UNL     1      -7.424  15.364  68.037  1.00  0.00    -0.138 C  
HETATM   11  H   UNL     1     -14.026  15.280  72.656  1.00  0.00     0.000 HD 
HETATM   12  C   UNL     1     -10.478  16.830  69.753  1.00  0.00    -0.134 C  
HETATM   13  C   UNL     1      -9.052  13.529  68.138  1.00  0.00    -0.199 C  
HETATM   14  C   UNL     1      -9.601  15.940  68.967  1.00  0.00    -0.247 C  
HETATM   15  C   UNL     1      -8.378  16.331  68.554  1.00  0.00    -0.204 C  
HETATM   16  C   UNL     1      -7.978  17.779  68.616  1.00  0.00    -0.276 C  
HETATM   17  C   UNL     1      -6.589  18.138  68.135  1.00  0.00    -0.201 C  
HETATM   18  C   UNL     1      -6.011  17.153  67.161  1.00  0.00    -0.159 C  
HETATM   19  C   UNL     1      -6.335  15.730  67.347  1.00  0.00    -0.173 C  
HETATM   20  O   UNL     1      -5.217  17.495  66.283  1.00  0.00    -0.166 OA 
ENDROOT
BRANCH   4  21
HETATM   21  C   UNL     1     -13.045  12.663  71.805  1.00  0.00    -0.461 C  
HETATM   22  C   UNL     1     -13.339  11.400  71.931  1.00  0.00    -0.409 C  
ENDBRANCH   4  21
BRANCH   7  23
HETATM   23  C   UNL     1     -13.362  15.402  69.385  1.00  0.00     1.467 C  
HETATM   24  C   UNL     1     -13.154  15.963  67.976  1.00  0.00     3.379 C  
ENDBRANCH   7  23
TORSDOF 2
ENDMDL
MODEL       97
REMARK 921   NORMALIZED FREE ENERGY PREDICTED BY IDOCK:    1.98 KCAL/MOL
REMARK 922        TOTAL FREE ENERGY PREDICTED BY IDOCK:    3.44 KCAL/MOL
REMARK 923 INTER-LIGAND FREE ENERGY PREDICTED BY IDOCK:    0.92 KCAL/MOL
REMARK 924 INTRA-LIGAND FREE ENERGY PREDICTED BY IDOCK:    2.52 KCAL/MOL
REMARK 927      BINDING AFFINITY PREDICTED BY RF-SCORE:    0.00 PKD
ROOT
HETATM    1  C   UNL     1     -10.311  15.847  67.232  1.00  0.00    -0.293 C  
HETATM    2  C   UNL     1     -10.190  14.393  67.604  1.00  0.00    -0.229 C  
HETATM    3  C   UNL     1     -11.007  13.966  66.417  1.00  0.00    -0.303 C  
HETATM    4  C   UNL     1     -12.643  14.936  66.723  1.00  0.00     0.740 C  
HETATM    5  C   UNL     1      -7.348  17.167  68.591  1.00  0.00    -0.238 C  
HETATM    6  O   UNL     1     -13.600  14.814  65.663  1.00  0.00    -0.122 OA 
HETATM    7  C   UNL     1     -11.508  15.963  66.100  1.00  0.00     0.366 C  
HETATM    8  C   UNL     1     -11.656  17.441  65.893  1.00  0.00     1.830 C  
HETATM    9  C   UNL     1      -9.000  16.437  66.782  1.00  0.00    -0.264 C  
HETATM   10  C   UNL     1      -7.299  18.481  67.870  1.00  0.00    -0.247 C  
HETATM   11  H   UNL     1     -14.407  15.292  65.814  1.00  0.00     0.000 HD 
HETATM   12  C   UNL     1     -10.595  18.266  65.996  1.00  0.00    -0.318 C  
HETATM   13  C   UNL     1      -7.751  16.080  67.631  1.00  0.00    -0.165 C  
HETATM   14  C   UNL     1      -9.291  17.909  66.590  1.00  0.00    -0.293 C  
HETATM   15  C   UNL     1      -8.434  18.848  67.040  1.00  0.00    -0.292 C  
HETATM   16  C   UNL     1      -8.633  20.296  66.686  1.00  0.00    -0.303 C  
HETATM   17  C   UNL     1      -7.629  21.289  67.230  1.00  0.00     0.065 C  
HETATM   18  C   UNL     1      -6.294  20.684  67.556  1.00  0.00    -0.272 C  
HETATM   19  C   UNL     1      -6.270  19.312  68.086  1.00  0.00    -0.238 C  
HETATM   20  O   UNL     1      -5.249  21.332  67.474  1.00  0.00    -0.242 OA 
ENDROOT
BRANCH   4  21
HETATM   21  C   UNL     1     -12.586  13.508  67.241  1.00  0.00     0.266 C  
HETATM   22  C   UNL     1     -12.535  12.284  67.685  1.00  0.00     1.044 C  
ENDBRANCH   4  21
BRANCH   7  23
HETATM   23  C   UNL     1     -11.375  15.538  64.435  1.00  0.00    -0.260 C  
HETATM   24  C   UNL     1     -10.743  14.222  63.974  1.00  0.00     0.687 C  
ENDBRANCH   7  23
TORSDOF 2
ENDMDL
MODEL       98
REMARK 921   NORMALIZED FREE ENERGY PREDICTED BY IDOCK:    2.62 KCAL/MOL
REMARK 922        TOTAL FREE ENERGY PREDICTED BY IDOCK:    4.15 KCAL/MOL
REMARK 923 INTER-LIGAND FREE ENERGY PREDICTED BY IDOCK:    1.61 KCAL/MOL
REMARK 924 INTRA-LIGAND FREE ENERGY PREDICTED BY IDOCK:    2.54 KCAL/MOL
REMARK 927      BINDING AFFINITY PREDICTED BY RF-SCORE:    0.00 PKD
ROOT
HETATM    1  C   UNL     1     -10.097  14.333  66.665  1.00  0.00    -0.274 C  
HETATM    2  C   UNL     1      -9.661  13.927  65.282  1.00  0.00     0.113 C  
HETATM    3  C   UNL     1     -10.719  12.863  65.204  1.00  0.00    -0.326 C  
HETATM    4  C   UNL     1     -10.279  11.786  66.740  1.00  0.00    -0.211 C  
HETATM    5  C   UNL     1      -9.168  17.725  66.723  1.00  0.00    -0.281 C  
HETATM    6  O   UNL     1     -11.212  10.729  66.998  1.00  0.00    -0.288 OA 
HETATM    7  C   UNL     1     -11.085  13.140  67.235  1.00  0.00    -0.305 C  
HETATM    8  C   UNL     1     -11.356  13.553  68.652  1.00  0.00    -0.323 C  
HETATM    9  C   UNL     1     -10.728  15.701  66.690  1.00  0.00    -0.296 C  
HETATM   10  C   UNL     1      -9.961  18.187  67.908  1.00  0.00    -0.340 C  
HETATM   11  H   UNL     1     -10.995  10.198  67.755  1.00  0.00     0.000 HD 
HETATM   12  C   UNL     1     -11.423  14.856  68.995  1.00  0.00    -0.322 C  
HETATM   13  C   UNL     1     -10.012  16.811  65.876  1.00  0.00    -0.299 C  
HETATM   14  C   UNL     1     -10.966  15.983  68.158  1.00  0.00    -0.339 C  
HETATM   15  C   UNL     1     -10.672  17.188  68.687  1.00  0.00    -0.306 C  
HETATM   16  C   UNL     1     -11.080  17.523  70.095  1.00  0.00     1.372 C  
HETATM   17  C   UNL     1     -10.712  18.895  70.617  1.00  0.00     2.533 C  
HETATM   18  C   UNL     1     -10.511  19.920  69.539  1.00  0.00     0.336 C  
HETATM   19  C   UNL     1      -9.913  19.477  68.270  1.00  0.00    -0.533 C  
HETATM   20  O   UNL     1     -10.750  21.115  69.724  1.00  0.00     0.644 OA 
ENDROOT
BRANCH   4  21
HETATM   21  C   UNL     1      -9.693  11.350  65.406  1.00  0.00    -0.265 C  
HETATM   22  C   UNL     1      -9.191  10.978  64.263  1.00  0.00    -0.171 C  
ENDBRANCH   4  21
BRANCH   7  23
HETATM   23  C   UNL     1     -12.729  12.882  66.784  1.00  0.00     0.937 C  
HETATM   24  C   UNL     1     -13.184  12.866  65.322  1.00  0.00     0.561 C  
ENDBRANCH   7  23
TORSDOF 2
ENDMDL
MODEL       99
REMARK 921   NORMALIZED FREE ENERGY PREDICTED BY IDOCK:    3.56 KCAL/MOL
REMARK 922        TOTAL FREE ENERGY PREDICTED BY IDOCK:    5.20 KCAL/MOL
REMARK 923 INTER-LIGAND FREE ENERGY PREDICTED BY IDOCK:    3.97 KCAL/MOL
REMARK 924 INTRA-LIGAND FREE ENERGY PREDICTED BY IDOCK:    1.23 KCAL/MOL
REMARK 927      BINDING AFFINITY PREDICTED BY RF-SCORE:    0.00 PKD
ROOT
HETATM    1  C   UNL     1      -9.111  14.819  67.856  1.00  0.00    -0.183 C  
HETATM    2  C   UNL     1      -9.336  15.589  66.583  1.00  0.00    -0.291 C  
HETATM    3  C   UNL     1      -8.623  16.797  67.124  1.00  0.00    -0.217 C  
HETATM    4  C   UNL     1      -9.661  17.166  68.704  1.00  0.00    -0.293 C  
HETATM    5  C   UNL     1      -9.055  11.508  66.671  1.00  0.00    -0.193 C  
HETATM    6  O   UNL     1      -9.135  18.225  69.513  1.00  0.00     0.318 OA 
HETATM    7  C   UNL     1      -8.637  15.905  69.006  1.00  0.00    -0.239 C  
HETATM    8  C   UNL     1      -8.572  15.085  70.261  1.00  0.00     0.873 C  
HETATM    9  C   UNL     1      -8.146  13.676  67.674  1.00  0.00    -0.179 C  
HETATM   10  C   UNL     1      -8.436  10.824  67.853  1.00  0.00    -0.122 C  
HETATM   11  H   UNL     1      -9.647  18.407  70.292  1.00  0.00     0.000 HD 
HETATM   12  C   UNL     1      -8.221  13.784  70.222  1.00  0.00     2.621 C  
HETATM   13  C   UNL     1      -8.336  12.804  66.406  1.00  0.00     0.369 C  
HETATM   14  C   UNL     1      -8.158  12.953  69.003  1.00  0.00     0.351 C  
HETATM   15  C   UNL     1      -8.213  11.607  69.057  1.00  0.00     0.107 C  
HETATM   16  C   UNL     1      -8.039  10.888  70.366  1.00  0.00     1.827 C  
HETATM   17  C   UNL     1      -8.115   9.376  70.344  1.00  0.00    -0.197 C  
HETATM   18  C   UNL     1      -7.790   8.772  69.009  1.00  0.00    -0.096 C  
HETATM   19  C   UNL     1      -8.202   9.505  67.802  1.00  0.00    -0.114 C  
HETATM   20  O   UNL     1      -7.274   7.657  68.907  1.00  0.00    -0.077 OA 
ENDROOT
BRANCH   4  21
HETATM   21  C   UNL     1     -10.046  17.917  67.440  1.00  0.00    -0.341 C  
HETATM   22  C   UNL     1     -10.376  18.561  66.356  1.00  0.00    -0.456 C  
ENDBRANCH   4  21
BRANCH   7  23
HETATM   23  C   UNL     1      -7.072  16.615  69.148  1.00  0.00    -0.226 C  
HETATM   24  C   UNL     1      -6.351  16.746  70.492  1.00  0.00     0.729 C  
ENDBRANCH   7  23
TORSDOF 2
ENDMDL
MODEL      100
REMARK 921   NORMALIZED FREE ENERGY PREDICTED BY IDOCK:    5.07 KCAL/MOL
REMARK 922        TOTAL FREE ENERGY PREDICTED BY IDOCK:    6.89 KCAL/MOL
REMARK 923 INTER-LIGAND FREE ENERGY PREDICTED BY IDOCK:    4.42 KCAL/MOL
REMARK 924 INTRA-LIGAND FREE ENERGY PREDICTED BY IDOCK:    2.47 KCAL/MOL
REMARK 927      BINDING AFFINITY PREDICTED BY RF-SCORE:    0.00 PKD
ROOT
HETATM    1  C   UNL     1     -10.489   8.269  70.472  1.00  0.00    -0.225 C  
HETATM    2  C   UNL     1     -11.843   8.894  70.677  1.00  0.00    -0.159 C  
HETATM    3  C   UNL     1     -12.087   8.979  69.197  1.00  0.00     1.774 C  
HETATM    4  C   UNL     1     -10.580  10.038  68.631  1.00  0.00    -0.212 C  
HETATM    5  C   UNL     1     -10.142   6.369  73.412  1.00  0.00    -0.222 C  
HETATM    6  O   UNL     1     -10.477  10.194  67.210  1.00  0.00    -0.224 OA 
HETATM    7  C   UNL     1     -10.088   8.481  68.884  1.00  0.00    -0.213 C  
HETATM    8  C   UNL     1      -8.684   7.961  68.802  1.00  0.00    -0.128 C  
HETATM    9  C   UNL     1     -10.446   6.830  70.916  1.00  0.00    -0.239 C  
HETATM   10  C   UNL     1      -9.016   5.468  73.003  1.00  0.00    -0.122 C  
HETATM   11  H   UNL     1      -9.734  10.716  66.931  1.00  0.00     0.000 HD 
HETATM   12  C   UNL     1      -8.274   6.941  69.583  1.00  0.00    -0.131 C  
HETATM   13  C   UNL     1     -11.120   6.503  72.275  1.00  0.00    -0.297 C  
HETATM   14  C   UNL     1      -8.995   6.428  70.764  1.00  0.00    -0.144 C  
HETATM   15  C   UNL     1      -8.370   5.717  71.725  1.00  0.00    -0.120 C  
HETATM   16  C   UNL     1      -6.993   5.164  71.491  1.00  0.00    -0.057 C  
HETATM   17  C   UNL     1      -6.358   4.378  72.619  1.00  0.00    -0.018 C  
HETATM   18  C   UNL     1      -7.350   3.775  73.571  1.00  0.00    -0.065 C  
HETATM   19  C   UNL     1      -8.578   4.534  73.858  1.00  0.00    -0.102 C  
HETATM   20  O   UNL     1      -7.121   2.724  74.170  1.00  0.00    -0.035 OA 
ENDROOT
BRANCH   4  21
HETATM   21  C   UNL     1     -11.873  10.784  68.921  1.00  0.00    -0.287 C  
HETATM   22  C   UNL     1     -12.980  11.423  69.171  1.00  0.00     1.422 C  
ENDBRANCH   4  21
BRANCH   7  23
HETATM   23  C   UNL     1     -10.714   7.584  67.552  1.00  0.00    -0.296 C  
HETATM   24  C   UNL     1     -12.202   7.252  67.415  1.00  0.00     4.519 C  
ENDBRANCH   7  23
TORSDOF 2
ENDMDL
MODEL      101
REMARK 921   NORMALIZED FREE ENERGY PREDICTED BY IDOCK:    6.72 KCAL/MOL
REMARK 922        TOTAL FREE ENERGY PREDICTED BY IDOCK:    8.73 KCAL/MOL
REMARK 923 INTER-LIGAND FREE ENERGY PREDICTED BY IDOCK:    5.67 KCAL/MOL
REMARK 924 INTRA-LIGAND FREE ENERGY PREDICTED BY IDOCK:    3.05 KCAL/MOL
REMARK 927      BINDING AFFINITY PREDICTED BY RF-SCORE:    0.00 PKD
ROOT
HETATM    1  C   UNL     1      -9.706  15.162  69.233  1.00  0.00    -0.225 C  
HETATM    2  C   UNL     1      -9.065  16.247  70.055  1.00  0.00     0.904 C  
HETATM    3  C   UNL     1     -10.181  16.218  71.061  1.00  0.00     1.522 C  
HETATM    4  C   UNL     1     -11.703  16.590  69.939  1.00  0.00     0.325 C  
HETATM    5  C   UNL     1      -6.897  13.666  67.736  1.00  0.00    -0.175 C  
HETATM    6  O   UNL     1     -12.962  16.511  70.619  1.00  0.00     0.435 OA 
HETATM    7  C   UNL     1     -11.264  15.008  69.757  1.00  0.00    -0.301 C  
HETATM    8  C   UNL     1     -11.862  14.017  68.802  1.00  0.00    -0.396 C  
HETATM    9  C   UNL     1      -8.927  13.872  69.275  1.00  0.00     0.521 C  
HETATM   10  C   UNL     1      -7.509  12.378  67.273  1.00  0.00    -0.135 C  
HETATM   11  H   UNL     1     -13.712  16.694  70.066  1.00  0.00     0.000 HD 
HETATM   12  C   UNL     1     -11.114  13.029  68.269  1.00  0.00    -0.293 C  
HETATM   13  C   UNL     1      -7.387  13.987  69.122  1.00  0.00    -0.037 C  
HETATM   14  C   UNL     1      -9.640  12.965  68.295  1.00  0.00    -0.212 C  
HETATM   15  C   UNL     1      -8.945  12.212  67.419  1.00  0.00    -0.180 C  
HETATM   16  C   UNL     1      -9.643  11.179  66.579  1.00  0.00    -0.222 C  
HETATM   17  C   UNL     1      -8.794  10.375  65.618  1.00  0.00    -0.190 C  
HETATM   18  C   UNL     1      -7.347  10.294  66.010  1.00  0.00    -0.129 C  
HETATM   19  C   UNL     1      -6.741  11.470  66.654  1.00  0.00    -0.077 C  
HETATM   20  O   UNL     1      -6.650   9.318  65.728  1.00  0.00    -0.067 OA 
ENDROOT
BRANCH   4  21
HETATM   21  C   UNL     1     -11.059  17.777  70.637  1.00  0.00     2.200 C  
HETATM   22  C   UNL     1     -10.508  18.795  71.235  1.00  0.00     2.912 C  
ENDBRANCH   4  21
BRANCH   7  23
HETATM   23  C   UNL     1     -11.774  14.224  71.205  1.00  0.00    -0.097 C  
HETATM   24  C   UNL     1     -12.665  14.916  72.241  1.00  0.00    -0.411 C  
ENDBRANCH   7  23
TORSDOF 2
ENDMDL
MODEL      102
REMARK 921   NORMALIZED FREE ENERGY PREDICTED BY IDOCK:    7.61 KCAL/MOL
REMARK 922        TOTAL FREE ENERGY PREDICTED BY IDOCK:    9.72 KCAL/MOL
REMARK 923 INTER-LIGAND FREE ENERGY PREDICTED BY IDOCK:    6.90 KCAL/MOL
REMARK 924 INTRA-LIGAND FREE ENERGY PREDICTED BY IDOCK:    2.82 KCAL/MOL
REMARK 927      BINDING AFFINITY PREDICTED BY RF-SCORE:    0.00 PKD
ROOT
HETATM    1  C   UNL     1      -9.226  16.897  68.892  1.00  0.00    -0.229 C  
HETATM    2  C   UNL     1     -10.401  17.329  69.728  1.00  0.00     0.165 C  
HETATM    3  C   UNL     1     -10.497  18.645  69.007  1.00  0.00     0.134 C  
HETATM    4  C   UNL     1      -8.739  19.369  69.318  1.00  0.00     0.009 C  
HETATM    5  C   UNL     1      -9.585  13.399  68.933  1.00  0.00     0.155 C  
HETATM    6  O   UNL     1      -8.488  20.603  68.635  1.00  0.00     0.508 OA 
HETATM    7  C   UNL     1      -8.659  18.240  68.115  1.00  0.00    -0.290 C  
HETATM    8  C   UNL     1      -7.420  17.752  67.425  1.00  0.00    -0.210 C  
HETATM    9  C   UNL     1      -9.567  15.763  67.961  1.00  0.00    -0.210 C  
HETATM   10  C   UNL     1      -8.680  13.035  67.794  1.00  0.00    -0.188 C  
HETATM   11  H   UNL     1      -7.621  20.961  68.788  1.00  0.00     0.000 HD 
HETATM   12  C   UNL     1      -7.333  16.487  66.966  1.00  0.00    -0.245 C  
HETATM   13  C   UNL     1     -10.407  14.604  68.560  1.00  0.00    -0.238 C  
HETATM   14  C   UNL     1      -8.249  15.385  67.322  1.00  0.00    -0.222 C  
HETATM   15  C   UNL     1      -7.893  14.092  67.182  1.00  0.00    -0.063 C  
HETATM   16  C   UNL     1      -6.675  13.717  66.384  1.00  0.00     3.331 C  
HETATM   17  C   UNL     1      -6.342  12.245  66.275  1.00  0.00     1.337 C  
HETATM   18  C   UNL     1      -7.523  11.339  66.472  1.00  0.00    -0.105 C  
HETATM   19  C   UNL     1      -8.550  11.749  67.443  1.00  0.00    -0.160 C  
HETATM   20  O   UNL     1      -7.603  10.244  65.915  1.00  0.00    -0.122 OA 
ENDROOT
BRANCH   4  21
HETATM   21  C   UNL     1      -9.832  19.782  70.290  1.00  0.00     0.732 C  
HETATM   22  C   UNL     1     -10.769  20.135  71.124  1.00  0.00     3.444 C  
ENDBRANCH   4  21
BRANCH   7  23
HETATM   23  C   UNL     1      -9.374  18.991  66.737  1.00  0.00    -0.357 C  
HETATM   24  C   UNL     1      -9.376  20.509  66.542  1.00  0.00    -0.278 C  
ENDBRANCH   7  23
TORSDOF 2
ENDMDL
MODEL      103
REMARK 921   NORMALIZED FREE ENERGY PREDICTED BY IDOCK:    8.38 KCAL/MOL
REMARK 922        TOTAL FREE ENERGY PREDICTED BY IDOCK:   10.59 KCAL/MOL
REMARK 923 INTER-LIGAND FREE ENERGY PREDICTED BY IDOCK:    8.62 KCAL/MOL
REMARK 924 INTRA-LIGAND FREE ENERGY PREDICTED BY IDOCK:    1.96 KCAL/MOL
REMARK 927      BINDING AFFINITY PREDICTED BY RF-SCORE:    0.00 PKD
ROOT
HETATM    1  C   UNL     1      -9.453   7.575  68.554  1.00  0.00    -0.146 C  
HETATM    2  C   UNL     1      -8.038   7.118  68.328  1.00  0.00    -0.124 C  
HETATM    3  C   UNL     1      -8.497   5.845  67.674  1.00  0.00    -0.103 C  
HETATM    4  C   UNL     1      -9.577   5.076  69.072  1.00  0.00    -0.150 C  
HETATM    5  C   UNL     1      -9.075  11.072  68.513  1.00  0.00    -0.173 C  
HETATM    6  O   UNL     1     -10.261   3.877  68.689  1.00  0.00     0.267 OA 
HETATM    7  C   UNL     1     -10.433   6.268  68.313  1.00  0.00    -0.277 C  
HETATM    8  C   UNL     1     -11.795   6.773  68.692  1.00  0.00     0.865 C  
HETATM    9  C   UNL     1      -9.817   8.764  67.703  1.00  0.00    -0.228 C  
HETATM   10  C   UNL     1     -10.505  11.482  68.330  1.00  0.00    -0.219 C  
HETATM   11  H   UNL     1     -10.794   3.498  69.378  1.00  0.00     0.000 HD 
HETATM   12  C   UNL     1     -12.141   8.059  68.484  1.00  0.00     3.149 C  
HETATM   13  C   UNL     1      -8.766   9.903  67.617  1.00  0.00    -0.121 C  
HETATM   14  C   UNL     1     -11.203   9.155  68.166  1.00  0.00     0.286 C  
HETATM   15  C   UNL     1     -11.524  10.448  68.375  1.00  0.00    -0.227 C  
HETATM   16  C   UNL     1     -12.947  10.845  68.655  1.00  0.00     2.662 C  
HETATM   17  C   UNL     1     -13.226  12.316  68.880  1.00  0.00     3.342 C  
HETATM   18  C   UNL     1     -12.210  13.228  68.255  1.00  0.00    -0.059 C  
HETATM   19  C   UNL     1     -10.808  12.784  68.230  1.00  0.00    -0.270 C  
HETATM   20  O   UNL     1     -12.507  14.354  67.852  1.00  0.00    -0.092 OA 
ENDROOT
BRANCH   4  21
HETATM   21  C   UNL     1      -8.126   4.629  69.003  1.00  0.00    -0.077 C  
HETATM   22  C   UNL     1      -6.882   4.247  68.944  1.00  0.00    -0.047 C  
ENDBRANCH   4  21
BRANCH   7  23
HETATM   23  C   UNL     1     -10.882   5.605  66.787  1.00  0.00    -0.296 C  
HETATM   24  C   UNL     1     -10.128   5.935  65.497  1.00  0.00     0.659 C  
ENDBRANCH   7  23
TORSDOF 2
ENDMDL
MODEL      104
REMARK 921   NORMALIZED FREE ENERGY PREDICTED BY IDOCK:   10.39 KCAL/MOL
REMARK 922        TOTAL FREE ENERGY PREDICTED BY IDOCK:   12.83 KCAL/MOL
REMARK 923 INTER-LIGAND FREE ENERGY PREDICTED BY IDOCK:   11.58 KCAL/MOL
REMARK 924 INTRA-LIGAND FREE ENERGY PREDICTED BY IDOCK:    1.24 KCAL/MOL
REMARK 927      BINDING AFFINITY PREDICTED BY RF-SCORE:    0.00 PKD
ROOT
HETATM    1  C   UNL     1      -9.740  15.668  66.389  1.00  0.00    -0.302 C  
HETATM    2  C   UNL     1      -9.694  17.097  65.918  1.00  0.00    -0.140 C  
HETATM    3  C   UNL     1      -8.490  17.394  66.767  1.00  0.00    -0.280 C  
HETATM    4  C   UNL     1      -9.152  16.948  68.521  1.00  0.00    -0.257 C  
HETATM    5  C   UNL     1     -11.215  14.067  63.627  1.00  0.00     0.667 C  
HETATM    6  O   UNL     1      -8.163  17.023  69.555  1.00  0.00     0.148 OA 
HETATM    7  C   UNL     1      -8.762  15.559  67.715  1.00  0.00    -0.170 C  
HETATM    8  C   UNL     1      -8.975  14.154  68.197  1.00  0.00    -0.188 C  
HETATM    9  C   UNL     1      -9.385  14.691  65.298  1.00  0.00     0.553 C  
HETATM   10  C   UNL     1     -10.877  12.642  63.946  1.00  0.00    -0.468 C  
HETATM   11  H   UNL     1      -8.489  16.803  70.419  1.00  0.00     0.000 HD 
HETATM   12  C   UNL     1      -9.231  13.154  67.329  1.00  0.00    -0.221 C  
HETATM   13  C   UNL     1     -10.024  14.943  63.907  1.00  0.00     3.832 C  
HETATM   14  C   UNL     1      -9.620  13.330  65.916  1.00  0.00    -0.122 C  
HETATM   15  C   UNL     1     -10.253  12.358  65.227  1.00  0.00    -0.306 C  
HETATM   16  C   UNL     1     -10.320  10.958  65.770  1.00  0.00    -0.303 C  
HETATM   17  C   UNL     1     -11.049   9.924  64.939  1.00  0.00     2.674 C  
HETATM   18  C   UNL     1     -11.112  10.257  63.476  1.00  0.00     2.514 C  
HETATM   19  C   UNL     1     -11.246  11.672  63.097  1.00  0.00    -0.180 C  
HETATM   20  O   UNL     1     -11.143   9.381  62.610  1.00  0.00     5.171 OA 
ENDROOT
BRANCH   4  21
HETATM   21  C   UNL     1      -9.257  18.404  68.099  1.00  0.00    -0.327 C  
HETATM   22  C   UNL     1      -9.348  19.653  67.737  1.00  0.00    -0.427 C  
ENDBRANCH   4  21
BRANCH   7  23
HETATM   23  C   UNL     1      -7.039  15.509  67.703  1.00  0.00    -0.199 C  
HETATM   24  C   UNL     1      -6.241  14.564  68.605  1.00  0.00    -0.083 C  
ENDBRANCH   7  23
TORSDOF 2
ENDMDL
MODEL      105
REMARK 921   NORMALIZED FREE ENERGY PREDICTED BY IDOCK:   12.69 KCAL/MOL
REMARK 922        TOTAL FREE ENERGY PREDICTED BY IDOCK:   15.39 KCAL/MOL
REMARK 923 INTER-LIGAND FREE ENERGY PREDICTED BY IDOCK:   13.78 KCAL/MOL
REMARK 924 INTRA-LIGAND FREE ENERGY PREDICTED BY IDOCK:    1.61 KCAL/MOL
REMARK 927      BINDING AFFINITY PREDICTED BY RF-SCORE:    0.00 PKD
ROOT
HETATM    1  C   UNL     1      -6.919  10.131  71.164  1.00  0.00     0.625 C  
HETATM    2  C   UNL     1      -6.563  11.212  72.148  1.00  0.00     3.929 C  
HETATM    3  C   UNL     1      -7.509  12.185  71.502  1.00  0.00     8.317 C  
HETATM    4  C   UNL     1      -6.833  12.222  69.698  1.00  0.00     0.136 C  
HETATM    5  C   UNL     1      -6.341   7.232  73.069  1.00  0.00    -0.060 C  
HETATM    6  O   UNL     1      -7.627  12.999  68.793  1.00  0.00    -0.220 OA 
HETATM    7  C   UNL     1      -7.729  10.851  69.917  1.00  0.00     0.326 C  
HETATM    8  C   UNL     1      -7.919   9.739  68.929  1.00  0.00    -0.092 C  
HETATM    9  C   UNL     1      -7.683   9.000  71.803  1.00  0.00     0.083 C  
HETATM   10  C   UNL     1      -7.074   6.226  72.234  1.00  0.00    -0.083 C  
HETATM   11  H   UNL     1      -7.293  13.017  67.904  1.00  0.00     0.000 HD 
HETATM   12  C   UNL     1      -8.090   8.466  69.342  1.00  0.00    -0.114 C  
HETATM   13  C   UNL     1      -7.156   8.494  73.171  1.00  0.00    -0.052 C  
HETATM   14  C   UNL     1      -7.823   7.968  70.705  1.00  0.00    -0.091 C  
HETATM   15  C   UNL     1      -7.610   6.660  70.955  1.00  0.00    -0.085 C  
HETATM   16  C   UNL     1      -7.930   5.622  69.915  1.00  0.00    -0.095 C  
HETATM   17  C   UNL     1      -7.662   4.176  70.272  1.00  0.00    -0.048 C  
HETATM   18  C   UNL     1      -7.659   3.905  71.748  1.00  0.00    -0.061 C  
HETATM   19  C   UNL     1      -7.128   4.949  72.639  1.00  0.00    -0.078 C  
HETATM   20  O   UNL     1      -8.002   2.816  72.211  1.00  0.00    -0.053 OA 
ENDROOT
BRANCH   4  21
HETATM   21  C   UNL     1      -6.320  13.296  70.645  1.00  0.00     0.313 C  
HETATM   22  C   UNL     1      -5.880  14.216  71.456  1.00  0.00    -0.169 C  
ENDBRANCH   4  21
BRANCH   7  23
HETATM   23  C   UNL     1      -9.369  11.379  69.944  1.00  0.00     1.556 C  
HETATM   24  C   UNL     1     -10.145  11.708  68.666  1.00  0.00    -0.206 C  
ENDBRANCH   7  23
TORSDOF 2
ENDMDL
MODEL      106
REMARK 921   NORMALIZED FREE ENERGY PREDICTED BY IDOCK:   18.83 KCAL/MOL
REMARK 922        TOTAL FREE ENERGY PREDICTED BY IDOCK:   22.25 KCAL/MOL
REMARK 923 INTER-LIGAND FREE ENERGY PREDICTED BY IDOCK:   19.71 KCAL/MOL
REMARK 924 INTRA-LIGAND FREE ENERGY PREDICTED BY IDOCK:    2.54 KCAL/MOL
REMARK 927      BINDING AFFINITY PREDICTED BY RF-SCORE:    0.00 PKD
ROOT
HETATM    1  C   UNL     1      -8.821  17.224  69.269  1.00  0.00     0.178 C  
HETATM    2  C   UNL     1      -8.033  18.505  69.203  1.00  0.00    -0.033 C  
HETATM    3  C   UNL     1      -9.075  19.249  69.991  1.00  0.00     1.020 C  
HETATM    4  C   UNL     1     -10.634  18.984  68.889  1.00  0.00     0.352 C  
HETATM    5  C   UNL     1      -6.262  14.818  69.090  1.00  0.00    -0.105 C  
HETATM    6  O   UNL     1     -11.844  19.498  69.458  1.00  0.00     4.177 OA 
HETATM    7  C   UNL     1     -10.346  17.614  69.767  1.00  0.00     0.411 C  
HETATM    8  C   UNL     1     -11.092  16.316  69.670  1.00  0.00    -0.333 C  
HETATM    9  C   UNL     1      -8.155  16.183  70.131  1.00  0.00     1.267 C  
HETATM   10  C   UNL     1      -7.014  13.609  69.560  1.00  0.00     0.090 C  
HETATM   11  H   UNL     1     -12.613  19.368  68.915  1.00  0.00     0.000 HD 
HETATM   12  C   UNL     1     -10.472  15.141  69.897  1.00  0.00    -0.234 C  
HETATM   13  C   UNL     1      -6.626  16.003  69.944  1.00  0.00    -0.079 C  
HETATM   14  C   UNL     1      -9.010  14.946  69.962  1.00  0.00     0.507 C  
HETATM   15  C   UNL     1      -8.445  13.735  69.776  1.00  0.00     1.475 C  
HETATM   16  C   UNL     1      -9.287  12.490  69.793  1.00  0.00     2.358 C  
HETATM   17  C   UNL     1      -8.578  11.170  69.576  1.00  0.00     0.449 C  
HETATM   18  C   UNL     1      -7.120  11.198  69.931  1.00  0.00     0.086 C  
HETATM   19  C   UNL     1      -6.372  12.438  69.671  1.00  0.00    -0.107 C  
HETATM   20  O   UNL     1      -6.531  10.198  70.343  1.00  0.00    -0.107 OA 
ENDROOT
BRANCH   4  21
HETATM   21  C   UNL     1      -9.843  20.263  68.662  1.00  0.00    -0.180 C  
HETATM   22  C   UNL     1      -9.164  21.358  68.468  1.00  0.00     1.575 C  
ENDBRANCH   4  21
BRANCH   7  23
HETATM   23  C   UNL     1     -10.820  17.999  71.379  1.00  0.00     2.738 C  
HETATM   24  C   UNL     1     -10.050  19.001  72.242  1.00  0.00     4.204 C  
ENDBRANCH   7  23
TORSDOF 2
ENDMDL
MODEL      107
REMARK 921   NORMALIZED FREE ENERGY PREDICTED BY IDOCK:   24.46 KCAL/MOL
REMARK 922        TOTAL FREE ENERGY PREDICTED BY IDOCK:   28.55 KCAL/MOL
REMARK 923 INTER-LIGAND FREE ENERGY PREDICTED BY IDOCK:   27.20 KCAL/MOL
REMARK 924 INTRA-LIGAND FREE ENERGY PREDICTED BY IDOCK:    1.34 KCAL/MOL
REMARK 927      BINDING AFFINITY PREDICTED BY RF-SCORE:    0.00 PKD
ROOT
HETATM    1  C   UNL     1      -9.115   6.983  67.635  1.00  0.00    -0.122 C  
HETATM    2  C   UNL     1      -9.212   5.560  67.156  1.00  0.00    -0.111 C  
HETATM    3  C   UNL     1     -10.541   5.367  67.830  1.00  0.00    -0.172 C  
HETATM    4  C   UNL     1     -10.093   5.770  69.660  1.00  0.00    -0.212 C  
HETATM    5  C   UNL     1      -7.148   8.440  65.109  1.00  0.00    -0.075 C  
HETATM    6  O   UNL     1     -11.217   5.782  70.547  1.00  0.00    -0.270 OA 
HETATM    7  C   UNL     1     -10.254   7.180  68.815  1.00  0.00    -0.184 C  
HETATM    8  C   UNL     1      -9.995   8.566  69.327  1.00  0.00    -0.195 C  
HETATM    9  C   UNL     1      -9.235   7.978  66.511  1.00  0.00    -0.236 C  
HETATM   10  C   UNL     1      -7.409   9.890  65.386  1.00  0.00    -0.128 C  
HETATM   11  H   UNL     1     -10.996   5.980  71.450  1.00  0.00     0.000 HD 
HETATM   12  C   UNL     1      -9.541   9.536  68.508  1.00  0.00    -0.150 C  
HETATM   13  C   UNL     1      -8.434   7.666  65.219  1.00  0.00    -0.090 C  
HETATM   14  C   UNL     1      -8.977   9.320  67.161  1.00  0.00    -0.141 C  
HETATM   15  C   UNL     1      -8.178  10.232  66.570  1.00  0.00    -0.127 C  
HETATM   16  C   UNL     1      -8.072  11.626  67.124  1.00  0.00    -0.166 C  
HETATM   17  C   UNL     1      -7.154  12.591  66.405  1.00  0.00     1.151 C  
HETATM   18  C   UNL     1      -6.918  12.245  64.964  1.00  0.00     5.065 C  
HETATM   19  C   UNL     1      -6.850  10.820  64.600  1.00  0.00     0.312 C  
HETATM   20  O   UNL     1      -6.697  13.109  64.114  1.00  0.00    12.399 OA 
ENDROOT
BRANCH   4  21
HETATM   21  C   UNL     1     -10.050   4.307  69.249  1.00  0.00     0.067 C  
HETATM   22  C   UNL     1     -10.013   3.053  68.897  1.00  0.00     0.535 C  
ENDBRANCH   4  21
BRANCH   7  23
HETATM   23  C   UNL     1     -11.949   7.371  68.566  1.00  0.00     1.997 C  
HETATM   24  C   UNL     1     -12.555   8.661  68.009  1.00  0.00     8.057 C  
ENDBRANCH   7  23
TORSDOF 2
ENDMDL
MODEL      108
REMARK 921   NORMALIZED FREE ENERGY PREDICTED BY IDOCK:   34.77 KCAL/MOL
REMARK 922        TOTAL FREE ENERGY PREDICTED BY IDOCK:   40.06 KCAL/MOL
REMARK 923 INTER-LIGAND FREE ENERGY PREDICTED BY IDOCK:   38.74 KCAL/MOL
REMARK 924 INTRA-LIGAND FREE ENERGY PREDICTED BY IDOCK:    1.32 KCAL/MOL
REMARK 927      BINDING AFFINITY PREDICTED BY RF-SCORE:    0.00 PKD
ROOT
HETATM    1  C   UNL     1     -12.667  13.123  68.091  1.00  0.00     1.178 C  
HETATM    2  C   UNL     1     -13.660  13.554  67.045  1.00  0.00     5.558 C  
HETATM    3  C   UNL     1     -12.621  14.353  66.310  1.00  0.00    -0.116 C  
HETATM    4  C   UNL     1     -12.042  15.568  67.689  1.00  0.00     0.456 C  
HETATM    5  C   UNL     1     -14.003  10.028  69.092  1.00  0.00     5.681 C  
HETATM    6  O   UNL     1     -10.942  16.403  67.307  1.00  0.00    -0.249 OA 
HETATM    7  C   UNL     1     -11.340  14.092  67.932  1.00  0.00    -0.318 C  
HETATM    8  C   UNL     1     -10.471  13.694  69.088  1.00  0.00    -0.016 C  
HETATM    9  C   UNL     1     -12.351  11.652  68.013  1.00  0.00     0.650 C  
HETATM   10  C   UNL     1     -12.814   9.454  69.804  1.00  0.00     1.545 C  
HETATM   11  H   UNL     1     -10.657  17.002  67.987  1.00  0.00     0.000 HD 
HETATM   12  C   UNL     1     -10.464  12.425  69.545  1.00  0.00     0.478 C  
HETATM   13  C   UNL     1     -13.555  10.693  67.818  1.00  0.00    11.686 C  
HETATM   14  C   UNL     1     -11.462  11.391  69.209  1.00  0.00    -0.370 C  
HETATM   15  C   UNL     1     -11.651  10.306  69.987  1.00  0.00    -0.349 C  
HETATM   16  C   UNL     1     -10.657   9.952  71.058  1.00  0.00    -0.173 C  
HETATM   17  C   UNL     1     -10.941   8.719  71.890  1.00  0.00    -0.435 C  
HETATM   18  C   UNL     1     -11.825   7.717  71.207  1.00  0.00    -0.295 C  
HETATM   19  C   UNL     1     -12.893   8.225  70.331  1.00  0.00     0.903 C  
HETATM   20  O   UNL     1     -11.733   6.509  71.429  1.00  0.00    -0.302 OA 
ENDROOT
BRANCH   4  21
HETATM   21  C   UNL     1     -13.133  16.062  66.753  1.00  0.00     4.547 C  
HETATM   22  C   UNL     1     -14.068  16.487  65.951  1.00  0.00     9.138 C  
ENDBRANCH   4  21
BRANCH   7  23
HETATM   23  C   UNL     1     -10.127  13.960  66.714  1.00  0.00    -0.265 C  
HETATM   24  C   UNL     1      -8.738  13.383  67.000  1.00  0.00    -0.195 C  
ENDBRANCH   7  23
TORSDOF 2
ENDMDL
MODEL      109
REMARK 921   NORMALIZED FREE ENERGY PREDICTED BY IDOCK:   35.61 KCAL/MOL
REMARK 922        TOTAL FREE ENERGY PREDICTED BY IDOCK:   41.00 KCAL/MOL
REMARK 923 INTER-LIGAND FREE ENERGY PREDICTED BY IDOCK:   39.78 KCAL/MOL
REMARK 924 INTRA-LIGAND FREE ENERGY PREDICTED BY IDOCK:    1.22 KCAL/MOL
REMARK 927      BINDING AFFINITY PREDICTED BY RF-SCORE:    0.00 PKD
ROOT
HETATM    1  C   UNL     1     -10.326   7.500  69.221  1.00  0.00    -0.209 C  
HETATM    2  C   UNL     1     -11.163   6.362  69.740  1.00  0.00    -0.484 C  
HETATM    3  C   UNL     1     -10.989   5.583  68.466  1.00  0.00     0.082 C  
HETATM    4  C   UNL     1     -11.693   6.825  67.171  1.00  0.00     1.195 C  
HETATM    5  C   UNL     1      -9.012   8.818  72.205  1.00  0.00    -0.129 C  
HETATM    6  O   UNL     1     -11.550   6.393  65.812  1.00  0.00     1.202 OA 
HETATM    7  C   UNL     1     -10.163   7.284  67.592  1.00  0.00    -0.257 C  
HETATM    8  C   UNL     1      -9.444   8.522  67.142  1.00  0.00    -0.208 C  
HETATM    9  C   UNL     1      -9.011   7.623  69.946  1.00  0.00    -0.144 C  
HETATM   10  C   UNL     1      -7.897   9.653  71.648  1.00  0.00     1.089 C  
HETATM   11  H   UNL     1     -11.897   7.005  65.174  1.00  0.00     0.000 HD 
HETATM   12  C   UNL     1      -8.549   9.135  67.944  1.00  0.00    -0.121 C  
HETATM   13  C   UNL     1      -9.056   7.494  71.492  1.00  0.00    -0.146 C  
HETATM   14  C   UNL     1      -8.386   8.884  69.389  1.00  0.00    -0.112 C  
HETATM   15  C   UNL     1      -7.797   9.783  70.204  1.00  0.00    -0.196 C  
HETATM   16  C   UNL     1      -7.019  10.936  69.634  1.00  0.00    -0.128 C  
HETATM   17  C   UNL     1      -6.389  11.902  70.615  1.00  0.00     0.547 C  
HETATM   18  C   UNL     1      -6.132  11.309  71.970  1.00  0.00     1.965 C  
HETATM   19  C   UNL     1      -7.098  10.326  72.486  1.00  0.00     3.565 C  
HETATM   20  O   UNL     1      -5.197  11.686  72.678  1.00  0.00    -0.286 OA 
ENDROOT
BRANCH   4  21
HETATM   21  C   UNL     1     -12.656   5.783  67.717  1.00  0.00     8.670 C  
HETATM   22  C   UNL     1     -13.481   4.889  68.184  1.00  0.00    24.151 C  
ENDBRANCH   4  21
BRANCH   7  23
HETATM   23  C   UNL     1      -9.118   6.152  66.819  1.00  0.00    -0.137 C  
HETATM   24  C   UNL     1      -8.155   6.558  65.700  1.00  0.00    -0.128 C  
ENDBRANCH   7  23
TORSDOF 2
ENDMDL
MODEL      110
REMARK 921   NORMALIZED FREE ENERGY PREDICTED BY IDOCK:   57.23 KCAL/MOL
REMARK 922        TOTAL FREE ENERGY PREDICTED BY IDOCK:   65.14 KCAL/MOL
REMARK 923 INTER-LIGAND FREE ENERGY PREDICTED BY IDOCK:   62.16 KCAL/MOL
REMARK 924 INTRA-LIGAND FREE ENERGY PREDICTED BY IDOCK:    2.99 KCAL/MOL
REMARK 927      BINDING AFFINITY PREDICTED BY RF-SCORE:    0.00 PKD
ROOT
HETATM    1  C   UNL     1     -10.898  14.658  71.059  1.00  0.00     0.401 C  
HETATM    2  C   UNL     1     -11.831  14.546  72.234  1.00  0.00    -0.030 C  
HETATM    3  C   UNL     1     -13.017  14.936  71.397  1.00  0.00    -0.427 C  
HETATM    4  C   UNL     1     -12.456  16.656  70.734  1.00  0.00     2.062 C  
HETATM    5  C   UNL     1      -8.396  12.345  71.931  1.00  0.00    17.050 C  
HETATM    6  O   UNL     1     -13.360  17.240  69.788  1.00  0.00     6.015 OA 
HETATM    7  C   UNL     1     -11.706  15.466  69.868  1.00  0.00    -0.357 C  
HETATM    8  C   UNL     1     -10.668  15.654  68.801  1.00  0.00    -0.250 C  
HETATM    9  C   UNL     1     -10.362  13.319  70.621  1.00  0.00     3.725 C  
HETATM   10  C   UNL     1      -7.725  12.179  70.600  1.00  0.00     4.716 C  
HETATM   11  H   UNL     1     -13.083  18.088  69.461  1.00  0.00     0.000 HD 
HETATM   12  C   UNL     1      -9.700  14.736  68.606  1.00  0.00    -0.225 C  
HETATM   13  C   UNL     1      -9.889  12.360  71.745  1.00  0.00    14.855 C  
HETATM   14  C   UNL     1      -9.354  13.648  69.541  1.00  0.00     1.074 C  
HETATM   15  C   UNL     1      -8.152  13.037  69.508  1.00  0.00     1.167 C  
HETATM   16  C   UNL     1      -7.231  13.228  68.336  1.00  0.00    -0.110 C  
HETATM   17  C   UNL     1      -5.899  12.509  68.374  1.00  0.00    -0.057 C  
HETATM   18  C   UNL     1      -5.892  11.292  69.253  1.00  0.00    -0.049 C  
HETATM   19  C   UNL     1      -6.698  11.327  70.483  1.00  0.00     0.642 C  
HETATM   20  O   UNL     1      -5.172  10.322  69.014  1.00  0.00    -0.036 OA 
ENDROOT
BRANCH   4  21
HETATM   21  C   UNL     1     -13.305  16.651  71.996  1.00  0.00     2.470 C  
HETATM   22  C   UNL     1     -14.033  16.647  73.077  1.00  0.00     1.141 C  
ENDBRANCH   4  21
BRANCH   7  23
HETATM   23  C   UNL     1     -12.928  14.809  68.845  1.00  0.00     1.196 C  
HETATM   24  C   UNL     1     -14.371  14.609  69.317  1.00  0.00     7.182 C  
ENDBRANCH   7  23
TORSDOF 2
ENDMDL
MODEL      111
REMARK 921   NORMALIZED FREE ENERGY PREDICTED BY IDOCK:   60.15 KCAL/MOL
REMARK 922        TOTAL FREE ENERGY PREDICTED BY IDOCK:   68.41 KCAL/MOL
REMARK 923 INTER-LIGAND FREE ENERGY PREDICTED BY IDOCK:   65.81 KCAL/MOL
REMARK 924 INTRA-LIGAND FREE ENERGY PREDICTED BY IDOCK:    2.60 KCAL/MOL
REMARK 927      BINDING AFFINITY PREDICTED BY RF-SCORE:    0.00 PKD
ROOT
HETATM    1  C   UNL     1      -9.178  14.862  69.423  1.00  0.00    -0.046 C  
HETATM    2  C   UNL     1      -8.188  14.745  70.551  1.00  0.00     1.500 C  
HETATM    3  C   UNL     1      -8.185  13.244  70.463  1.00  0.00     4.804 C  
HETATM    4  C   UNL     1     -10.052  12.851  70.735  1.00  0.00     5.867 C  
HETATM    5  C   UNL     1      -8.345  18.006  68.086  1.00  0.00    -0.273 C  
HETATM    6  O   UNL     1     -10.384  11.465  70.587  1.00  0.00     1.205 OA 
HETATM    7  C   UNL     1      -9.822  13.361  69.180  1.00  0.00     0.351 C  
HETATM    8  C   UNL     1     -10.886  13.596  68.149  1.00  0.00    -0.262 C  
HETATM    9  C   UNL     1      -8.568  15.462  68.183  1.00  0.00    -0.152 C  
HETATM   10  C   UNL     1      -9.040  17.913  66.760  1.00  0.00    -0.276 C  
HETATM   11  H   UNL     1     -11.304  11.272  70.721  1.00  0.00     0.000 HD 
HETATM   12  C   UNL     1     -10.738  14.546  67.204  1.00  0.00    -0.286 C  
HETATM   13  C   UNL     1      -7.658  16.702  68.388  1.00  0.00    -0.197 C  
HETATM   14  C   UNL     1      -9.730  15.625  67.228  1.00  0.00    -0.219 C  
HETATM   15  C   UNL     1      -9.883  16.756  66.510  1.00  0.00    -0.303 C  
HETATM   16  C   UNL     1     -10.927  16.842  65.432  1.00  0.00    -0.062 C  
HETATM   17  C   UNL     1     -11.037  18.146  64.673  1.00  0.00     2.474 C  
HETATM   18  C   UNL     1      -9.776  18.961  64.681  1.00  0.00     4.739 C  
HETATM   19  C   UNL     1      -8.946  18.932  65.895  1.00  0.00     0.163 C  
HETATM   20  O   UNL     1      -9.476  19.705  63.746  1.00  0.00     7.388 OA 
ENDROOT
BRANCH   4  21
HETATM   21  C   UNL     1      -9.157  12.815  71.964  1.00  0.00    20.422 C  
HETATM   22  C   UNL     1      -8.389  12.785  73.016  1.00  0.00    19.256 C  
ENDBRANCH   4  21
BRANCH   7  23
HETATM   23  C   UNL     1      -9.051  12.044  68.378  1.00  0.00    -0.158 C  
HETATM   24  C   UNL     1      -7.647  11.564  68.755  1.00  0.00    -0.129 C  
ENDBRANCH   7  23
TORSDOF 2
ENDMDL
MODEL      112
REMARK 921   NORMALIZED FREE ENERGY PREDICTED BY IDOCK:   61.16 KCAL/MOL
REMARK 922        TOTAL FREE ENERGY PREDICTED BY IDOCK:   69.54 KCAL/MOL
REMARK 923 INTER-LIGAND FREE ENERGY PREDICTED BY IDOCK:   68.16 KCAL/MOL
REMARK 924 INTRA-LIGAND FREE ENERGY PREDICTED BY IDOCK:    1.38 KCAL/MOL
REMARK 927      BINDING AFFINITY PREDICTED BY RF-SCORE:    0.00 PKD
ROOT
HETATM    1  C   UNL     1      -8.196  11.613  71.525  1.00  0.00    11.130 C  
HETATM    2  C   UNL     1      -9.186  10.965  72.454  1.00  0.00    13.070 C  
HETATM    3  C   UNL     1      -8.414   9.676  72.465  1.00  0.00     2.964 C  
HETATM    4  C   UNL     1      -8.384   9.244  70.588  1.00  0.00    -0.207 C  
HETATM    5  C   UNL     1      -8.507  15.000  72.420  1.00  0.00     7.225 C  
HETATM    6  O   UNL     1      -7.595   8.091  70.267  1.00  0.00    -0.078 OA 
HETATM    7  C   UNL     1      -7.255  10.409  70.897  1.00  0.00     0.931 C  
HETATM    8  C   UNL     1      -6.400  11.118  69.889  1.00  0.00    -0.141 C  
HETATM    9  C   UNL     1      -7.405  12.705  72.198  1.00  0.00     9.870 C  
HETATM   10  C   UNL     1      -7.258  15.546  71.796  1.00  0.00     3.768 C  
HETATM   11  H   UNL     1      -7.580   7.878  69.341  1.00  0.00     0.000 HD 
HETATM   12  C   UNL     1      -6.010  12.395  70.084  1.00  0.00    -0.143 C  
HETATM   13  C   UNL     1      -8.203  13.688  73.093  1.00  0.00    11.594 C  
HETATM   14  C   UNL     1      -6.579  13.317  71.087  1.00  0.00     1.653 C  
HETATM   15  C   UNL     1      -6.461  14.655  70.969  1.00  0.00     0.271 C  
HETATM   16  C   UNL     1      -5.496  15.252  69.983  1.00  0.00    -0.121 C  
HETATM   17  C   UNL     1      -5.423  16.763  69.911  1.00  0.00    -0.194 C  
HETATM   18  C   UNL     1      -5.867  17.452  71.168  1.00  0.00     0.777 C  
HETATM   19  C   UNL     1      -6.968  16.847  71.933  1.00  0.00     6.550 C  
HETATM   20  O   UNL     1      -5.398  18.537  71.515  1.00  0.00    -0.341 OA 
ENDROOT
BRANCH   4  21
HETATM   21  C   UNL     1      -9.498   8.624  71.417  1.00  0.00    -0.306 C  
HETATM   22  C   UNL     1     -10.452   8.093  72.126  1.00  0.00    -0.352 C  
ENDBRANCH   4  21
BRANCH   7  23
HETATM   23  C   UNL     1      -5.972   9.595  71.712  1.00  0.00     0.090 C  
HETATM   24  C   UNL     1      -5.235  10.214  72.903  1.00  0.00     0.147 C  
ENDBRANCH   7  23
TORSDOF 2
ENDMDL
MODEL      113
REMARK 921   NORMALIZED FREE ENERGY PREDICTED BY IDOCK:   71.74 KCAL/MOL
REMARK 922        TOTAL FREE ENERGY PREDICTED BY IDOCK:   81.36 KCAL/MOL
REMARK 923 INTER-LIGAND FREE ENERGY PREDICTED BY IDOCK:   78.20 KCAL/MOL
REMARK 924 INTRA-LIGAND FREE ENERGY PREDICTED BY IDOCK:    3.15 KCAL/MOL
REMARK 927      BINDING AFFINITY PREDICTED BY RF-SCORE:    0.00 PKD
ROOT
HETATM    1  C   UNL     1     -11.417  13.981  66.023  1.00  0.00    -0.340 C  
HETATM    2  C   UNL     1     -11.302  15.383  65.486  1.00  0.00    -0.164 C  
HETATM    3  C   UNL     1     -10.068  15.651  66.302  1.00  0.00    -0.316 C  
HETATM    4  C   UNL     1     -10.720  15.321  68.084  1.00  0.00    -0.257 C  
HETATM    5  C   UNL     1     -13.028  12.342  63.362  1.00  0.00    -0.114 C  
HETATM    6  O   UNL     1      -9.709  15.388  69.097  1.00  0.00    -0.220 OA 
HETATM    7  C   UNL     1     -10.421  13.878  67.337  1.00  0.00    -0.263 C  
HETATM    8  C   UNL     1     -10.701  12.510  67.886  1.00  0.00    -0.239 C  
HETATM    9  C   UNL     1     -11.136  12.938  64.973  1.00  0.00    -0.320 C  
HETATM   10  C   UNL     1     -12.763  10.916  63.741  1.00  0.00     2.597 C  
HETATM   11  H   UNL     1     -10.030  15.225  69.976  1.00  0.00     0.000 HD 
HETATM   12  C   UNL     1     -11.027  11.488  67.069  1.00  0.00    -0.347 C  
HETATM   13  C   UNL     1     -11.786  13.162  63.582  1.00  0.00    -0.505 C  
HETATM   14  C   UNL     1     -11.433  11.621  65.656  1.00  0.00    -0.171 C  
HETATM   15  C   UNL     1     -12.131  10.656  65.023  1.00  0.00     3.301 C  
HETATM   16  C   UNL     1     -12.264   9.287  65.631  1.00  0.00    10.676 C  
HETATM   17  C   UNL     1     -13.064   8.259  64.859  1.00  0.00    22.816 C  
HETATM   18  C   UNL     1     -13.136   8.529  63.384  1.00  0.00    21.443 C  
HETATM   19  C   UNL     1     -13.199   9.931  62.943  1.00  0.00    10.325 C  
HETATM   20  O   UNL     1     -13.231   7.618  62.560  1.00  0.00    11.306 OA 
ENDROOT
BRANCH   4  21
HETATM   21  C   UNL     1     -10.753  16.761  67.598  1.00  0.00    -0.305 C  
HETATM   22  C   UNL     1     -10.782  17.995  67.180  1.00  0.00    -0.276 C  
ENDBRANCH   4  21
BRANCH   7  23
HETATM   23  C   UNL     1      -8.704  13.732  67.299  1.00  0.00    -0.226 C  
HETATM   24  C   UNL     1      -7.775  14.897  67.653  1.00  0.00    -0.197 C  
ENDBRANCH   7  23
TORSDOF 2
ENDMDL
