MODEL        1
REMARK 921   NORMALIZED FREE ENERGY PREDICTED BY IDOCK:   -5.76 KCAL/MOL
REMARK 922        TOTAL FREE ENERGY PREDICTED BY IDOCK:   -8.20 KCAL/MOL
REMARK 923 INTER-LIGAND FREE ENERGY PREDICTED BY IDOCK:   -8.12 KCAL/MOL
REMARK 924 INTRA-LIGAND FREE ENERGY PREDICTED BY IDOCK:   -0.08 KCAL/MOL
REMARK 927      BINDING AFFINITY PREDICTED BY RF-SCORE:    0.00 PKD
ROOT
HETATM    1  C   UNL     1      -8.104   9.760  66.043  1.00  0.00    -0.114 C  
HETATM    2  C   UNL     1      -7.037  10.320  65.293  1.00  0.00    -0.130 C  
HETATM    3  C   UNL     1      -7.509  11.097  66.465  1.00  0.00    -0.131 C  
HETATM    4  C   UNL     1      -8.786  10.060  67.717  1.00  0.00    -0.125 C  
HETATM    5  C   UNL     1     -11.711  13.804  63.857  1.00  0.00    -0.304 C  
HETATM    6  O   UNL     1     -11.949  16.129  63.929  1.00  0.00    -0.947 OA 
HETATM    7  C   UNL     1      -7.439  10.275  67.809  1.00  0.00    -0.088 C  
HETATM    8  C   UNL     1     -11.839  15.088  64.579  1.00  0.00    -0.371 C  
HETATM    9  C   UNL     1     -11.497  12.642  64.498  1.00  0.00    -0.389 C  
HETATM   10  C   UNL     1      -7.831  11.982  68.406  1.00  0.00    -0.147 C  
HETATM   11  C   UNL     1      -6.310   9.456  68.415  1.00  0.00    -0.053 C  
HETATM   12  C   UNL     1     -11.777  15.108  66.084  1.00  0.00     0.007 C  
HETATM   13  C   UNL     1     -11.277  11.349  63.741  1.00  0.00    -0.375 C  
HETATM   14  C   UNL     1      -9.282  12.571  67.745  1.00  0.00    -0.198 C  
HETATM   15  C   UNL     1     -11.925  13.753  66.755  1.00  0.00    -0.465 C  
HETATM   16  C   UNL     1      -9.666  10.627  65.634  1.00  0.00    -0.283 C  
HETATM   17  C   UNL     1      -9.868  12.169  66.259  1.00  0.00    -0.250 C  
HETATM   18  C   UNL     1      -9.976  10.614  64.121  1.00  0.00    -0.406 C  
HETATM   19  C   UNL     1     -11.360  12.538  66.008  1.00  0.00    -0.386 C  
ENDROOT
BRANCH   4  20
HETATM   20  C   UNL     1      -9.239  10.082  69.271  1.00  0.00    -0.203 C  
HETATM   21  O   UNL     1      -8.509   9.759  70.220  1.00  0.00    -0.190 OA 
HETATM   22  C   UNL     1     -10.671  10.404  69.622  1.00  0.00    -0.304 C  
ENDBRANCH   4  20
BRANCH   4  23
HETATM   23  O   UNL     1      -8.713   8.502  67.809  1.00  0.00    -0.135 OA 
BRANCH  23  24
HETATM   24  C   UNL     1      -9.799   7.695  67.773  1.00  0.00    -0.158 C  
HETATM   25  O   UNL     1     -10.726   7.794  66.990  1.00  0.00    -0.347 OA 
BRANCH  24  26
HETATM   26  C   UNL     1      -9.571   6.544  68.737  1.00  0.00    -0.126 C  
BRANCH  26  27
HETATM   27  C   UNL     1     -10.860   5.921  69.224  1.00  0.00    -0.414 C  
BRANCH  27  28
HETATM   28  C   UNL     1     -11.442   6.693  70.402  1.00  0.00    -0.444 C  
BRANCH  28  29
HETATM   29  C   UNL     1     -10.432   6.795  71.537  1.00  0.00    -0.236 C  
HETATM   30  C   UNL     1     -10.862   7.848  72.541  1.00  0.00    -0.403 C  
ENDBRANCH  28  29
ENDBRANCH  27  28
ENDBRANCH  26  27
ENDBRANCH  24  26
ENDBRANCH  23  24
ENDBRANCH   4  23
TORSDOF 7
ENDMDL
MODEL        2
REMARK 921   NORMALIZED FREE ENERGY PREDICTED BY IDOCK:   -5.64 KCAL/MOL
REMARK 922        TOTAL FREE ENERGY PREDICTED BY IDOCK:   -8.03 KCAL/MOL
REMARK 923 INTER-LIGAND FREE ENERGY PREDICTED BY IDOCK:   -8.01 KCAL/MOL
REMARK 924 INTRA-LIGAND FREE ENERGY PREDICTED BY IDOCK:   -0.02 KCAL/MOL
REMARK 927      BINDING AFFINITY PREDICTED BY RF-SCORE:    0.00 PKD
ROOT
HETATM    1  C   UNL     1      -8.969  11.721  66.657  1.00  0.00    -0.195 C  
HETATM    2  C   UNL     1      -9.092  10.609  65.783  1.00  0.00    -0.208 C  
HETATM    3  C   UNL     1     -10.355  11.228  66.258  1.00  0.00    -0.294 C  
HETATM    4  C   UNL     1     -10.107  13.049  67.205  1.00  0.00    -0.244 C  
HETATM    5  C   UNL     1     -10.745   8.375  71.106  1.00  0.00    -0.280 C  
HETATM    6  O   UNL     1     -12.671   7.206  71.728  1.00  0.00    -0.340 OA 
HETATM    7  C   UNL     1     -10.448  12.763  65.912  1.00  0.00    -0.295 C  
HETATM    8  C   UNL     1     -12.196   8.286  71.376  1.00  0.00    -0.299 C  
HETATM    9  C   UNL     1     -10.174   9.495  70.632  1.00  0.00    -0.364 C  
HETATM   10  C   UNL     1     -12.153  12.389  66.526  1.00  0.00    -0.179 C  
HETATM   11  C   UNL     1     -10.214  13.503  64.604  1.00  0.00    -0.341 C  
HETATM   12  C   UNL     1     -13.070   9.495  71.164  1.00  0.00    -0.336 C  
HETATM   13  C   UNL     1      -8.703   9.544  70.273  1.00  0.00    -0.270 C  
HETATM   14  C   UNL     1     -12.140  11.789  68.117  1.00  0.00    -0.040 C  
HETATM   15  C   UNL     1     -12.327  10.811  71.010  1.00  0.00    -0.509 C  
HETATM   16  C   UNL     1      -9.318  11.195  68.377  1.00  0.00    -0.185 C  
HETATM   17  C   UNL     1     -10.919  10.900  68.775  1.00  0.00    -0.285 C  
HETATM   18  C   UNL     1      -8.424  10.021  68.834  1.00  0.00    -0.132 C  
HETATM   19  C   UNL     1     -10.955  10.762  70.325  1.00  0.00    -0.160 C  
ENDROOT
BRANCH   4  20
HETATM   20  C   UNL     1     -10.967  14.389  67.493  1.00  0.00    -0.293 C  
HETATM   21  O   UNL     1     -11.283  15.221  66.630  1.00  0.00    -0.314 OA 
HETATM   22  C   UNL     1     -11.333  14.745  68.914  1.00  0.00    -0.302 C  
ENDBRANCH   4  20
BRANCH   4  23
HETATM   23  O   UNL     1      -8.888  13.963  66.858  1.00  0.00    -0.231 OA 
BRANCH  23  24
HETATM   24  C   UNL     1      -8.127  14.587  67.788  1.00  0.00    -0.158 C  
HETATM   25  O   UNL     1      -7.936  14.193  68.923  1.00  0.00    -0.126 OA 
BRANCH  24  26
HETATM   26  C   UNL     1      -7.407  15.743  67.117  1.00  0.00    -0.257 C  
BRANCH  26  27
HETATM   27  C   UNL     1      -8.321  16.581  66.250  1.00  0.00    -0.364 C  
BRANCH  27  28
HETATM   28  C   UNL     1      -8.401  18.018  66.752  1.00  0.00    -0.271 C  
BRANCH  28  29
HETATM   29  C   UNL     1      -9.848  18.433  66.978  1.00  0.00    -0.335 C  
HETATM   30  C   UNL     1     -10.258  18.180  68.417  1.00  0.00    -0.401 C  
ENDBRANCH  28  29
ENDBRANCH  27  28
ENDBRANCH  26  27
ENDBRANCH  24  26
ENDBRANCH  23  24
ENDBRANCH   4  23
TORSDOF 7
ENDMDL
MODEL        3
REMARK 921   NORMALIZED FREE ENERGY PREDICTED BY IDOCK:   -5.63 KCAL/MOL
REMARK 922        TOTAL FREE ENERGY PREDICTED BY IDOCK:   -8.01 KCAL/MOL
REMARK 923 INTER-LIGAND FREE ENERGY PREDICTED BY IDOCK:   -8.24 KCAL/MOL
REMARK 924 INTRA-LIGAND FREE ENERGY PREDICTED BY IDOCK:    0.22 KCAL/MOL
REMARK 927      BINDING AFFINITY PREDICTED BY RF-SCORE:    0.00 PKD
ROOT
HETATM    1  C   UNL     1      -7.955  11.999  67.273  1.00  0.00    -0.174 C  
HETATM    2  C   UNL     1      -7.082  12.679  68.162  1.00  0.00    -0.102 C  
HETATM    3  C   UNL     1      -7.713  11.434  68.667  1.00  0.00    -0.137 C  
HETATM    4  C   UNL     1      -8.656  10.307  67.213  1.00  0.00    -0.125 C  
HETATM    5  C   UNL     1     -12.520  13.769  70.461  1.00  0.00    -0.409 C  
HETATM    6  O   UNL     1     -13.343  13.454  72.627  1.00  0.00    -0.531 OA 
HETATM    7  C   UNL     1      -7.407  10.184  67.755  1.00  0.00    -0.088 C  
HETATM    8  C   UNL     1     -12.957  12.917  71.588  1.00  0.00    -0.313 C  
HETATM    9  C   UNL     1     -12.003  13.253  69.333  1.00  0.00    -0.356 C  
HETATM   10  C   UNL     1      -8.210   9.413  69.234  1.00  0.00    -0.111 C  
HETATM   11  C   UNL     1      -6.094   9.660  67.195  1.00  0.00    -0.063 C  
HETATM   12  C   UNL     1     -12.870  11.417  71.467  1.00  0.00    -0.508 C  
HETATM   13  C   UNL     1     -11.476  14.140  68.225  1.00  0.00    -0.335 C  
HETATM   14  C   UNL     1      -9.777  10.018  69.496  1.00  0.00    -0.253 C  
HETATM   15  C   UNL     1     -12.654  10.894  70.057  1.00  0.00    -0.253 C  
HETATM   16  C   UNL     1      -9.695  12.324  67.748  1.00  0.00    -0.199 C  
HETATM   17  C   UNL     1     -10.271  11.541  69.113  1.00  0.00    -0.038 C  
HETATM   18  C   UNL     1     -10.023  13.832  67.813  1.00  0.00    -0.242 C  
HETATM   19  C   UNL     1     -11.813  11.762  69.112  1.00  0.00    -0.389 C  
ENDROOT
BRANCH   4  20
HETATM   20  C   UNL     1      -9.067   8.762  66.957  1.00  0.00    -0.133 C  
HETATM   21  O   UNL     1      -8.269   7.864  66.651  1.00  0.00    -0.114 OA 
HETATM   22  C   UNL     1     -10.524   8.370  66.973  1.00  0.00    -0.375 C  
ENDBRANCH   4  20
BRANCH   4  23
HETATM   23  O   UNL     1      -8.185  10.379  65.725  1.00  0.00    -0.145 OA 
BRANCH  23  24
HETATM   24  C   UNL     1      -9.029  10.337  64.666  1.00  0.00    -0.211 C  
HETATM   25  O   UNL     1      -9.061   9.458  63.825  1.00  0.00    -0.193 OA 
BRANCH  24  26
HETATM   26  C   UNL     1     -10.041  11.458  64.818  1.00  0.00    -0.326 C  
BRANCH  26  27
HETATM   27  C   UNL     1     -10.645  11.887  63.499  1.00  0.00    -0.507 C  
BRANCH  27  28
HETATM   28  C   UNL     1     -12.155  12.061  63.608  1.00  0.00    -0.627 C  
BRANCH  28  29
HETATM   29  C   UNL     1     -12.536  12.669  64.951  1.00  0.00    -0.564 C  
HETATM   30  C   UNL     1     -12.476  14.184  64.887  1.00  0.00    -0.419 C  
ENDBRANCH  28  29
ENDBRANCH  27  28
ENDBRANCH  26  27
ENDBRANCH  24  26
ENDBRANCH  23  24
ENDBRANCH   4  23
TORSDOF 7
ENDMDL
MODEL        4
REMARK 921   NORMALIZED FREE ENERGY PREDICTED BY IDOCK:   -5.51 KCAL/MOL
REMARK 922        TOTAL FREE ENERGY PREDICTED BY IDOCK:   -7.85 KCAL/MOL
REMARK 923 INTER-LIGAND FREE ENERGY PREDICTED BY IDOCK:   -8.37 KCAL/MOL
REMARK 924 INTRA-LIGAND FREE ENERGY PREDICTED BY IDOCK:    0.53 KCAL/MOL
REMARK 927      BINDING AFFINITY PREDICTED BY RF-SCORE:    0.00 PKD
ROOT
HETATM    1  C   UNL     1     -11.454  11.890  67.292  1.00  0.00    -0.385 C  
HETATM    2  C   UNL     1     -11.889  12.316  66.009  1.00  0.00    -0.409 C  
HETATM    3  C   UNL     1     -10.426  12.332  66.258  1.00  0.00    -0.266 C  
HETATM    4  C   UNL     1      -9.844  11.353  67.983  1.00  0.00    -0.184 C  
HETATM    5  C   UNL     1     -10.187  17.428  68.658  1.00  0.00    -0.361 C  
HETATM    6  O   UNL     1      -8.713  19.093  67.936  1.00  0.00    -0.290 OA 
HETATM    7  C   UNL     1      -9.866  10.922  66.686  1.00  0.00    -0.237 C  
HETATM    8  C   UNL     1      -8.836  17.934  68.336  1.00  0.00    -0.289 C  
HETATM    9  C   UNL     1     -10.405  16.150  69.012  1.00  0.00    -0.258 C  
HETATM   10  C   UNL     1      -8.318  11.901  66.416  1.00  0.00     0.005 C  
HETATM   11  C   UNL     1     -10.059   9.546  66.067  1.00  0.00    -0.319 C  
HETATM   12  C   UNL     1      -7.647  17.014  68.448  1.00  0.00    -0.220 C  
HETATM   13  C   UNL     1     -11.804  15.622  69.250  1.00  0.00    -0.378 C  
HETATM   14  C   UNL     1      -8.252  13.276  67.414  1.00  0.00    -0.185 C  
HETATM   15  C   UNL     1      -7.897  15.725  69.212  1.00  0.00    -0.233 C  
HETATM   16  C   UNL     1     -11.006  13.348  68.306  1.00  0.00    -0.282 C  
HETATM   17  C   UNL     1      -9.565  14.122  67.935  1.00  0.00    -0.223 C  
HETATM   18  C   UNL     1     -12.155  14.374  68.415  1.00  0.00    -0.278 C  
HETATM   19  C   UNL     1      -9.299  15.112  69.107  1.00  0.00    -0.215 C  
ENDROOT
BRANCH   4  20
HETATM   20  C   UNL     1      -8.532  10.607  68.566  1.00  0.00    -0.136 C  
HETATM   21  O   UNL     1      -8.226   9.430  68.323  1.00  0.00    -0.115 OA 
HETATM   22  C   UNL     1      -7.653  11.322  69.564  1.00  0.00     0.126 C  
ENDBRANCH   4  20
BRANCH   4  23
HETATM   23  O   UNL     1     -10.706  10.186  68.561  1.00  0.00    -0.207 OA 
BRANCH  23  24
HETATM   24  C   UNL     1     -11.065  10.090  69.863  1.00  0.00    -0.288 C  
HETATM   25  O   UNL     1     -10.330   9.759  70.775  1.00  0.00    -0.294 OA 
BRANCH  24  26
HETATM   26  C   UNL     1     -12.470  10.645  70.014  1.00  0.00    -0.294 C  
BRANCH  26  27
HETATM   27  C   UNL     1     -12.741  11.192  71.398  1.00  0.00    -0.524 C  
BRANCH  27  28
HETATM   28  C   UNL     1     -12.715  12.716  71.410  1.00  0.00    -0.347 C  
BRANCH  28  29
HETATM   29  C   UNL     1     -13.773  13.270  72.354  1.00  0.00    -0.678 C  
HETATM   30  C   UNL     1     -14.342  14.570  71.815  1.00  0.00    -0.609 C  
ENDBRANCH  28  29
ENDBRANCH  27  28
ENDBRANCH  26  27
ENDBRANCH  24  26
ENDBRANCH  23  24
ENDBRANCH   4  23
TORSDOF 7
ENDMDL
MODEL        5
REMARK 921   NORMALIZED FREE ENERGY PREDICTED BY IDOCK:   -5.40 KCAL/MOL
REMARK 922        TOTAL FREE ENERGY PREDICTED BY IDOCK:   -7.69 KCAL/MOL
REMARK 923 INTER-LIGAND FREE ENERGY PREDICTED BY IDOCK:   -8.14 KCAL/MOL
REMARK 924 INTRA-LIGAND FREE ENERGY PREDICTED BY IDOCK:    0.45 KCAL/MOL
REMARK 927      BINDING AFFINITY PREDICTED BY RF-SCORE:    0.00 PKD
ROOT
HETATM    1  C   UNL     1      -7.891  10.075  68.636  1.00  0.00    -0.091 C  
HETATM    2  C   UNL     1      -7.037  10.796  69.510  1.00  0.00    -0.132 C  
HETATM    3  C   UNL     1      -7.918   9.774  70.129  1.00  0.00    -0.201 C  
HETATM    4  C   UNL     1      -8.844   8.516  68.776  1.00  0.00    -0.139 C  
HETATM    5  C   UNL     1     -12.469  13.049  70.719  1.00  0.00    -0.384 C  
HETATM    6  O   UNL     1     -13.593  13.290  72.755  1.00  0.00    -0.634 OA 
HETATM    7  C   UNL     1      -7.708   8.338  69.515  1.00  0.00    -0.101 C  
HETATM    8  C   UNL     1     -13.174  12.507  71.901  1.00  0.00    -0.392 C  
HETATM    9  C   UNL     1     -11.907  12.252  69.795  1.00  0.00    -0.388 C  
HETATM   10  C   UNL     1      -8.801   7.994  70.969  1.00  0.00    -0.153 C  
HETATM   11  C   UNL     1      -6.438   7.539  69.265  1.00  0.00    -0.039 C  
HETATM   12  C   UNL     1     -13.316  11.017  72.067  1.00  0.00    -0.393 C  
HETATM   13  C   UNL     1     -11.111  12.818  68.639  1.00  0.00    -0.304 C  
HETATM   14  C   UNL     1     -10.270   8.845  70.876  1.00  0.00    -0.304 C  
HETATM   15  C   UNL     1     -13.014  10.196  70.824  1.00  0.00    -0.380 C  
HETATM   16  C   UNL     1      -9.601  10.720  68.773  1.00  0.00    -0.194 C  
HETATM   17  C   UNL     1     -10.461  10.313  70.154  1.00  0.00    -0.259 C  
HETATM   18  C   UNL     1      -9.686  12.241  68.515  1.00  0.00    -0.142 C  
HETATM   19  C   UNL     1     -11.934  10.734  69.877  1.00  0.00    -0.418 C  
ENDROOT
BRANCH   4  20
HETATM   20  C   UNL     1      -9.464   7.021  68.743  1.00  0.00    -0.136 C  
HETATM   21  O   UNL     1      -8.791   5.982  68.670  1.00  0.00    -0.110 OA 
HETATM   22  C   UNL     1     -10.962   6.840  68.683  1.00  0.00    -0.261 C  
ENDBRANCH   4  20
BRANCH   4  23
HETATM   23  O   UNL     1      -8.187   8.223  67.389  1.00  0.00    -0.119 OA 
BRANCH  23  24
HETATM   24  C   UNL     1      -8.893   8.007  66.253  1.00  0.00    -0.162 C  
HETATM   25  O   UNL     1      -8.826   7.009  65.560  1.00  0.00    -0.083 OA 
BRANCH  24  26
HETATM   26  C   UNL     1      -9.909   9.125  66.104  1.00  0.00    -0.363 C  
BRANCH  26  27
HETATM   27  C   UNL     1      -9.581  10.070  64.968  1.00  0.00    -0.362 C  
BRANCH  27  28
HETATM   28  C   UNL     1     -10.529  11.263  64.944  1.00  0.00    -0.375 C  
BRANCH  28  29
HETATM   29  C   UNL     1     -10.707  11.786  63.526  1.00  0.00    -0.501 C  
HETATM   30  C   UNL     1     -12.075  12.420  63.358  1.00  0.00    -0.620 C  
ENDBRANCH  28  29
ENDBRANCH  27  28
ENDBRANCH  26  27
ENDBRANCH  24  26
ENDBRANCH  23  24
ENDBRANCH   4  23
TORSDOF 7
ENDMDL
MODEL        6
REMARK 921   NORMALIZED FREE ENERGY PREDICTED BY IDOCK:   -5.38 KCAL/MOL
REMARK 922        TOTAL FREE ENERGY PREDICTED BY IDOCK:   -7.67 KCAL/MOL
REMARK 923 INTER-LIGAND FREE ENERGY PREDICTED BY IDOCK:   -7.32 KCAL/MOL
REMARK 924 INTRA-LIGAND FREE ENERGY PREDICTED BY IDOCK:   -0.34 KCAL/MOL
REMARK 927      BINDING AFFINITY PREDICTED BY RF-SCORE:    0.00 PKD
ROOT
HETATM    1  C   UNL     1      -8.703   8.489  68.908  1.00  0.00    -0.131 C  
HETATM    2  C   UNL     1      -7.555   9.262  69.223  1.00  0.00    -0.080 C  
HETATM    3  C   UNL     1      -8.458   8.919  70.350  1.00  0.00    -0.181 C  
HETATM    4  C   UNL     1      -9.885   7.494  69.893  1.00  0.00    -0.187 C  
HETATM    5  C   UNL     1     -12.047  13.217  69.692  1.00  0.00    -0.331 C  
HETATM    6  O   UNL     1     -12.627  14.654  71.443  1.00  0.00    -0.299 OA 
HETATM    7  C   UNL     1      -8.671   7.365  70.508  1.00  0.00    -0.147 C  
HETATM    8  C   UNL     1     -12.565  13.488  71.050  1.00  0.00    -0.359 C  
HETATM    9  C   UNL     1     -11.867  11.968  69.232  1.00  0.00    -0.377 C  
HETATM   10  C   UNL     1      -9.463   8.034  72.041  1.00  0.00    -0.257 C  
HETATM   11  C   UNL     1      -7.666   6.225  70.561  1.00  0.00    -0.101 C  
HETATM   12  C   UNL     1     -12.953  12.339  71.944  1.00  0.00    -0.411 C  
HETATM   13  C   UNL     1     -11.250  11.705  67.874  1.00  0.00    -0.334 C  
HETATM   14  C   UNL     1     -10.723   9.118  71.686  1.00  0.00    -0.441 C  
HETATM   15  C   UNL     1     -13.097  10.997  71.245  1.00  0.00    -0.381 C  
HETATM   16  C   UNL     1     -10.182   9.571  68.877  1.00  0.00    -0.213 C  
HETATM   17  C   UNL     1     -10.780  10.088  70.356  1.00  0.00    -0.369 C  
HETATM   18  C   UNL     1     -10.027  10.766  67.912  1.00  0.00    -0.196 C  
HETATM   19  C   UNL     1     -12.168  10.726  70.055  1.00  0.00    -0.409 C  
ENDROOT
BRANCH   4  20
HETATM   20  C   UNL     1     -10.774   6.383  70.664  1.00  0.00    -0.257 C  
HETATM   21  O   UNL     1     -10.344   5.291  71.063  1.00  0.00    -0.224 OA 
HETATM   22  C   UNL     1     -12.258   6.605  70.831  1.00  0.00    -0.324 C  
ENDBRANCH   4  20
BRANCH   4  23
HETATM   23  O   UNL     1      -9.619   6.436  68.775  1.00  0.00    -0.126 OA 
BRANCH  23  24
HETATM   24  C   UNL     1     -10.508   6.133  67.800  1.00  0.00    -0.231 C  
HETATM   25  O   UNL     1     -11.399   6.863  67.406  1.00  0.00    -0.227 OA 
BRANCH  24  26
HETATM   26  C   UNL     1     -10.085   4.823  67.159  1.00  0.00    -0.210 C  
BRANCH  26  27
HETATM   27  C   UNL     1      -8.658   4.848  66.658  1.00  0.00    -0.109 C  
BRANCH  27  28
HETATM   28  C   UNL     1      -8.517   5.727  65.421  1.00  0.00    -0.151 C  
BRANCH  28  29
HETATM   29  C   UNL     1      -7.617   6.922  65.705  1.00  0.00    -0.091 C  
HETATM   30  C   UNL     1      -8.352   8.221  65.429  1.00  0.00    -0.170 C  
ENDBRANCH  28  29
ENDBRANCH  27  28
ENDBRANCH  26  27
ENDBRANCH  24  26
ENDBRANCH  23  24
ENDBRANCH   4  23
TORSDOF 7
ENDMDL
MODEL        7
REMARK 921   NORMALIZED FREE ENERGY PREDICTED BY IDOCK:   -5.37 KCAL/MOL
REMARK 922        TOTAL FREE ENERGY PREDICTED BY IDOCK:   -7.65 KCAL/MOL
REMARK 923 INTER-LIGAND FREE ENERGY PREDICTED BY IDOCK:   -8.09 KCAL/MOL
REMARK 924 INTRA-LIGAND FREE ENERGY PREDICTED BY IDOCK:    0.45 KCAL/MOL
REMARK 927      BINDING AFFINITY PREDICTED BY RF-SCORE:    0.00 PKD
ROOT
HETATM    1  C   UNL     1      -7.981   9.607  68.888  1.00  0.00    -0.089 C  
HETATM    2  C   UNL     1      -7.107  10.345  69.728  1.00  0.00    -0.148 C  
HETATM    3  C   UNL     1      -8.040   9.404  70.396  1.00  0.00    -0.197 C  
HETATM    4  C   UNL     1      -9.003   8.103  69.110  1.00  0.00    -0.144 C  
HETATM    5  C   UNL     1     -12.450  12.902  70.707  1.00  0.00    -0.370 C  
HETATM    6  O   UNL     1     -13.589  13.320  72.705  1.00  0.00    -0.634 OA 
HETATM    7  C   UNL     1      -7.886   7.923  69.877  1.00  0.00    -0.103 C  
HETATM    8  C   UNL     1     -13.193  12.468  71.909  1.00  0.00    -0.392 C  
HETATM    9  C   UNL     1     -11.912  12.025  69.844  1.00  0.00    -0.391 C  
HETATM   10  C   UNL     1      -9.012   7.721  71.332  1.00  0.00    -0.151 C  
HETATM   11  C   UNL     1      -6.649   7.057  69.698  1.00  0.00    -0.045 C  
HETATM   12  C   UNL     1     -13.404  10.998  72.166  1.00  0.00    -0.285 C  
HETATM   13  C   UNL     1     -11.076  12.482  68.667  1.00  0.00    -0.305 C  
HETATM   14  C   UNL     1     -10.441   8.626  71.162  1.00  0.00    -0.291 C  
HETATM   15  C   UNL     1     -13.122  10.089  70.982  1.00  0.00    -0.435 C  
HETATM   16  C   UNL     1      -9.662  10.334  68.957  1.00  0.00    -0.213 C  
HETATM   17  C   UNL     1     -10.557  10.053  70.347  1.00  0.00    -0.343 C  
HETATM   18  C   UNL     1      -9.677  11.837  68.602  1.00  0.00    -0.135 C  
HETATM   19  C   UNL     1     -12.006  10.518  70.021  1.00  0.00    -0.367 C  
ENDROOT
BRANCH   4  20
HETATM   20  C   UNL     1      -9.688   6.637  69.161  1.00  0.00    -0.145 C  
HETATM   21  O   UNL     1      -9.060   5.570  69.226  1.00  0.00    -0.110 OA 
HETATM   22  C   UNL     1     -11.184   6.512  69.011  1.00  0.00    -0.354 C  
ENDBRANCH   4  20
BRANCH   4  23
HETATM   23  O   UNL     1      -8.341   7.695  67.755  1.00  0.00    -0.117 OA 
BRANCH  23  24
HETATM   24  C   UNL     1      -9.030   7.536  66.600  1.00  0.00    -0.153 C  
HETATM   25  O   UNL     1      -9.020   6.538  65.904  1.00  0.00    -0.151 OA 
BRANCH  24  26
HETATM   26  C   UNL     1      -9.953   8.729  66.427  1.00  0.00    -0.346 C  
BRANCH  26  27
HETATM   27  C   UNL     1      -9.588   9.588  65.237  1.00  0.00    -0.314 C  
BRANCH  27  28
HETATM   28  C   UNL     1     -10.429  10.858  65.187  1.00  0.00    -0.316 C  
BRANCH  28  29
HETATM   29  C   UNL     1     -10.604  11.337  63.753  1.00  0.00    -0.455 C  
HETATM   30  C   UNL     1     -11.707  12.376  63.668  1.00  0.00    -0.596 C  
ENDBRANCH  28  29
ENDBRANCH  27  28
ENDBRANCH  26  27
ENDBRANCH  24  26
ENDBRANCH  23  24
ENDBRANCH   4  23
TORSDOF 7
ENDMDL
MODEL        8
REMARK 921   NORMALIZED FREE ENERGY PREDICTED BY IDOCK:   -5.34 KCAL/MOL
REMARK 922        TOTAL FREE ENERGY PREDICTED BY IDOCK:   -7.61 KCAL/MOL
REMARK 923 INTER-LIGAND FREE ENERGY PREDICTED BY IDOCK:   -7.84 KCAL/MOL
REMARK 924 INTRA-LIGAND FREE ENERGY PREDICTED BY IDOCK:    0.22 KCAL/MOL
REMARK 927      BINDING AFFINITY PREDICTED BY RF-SCORE:    0.00 PKD
ROOT
HETATM    1  C   UNL     1     -11.391  11.851  67.253  1.00  0.00    -0.393 C  
HETATM    2  C   UNL     1     -11.816  12.343  65.991  1.00  0.00    -0.459 C  
HETATM    3  C   UNL     1     -10.352  12.272  66.222  1.00  0.00    -0.257 C  
HETATM    4  C   UNL     1      -9.806  11.206  67.908  1.00  0.00    -0.174 C  
HETATM    5  C   UNL     1      -9.811  17.265  68.784  1.00  0.00    -0.306 C  
HETATM    6  O   UNL     1      -8.257  18.871  68.099  1.00  0.00    -0.290 OA 
HETATM    7  C   UNL     1      -9.865  10.820  66.597  1.00  0.00    -0.241 C  
HETATM    8  C   UNL     1      -8.438  17.708  68.462  1.00  0.00    -0.289 C  
HETATM    9  C   UNL     1     -10.095  15.989  69.099  1.00  0.00    -0.242 C  
HETATM   10  C   UNL     1      -8.269  11.722  66.341  1.00  0.00    -0.006 C  
HETATM   11  C   UNL     1     -10.138   9.478  65.936  1.00  0.00    -0.284 C  
HETATM   12  C   UNL     1      -7.300  16.722  68.530  1.00  0.00    -0.205 C  
HETATM   13  C   UNL     1     -11.518  15.530  69.337  1.00  0.00    -0.345 C  
HETATM   14  C   UNL     1      -8.118  13.058  67.382  1.00  0.00    -0.180 C  
HETATM   15  C   UNL     1      -7.612  15.424  69.254  1.00  0.00    -0.216 C  
HETATM   16  C   UNL     1     -10.854  13.250  68.309  1.00  0.00    -0.276 C  
HETATM   17  C   UNL     1      -9.378  13.956  67.946  1.00  0.00    -0.208 C  
HETATM   18  C   UNL     1     -11.945  14.332  68.465  1.00  0.00    -0.352 C  
HETATM   19  C   UNL     1      -9.046  14.891  69.146  1.00  0.00    -0.140 C  
ENDROOT
BRANCH   4  20
HETATM   20  C   UNL     1      -8.530  10.371  68.450  1.00  0.00    -0.124 C  
HETATM   21  O   UNL     1      -8.137   9.298  67.970  1.00  0.00    -0.103 OA 
HETATM   22  C   UNL     1      -7.810  10.839  69.691  1.00  0.00     0.023 C  
ENDBRANCH   4  20
BRANCH   4  23
HETATM   23  O   UNL     1     -10.725  10.069  68.457  1.00  0.00    -0.211 OA 
BRANCH  23  24
HETATM   24  C   UNL     1     -11.022   9.911  69.769  1.00  0.00    -0.268 C  
HETATM   25  O   UNL     1     -11.467  10.776  70.501  1.00  0.00    -0.313 OA 
BRANCH  24  26
HETATM   26  C   UNL     1     -10.890   8.438  70.114  1.00  0.00    -0.238 C  
BRANCH  26  27
HETATM   27  C   UNL     1     -11.411   8.109  71.496  1.00  0.00    -0.310 C  
BRANCH  27  28
HETATM   28  C   UNL     1     -12.468   7.012  71.446  1.00  0.00    -0.426 C  
BRANCH  28  29
HETATM   29  C   UNL     1     -13.869   7.606  71.470  1.00  0.00    -0.466 C  
HETATM   30  C   UNL     1     -13.890   8.890  72.279  1.00  0.00    -0.536 C  
ENDBRANCH  28  29
ENDBRANCH  27  28
ENDBRANCH  26  27
ENDBRANCH  24  26
ENDBRANCH  23  24
ENDBRANCH   4  23
TORSDOF 7
ENDMDL
MODEL        9
REMARK 921   NORMALIZED FREE ENERGY PREDICTED BY IDOCK:   -5.28 KCAL/MOL
REMARK 922        TOTAL FREE ENERGY PREDICTED BY IDOCK:   -7.53 KCAL/MOL
REMARK 923 INTER-LIGAND FREE ENERGY PREDICTED BY IDOCK:   -7.27 KCAL/MOL
REMARK 924 INTRA-LIGAND FREE ENERGY PREDICTED BY IDOCK:   -0.26 KCAL/MOL
REMARK 927      BINDING AFFINITY PREDICTED BY RF-SCORE:    0.00 PKD
ROOT
HETATM    1  C   UNL     1     -10.624   7.137  70.189  1.00  0.00    -0.247 C  
HETATM    2  C   UNL     1     -11.995   6.785  70.082  1.00  0.00    -0.244 C  
HETATM    3  C   UNL     1     -11.187   6.707  68.840  1.00  0.00    -0.273 C  
HETATM    4  C   UNL     1      -9.147   6.862  69.139  1.00  0.00    -0.136 C  
HETATM    5  C   UNL     1     -11.723  12.111  67.324  1.00  0.00    -0.369 C  
HETATM    6  O   UNL     1     -12.450  12.757  65.198  1.00  0.00    -0.491 OA 
HETATM    7  C   UNL     1      -9.937   5.757  68.985  1.00  0.00    -0.222 C  
HETATM    8  C   UNL     1     -11.635  12.100  65.849  1.00  0.00    -0.364 C  
HETATM    9  C   UNL     1     -10.927  11.348  68.093  1.00  0.00    -0.284 C  
HETATM   10  C   UNL     1      -9.955   6.118  67.170  1.00  0.00    -0.188 C  
HETATM   11  C   UNL     1      -9.825   4.336  69.516  1.00  0.00    -0.224 C  
HETATM   12  C   UNL     1     -10.596  11.247  65.168  1.00  0.00    -0.343 C  
HETATM   13  C   UNL     1     -11.089  11.300  69.598  1.00  0.00    -0.273 C  
HETATM   14  C   UNL     1      -9.831   7.783  66.850  1.00  0.00    -0.305 C  
HETATM   15  C   UNL     1      -9.495  10.723  66.076  1.00  0.00    -0.230 C  
HETATM   16  C   UNL     1     -10.365   8.817  69.502  1.00  0.00    -0.213 C  
HETATM   17  C   UNL     1     -10.407   8.973  67.833  1.00  0.00    -0.290 C  
HETATM   18  C   UNL     1     -11.272   9.878  70.165  1.00  0.00    -0.347 C  
HETATM   19  C   UNL     1      -9.878  10.405  67.526  1.00  0.00    -0.202 C  
ENDROOT
BRANCH   4  20
HETATM   20  C   UNL     1      -7.779   6.405  68.405  1.00  0.00    -0.104 C  
HETATM   21  O   UNL     1      -7.319   5.254  68.429  1.00  0.00    -0.069 OA 
HETATM   22  C   UNL     1      -6.917   7.444  67.729  1.00  0.00    -0.076 C  
ENDBRANCH   4  20
BRANCH   4  23
HETATM   23  O   UNL     1      -8.510   6.424  70.496  1.00  0.00    -0.134 OA 
BRANCH  23  24
HETATM   24  C   UNL     1      -7.839   7.266  71.319  1.00  0.00    -0.096 C  
HETATM   25  O   UNL     1      -7.249   8.271  70.970  1.00  0.00    -0.053 OA 
BRANCH  24  26
HETATM   26  C   UNL     1      -8.112   6.849  72.753  1.00  0.00    -0.114 C  
BRANCH  26  27
HETATM   27  C   UNL     1      -9.125   7.738  73.440  1.00  0.00    -0.336 C  
BRANCH  27  28
HETATM   28  C   UNL     1     -10.441   7.005  73.675  1.00  0.00    -0.414 C  
BRANCH  28  29
HETATM   29  C   UNL     1     -10.220   5.500  73.737  1.00  0.00    -0.246 C  
HETATM   30  C   UNL     1     -11.388   4.763  73.109  1.00  0.00    -0.380 C  
ENDBRANCH  28  29
ENDBRANCH  27  28
ENDBRANCH  26  27
ENDBRANCH  24  26
ENDBRANCH  23  24
ENDBRANCH   4  23
TORSDOF 7
ENDMDL
MODEL       10
REMARK 921   NORMALIZED FREE ENERGY PREDICTED BY IDOCK:   -5.28 KCAL/MOL
REMARK 922        TOTAL FREE ENERGY PREDICTED BY IDOCK:   -7.53 KCAL/MOL
REMARK 923 INTER-LIGAND FREE ENERGY PREDICTED BY IDOCK:   -7.42 KCAL/MOL
REMARK 924 INTRA-LIGAND FREE ENERGY PREDICTED BY IDOCK:   -0.10 KCAL/MOL
REMARK 927      BINDING AFFINITY PREDICTED BY RF-SCORE:    0.00 PKD
ROOT
HETATM    1  C   UNL     1      -8.687   8.602  68.988  1.00  0.00    -0.134 C  
HETATM    2  C   UNL     1      -7.562   9.373  69.382  1.00  0.00    -0.083 C  
HETATM    3  C   UNL     1      -8.505   8.969  70.455  1.00  0.00    -0.226 C  
HETATM    4  C   UNL     1      -9.892   7.549  69.880  1.00  0.00    -0.187 C  
HETATM    5  C   UNL     1     -12.124  13.249  69.845  1.00  0.00    -0.377 C  
HETATM    6  O   UNL     1     -12.792  14.599  71.632  1.00  0.00    -0.302 OA 
HETATM    7  C   UNL     1      -8.702   7.407  70.537  1.00  0.00    -0.147 C  
HETATM    8  C   UNL     1     -12.699  13.452  71.191  1.00  0.00    -0.328 C  
HETATM    9  C   UNL     1     -11.908  12.023  69.337  1.00  0.00    -0.384 C  
HETATM   10  C   UNL     1      -9.563   7.997  72.065  1.00  0.00    -0.262 C  
HETATM   11  C   UNL     1      -7.684   6.278  70.579  1.00  0.00    -0.101 C  
HETATM   12  C   UNL     1     -13.107  12.260  72.017  1.00  0.00    -0.461 C  
HETATM   13  C   UNL     1     -11.234  11.829  67.995  1.00  0.00    -0.324 C  
HETATM   14  C   UNL     1     -10.823   9.081  71.707  1.00  0.00    -0.437 C  
HETATM   15  C   UNL     1     -13.203  10.949  71.255  1.00  0.00    -0.287 C  
HETATM   16  C   UNL     1     -10.178   9.665  68.945  1.00  0.00    -0.214 C  
HETATM   17  C   UNL     1     -10.841  10.109  70.420  1.00  0.00    -0.365 C  
HETATM   18  C   UNL     1     -10.001  10.904  68.040  1.00  0.00    -0.188 C  
HETATM   19  C   UNL     1     -12.225  10.743  70.092  1.00  0.00    -0.425 C  
ENDROOT
BRANCH   4  20
HETATM   20  C   UNL     1     -10.796   6.394  70.565  1.00  0.00    -0.279 C  
HETATM   21  O   UNL     1     -10.371   5.282  70.912  1.00  0.00    -0.227 OA 
HETATM   22  C   UNL     1     -12.285   6.603  70.706  1.00  0.00    -0.302 C  
ENDBRANCH   4  20
BRANCH   4  23
HETATM   23  O   UNL     1      -9.568   6.545  68.728  1.00  0.00    -0.128 OA 
BRANCH  23  24
HETATM   24  C   UNL     1     -10.477   6.129  67.814  1.00  0.00    -0.231 C  
HETATM   25  O   UNL     1     -11.356   6.817  67.330  1.00  0.00    -0.274 OA 
BRANCH  24  26
HETATM   26  C   UNL     1     -10.093   4.732  67.362  1.00  0.00    -0.177 C  
BRANCH  26  27
HETATM   27  C   UNL     1      -8.598   4.551  67.217  1.00  0.00    -0.104 C  
BRANCH  27  28
HETATM   28  C   UNL     1      -8.073   3.477  68.162  1.00  0.00    -0.083 C  
BRANCH  28  29
HETATM   29  C   UNL     1      -9.209   2.604  68.677  1.00  0.00    -0.239 C  
HETATM   30  C   UNL     1      -8.920   2.130  70.090  1.00  0.00    -0.150 C  
ENDBRANCH  28  29
ENDBRANCH  27  28
ENDBRANCH  26  27
ENDBRANCH  24  26
ENDBRANCH  23  24
ENDBRANCH   4  23
TORSDOF 7
ENDMDL
MODEL       11
REMARK 921   NORMALIZED FREE ENERGY PREDICTED BY IDOCK:   -5.24 KCAL/MOL
REMARK 922        TOTAL FREE ENERGY PREDICTED BY IDOCK:   -7.47 KCAL/MOL
REMARK 923 INTER-LIGAND FREE ENERGY PREDICTED BY IDOCK:   -7.26 KCAL/MOL
REMARK 924 INTRA-LIGAND FREE ENERGY PREDICTED BY IDOCK:   -0.21 KCAL/MOL
REMARK 927      BINDING AFFINITY PREDICTED BY RF-SCORE:    0.00 PKD
ROOT
HETATM    1  C   UNL     1     -10.857   7.073  70.985  1.00  0.00    -0.264 C  
HETATM    2  C   UNL     1     -12.122   6.551  70.607  1.00  0.00    -0.265 C  
HETATM    3  C   UNL     1     -11.085   6.622  69.548  1.00  0.00    -0.378 C  
HETATM    4  C   UNL     1      -9.181   7.027  70.245  1.00  0.00    -0.156 C  
HETATM    5  C   UNL     1     -12.028  11.963  68.009  1.00  0.00    -0.204 C  
HETATM    6  O   UNL     1     -12.407  12.586  65.788  1.00  0.00    -0.627 OA 
HETATM    7  C   UNL     1      -9.772   5.836  69.928  1.00  0.00    -0.212 C  
HETATM    8  C   UNL     1     -11.654  12.016  66.579  1.00  0.00    -0.314 C  
HETATM    9  C   UNL     1     -11.303  11.281  68.912  1.00  0.00    -0.340 C  
HETATM   10  C   UNL     1      -9.484   6.255  68.149  1.00  0.00    -0.113 C  
HETATM   11  C   UNL     1      -9.578   4.423  70.456  1.00  0.00    -0.269 C  
HETATM   12  C   UNL     1     -10.399  11.328  66.109  1.00  0.00    -0.300 C  
HETATM   13  C   UNL     1     -11.746  11.160  70.354  1.00  0.00    -0.415 C  
HETATM   14  C   UNL     1      -9.523   7.933  67.876  1.00  0.00    -0.160 C  
HETATM   15  C   UNL     1      -9.436  10.918  67.211  1.00  0.00    -0.176 C  
HETATM   16  C   UNL     1     -10.695   8.795  70.379  1.00  0.00    -0.254 C  
HETATM   17  C   UNL     1     -10.431   9.004  68.737  1.00  0.00    -0.230 C  
HETATM   18  C   UNL     1     -11.845   9.706  70.860  1.00  0.00    -0.403 C  
HETATM   19  C   UNL     1     -10.048  10.502  68.554  1.00  0.00    -0.187 C  
ENDROOT
BRANCH   4  20
HETATM   20  C   UNL     1      -7.648   6.775  69.792  1.00  0.00    -0.104 C  
HETATM   21  O   UNL     1      -7.080   5.673  69.813  1.00  0.00    -0.060 OA 
HETATM   22  C   UNL     1      -6.782   7.954  69.417  1.00  0.00    -0.039 C  
ENDBRANCH   4  20
BRANCH   4  23
HETATM   23  O   UNL     1      -8.768   6.626  71.697  1.00  0.00    -0.130 OA 
BRANCH  23  24
HETATM   24  C   UNL     1      -8.404   7.518  72.649  1.00  0.00    -0.117 C  
HETATM   25  O   UNL     1      -8.134   8.688  72.453  1.00  0.00    -0.328 OA 
BRANCH  24  26
HETATM   26  C   UNL     1      -8.578   6.863  74.008  1.00  0.00    -0.176 C  
BRANCH  26  27
HETATM   27  C   UNL     1      -9.079   5.439  73.914  1.00  0.00    -0.122 C  
BRANCH  27  28
HETATM   28  C   UNL     1     -10.510   5.317  74.425  1.00  0.00    -0.277 C  
BRANCH  28  29
HETATM   29  C   UNL     1     -11.330   4.400  73.529  1.00  0.00    -0.334 C  
HETATM   30  C   UNL     1     -10.828   2.971  73.626  1.00  0.00    -0.310 C  
ENDBRANCH  28  29
ENDBRANCH  27  28
ENDBRANCH  26  27
ENDBRANCH  24  26
ENDBRANCH  23  24
ENDBRANCH   4  23
TORSDOF 7
ENDMDL
MODEL       12
REMARK 921   NORMALIZED FREE ENERGY PREDICTED BY IDOCK:   -5.23 KCAL/MOL
REMARK 922        TOTAL FREE ENERGY PREDICTED BY IDOCK:   -7.46 KCAL/MOL
REMARK 923 INTER-LIGAND FREE ENERGY PREDICTED BY IDOCK:   -7.92 KCAL/MOL
REMARK 924 INTRA-LIGAND FREE ENERGY PREDICTED BY IDOCK:    0.46 KCAL/MOL
REMARK 927      BINDING AFFINITY PREDICTED BY RF-SCORE:    0.00 PKD
ROOT
HETATM    1  C   UNL     1      -8.525  13.724  68.679  1.00  0.00    -0.056 C  
HETATM    2  C   UNL     1      -7.123  13.800  68.472  1.00  0.00    -0.106 C  
HETATM    3  C   UNL     1      -7.989  14.262  67.359  1.00  0.00    -0.211 C  
HETATM    4  C   UNL     1      -9.982  14.478  67.864  1.00  0.00    -0.226 C  
HETATM    5  C   UNL     1      -8.790   9.221  64.965  1.00  0.00    -0.238 C  
HETATM    6  O   UNL     1      -8.395   8.827  62.695  1.00  0.00    -0.185 OA 
HETATM    7  C   UNL     1      -8.981  15.407  67.795  1.00  0.00    -0.173 C  
HETATM    8  C   UNL     1      -8.989   9.511  63.530  1.00  0.00    -0.173 C  
HETATM    9  C   UNL     1      -9.332   9.982  65.931  1.00  0.00    -0.236 C  
HETATM   10  C   UNL     1      -9.189  15.379  65.956  1.00  0.00    -0.333 C  
HETATM   11  C   UNL     1      -8.733  16.703  68.550  1.00  0.00    -0.242 C  
HETATM   12  C   UNL     1      -9.864  10.666  63.116  1.00  0.00    -0.351 C  
HETATM   13  C   UNL     1      -9.045   9.727  67.395  1.00  0.00    -0.148 C  
HETATM   14  C   UNL     1      -9.704  13.858  65.396  1.00  0.00    -0.096 C  
HETATM   15  C   UNL     1     -10.745  11.235  64.215  1.00  0.00    -0.416 C  
HETATM   16  C   UNL     1      -9.204  12.283  67.773  1.00  0.00    -0.191 C  
HETATM   17  C   UNL     1      -9.331  12.420  66.107  1.00  0.00    -0.155 C  
HETATM   18  C   UNL     1      -8.506  10.958  68.153  1.00  0.00    -0.131 C  
HETATM   19  C   UNL     1     -10.187  11.205  65.644  1.00  0.00    -0.310 C  
ENDROOT
BRANCH   4  20
HETATM   20  C   UNL     1     -11.269  15.330  67.374  1.00  0.00    -0.311 C  
HETATM   21  O   UNL     1     -11.443  16.536  67.604  1.00  0.00    -0.027 OA 
HETATM   22  C   UNL     1     -12.409  14.621  66.684  1.00  0.00    -0.021 C  
ENDBRANCH   4  20
BRANCH   4  23
HETATM   23  O   UNL     1     -10.396  14.790  69.338  1.00  0.00    -0.217 OA 
BRANCH  23  24
HETATM   24  C   UNL     1     -11.537  14.337  69.910  1.00  0.00    -0.276 C  
HETATM   25  O   UNL     1     -11.894  13.174  69.949  1.00  0.00    -0.317 OA 
BRANCH  24  26
HETATM   26  C   UNL     1     -12.188  15.490  70.654  1.00  0.00    -0.445 C  
BRANCH  26  27
HETATM   27  C   UNL     1     -13.621  15.203  71.043  1.00  0.00    -0.473 C  
BRANCH  27  28
HETATM   28  C   UNL     1     -13.797  15.197  72.557  1.00  0.00    -0.602 C  
BRANCH  28  29
HETATM   29  C   UNL     1     -12.447  15.168  73.260  1.00  0.00    -0.598 C  
HETATM   30  C   UNL     1     -12.398  16.207  74.366  1.00  0.00    -0.659 C  
ENDBRANCH  28  29
ENDBRANCH  27  28
ENDBRANCH  26  27
ENDBRANCH  24  26
ENDBRANCH  23  24
ENDBRANCH   4  23
TORSDOF 7
ENDMDL
MODEL       13
REMARK 921   NORMALIZED FREE ENERGY PREDICTED BY IDOCK:   -5.14 KCAL/MOL
REMARK 922        TOTAL FREE ENERGY PREDICTED BY IDOCK:   -7.33 KCAL/MOL
REMARK 923 INTER-LIGAND FREE ENERGY PREDICTED BY IDOCK:   -7.34 KCAL/MOL
REMARK 924 INTRA-LIGAND FREE ENERGY PREDICTED BY IDOCK:    0.01 KCAL/MOL
REMARK 927      BINDING AFFINITY PREDICTED BY RF-SCORE:    0.00 PKD
ROOT
HETATM    1  C   UNL     1      -9.577  12.496  65.790  1.00  0.00    -0.137 C  
HETATM    2  C   UNL     1     -10.221  11.773  64.751  1.00  0.00    -0.324 C  
HETATM    3  C   UNL     1     -11.057  12.155  65.916  1.00  0.00    -0.360 C  
HETATM    4  C   UNL     1     -10.166  13.515  67.194  1.00  0.00    -0.247 C  
HETATM    5  C   UNL     1      -9.776   7.735  69.173  1.00  0.00    -0.161 C  
HETATM    6  O   UNL     1     -11.406   6.386  70.165  1.00  0.00    -0.361 OA 
HETATM    7  C   UNL     1     -11.060  13.710  66.178  1.00  0.00    -0.299 C  
HETATM    8  C   UNL     1     -10.971   7.529  70.017  1.00  0.00    -0.240 C  
HETATM    9  C   UNL     1      -9.300   8.961  68.894  1.00  0.00    -0.140 C  
HETATM   10  C   UNL     1     -12.380  13.109  67.328  1.00  0.00    -0.066 C  
HETATM   11  C   UNL     1     -11.296  14.877  65.232  1.00  0.00    -0.358 C  
HETATM   12  C   UNL     1     -11.664   8.717  70.633  1.00  0.00    -0.178 C  
HETATM   13  C   UNL     1      -8.130   9.162  67.954  1.00  0.00    -0.105 C  
HETATM   14  C   UNL     1     -11.784  11.974  68.444  1.00  0.00    -0.390 C  
HETATM   15  C   UNL     1     -10.871  10.013  70.607  1.00  0.00    -0.367 C  
HETATM   16  C   UNL     1      -9.238  11.376  67.200  1.00  0.00    -0.170 C  
HETATM   17  C   UNL     1     -10.545  10.929  68.150  1.00  0.00    -0.233 C  
HETATM   18  C   UNL     1      -8.419  10.132  66.791  1.00  0.00    -0.126 C  
HETATM   19  C   UNL     1      -9.941  10.239  69.408  1.00  0.00    -0.254 C  
ENDROOT
BRANCH   4  20
HETATM   20  C   UNL     1     -10.616  14.644  68.262  1.00  0.00    -0.235 C  
HETATM   21  O   UNL     1     -11.321  15.628  67.991  1.00  0.00    -0.343 OA 
HETATM   22  C   UNL     1     -10.071  14.594  69.669  1.00  0.00     0.071 C  
ENDBRANCH   4  20
BRANCH   4  23
HETATM   23  O   UNL     1      -9.090  14.514  66.662  1.00  0.00    -0.257 OA 
BRANCH  23  24
HETATM   24  C   UNL     1      -7.895  14.724  67.266  1.00  0.00    -0.194 C  
HETATM   25  O   UNL     1      -7.170  13.856  67.716  1.00  0.00    -0.131 OA 
BRANCH  24  26
HETATM   26  C   UNL     1      -7.534  16.190  67.111  1.00  0.00    -0.248 C  
BRANCH  26  27
HETATM   27  C   UNL     1      -8.514  16.949  66.244  1.00  0.00    -0.322 C  
BRANCH  27  28
HETATM   28  C   UNL     1      -9.136  18.118  66.998  1.00  0.00    -0.263 C  
BRANCH  28  29
HETATM   29  C   UNL     1     -10.499  18.473  66.420  1.00  0.00    -0.443 C  
HETATM   30  C   UNL     1     -10.420  19.759  65.617  1.00  0.00    -0.460 C  
ENDBRANCH  28  29
ENDBRANCH  27  28
ENDBRANCH  26  27
ENDBRANCH  24  26
ENDBRANCH  23  24
ENDBRANCH   4  23
TORSDOF 7
ENDMDL
MODEL       14
REMARK 921   NORMALIZED FREE ENERGY PREDICTED BY IDOCK:   -5.11 KCAL/MOL
REMARK 922        TOTAL FREE ENERGY PREDICTED BY IDOCK:   -7.29 KCAL/MOL
REMARK 923 INTER-LIGAND FREE ENERGY PREDICTED BY IDOCK:   -7.26 KCAL/MOL
REMARK 924 INTRA-LIGAND FREE ENERGY PREDICTED BY IDOCK:   -0.02 KCAL/MOL
REMARK 927      BINDING AFFINITY PREDICTED BY RF-SCORE:    0.00 PKD
ROOT
HETATM    1  C   UNL     1     -10.345  10.452  69.747  1.00  0.00    -0.252 C  
HETATM    2  C   UNL     1     -11.732  10.360  70.036  1.00  0.00    -0.366 C  
HETATM    3  C   UNL     1     -11.244   9.603  68.857  1.00  0.00    -0.020 C  
HETATM    4  C   UNL     1      -9.185   9.475  68.720  1.00  0.00    -0.140 C  
HETATM    5  C   UNL     1     -11.570  13.829  65.138  1.00  0.00    -0.341 C  
HETATM    6  O   UNL     1     -12.699  13.630  63.101  1.00  0.00    -0.737 OA 
HETATM    7  C   UNL     1     -10.096   8.586  69.219  1.00  0.00    -0.203 C  
HETATM    8  C   UNL     1     -11.827  13.170  63.840  1.00  0.00    -0.472 C  
HETATM    9  C   UNL     1     -10.700  13.330  66.032  1.00  0.00    -0.286 C  
HETATM   10  C   UNL     1     -10.495   8.130  67.470  1.00  0.00    -0.326 C  
HETATM   11  C   UNL     1     -10.007   7.537  70.317  1.00  0.00    -0.192 C  
HETATM   12  C   UNL     1     -11.063  11.925  63.470  1.00  0.00    -0.506 C  
HETATM   13  C   UNL     1     -10.514  13.964  67.395  1.00  0.00    -0.263 C  
HETATM   14  C   UNL     1     -10.282   9.440  66.407  1.00  0.00    -0.300 C  
HETATM   15  C   UNL     1      -9.841  11.639  64.326  1.00  0.00    -0.259 C  
HETATM   16  C   UNL     1     -10.085  11.591  68.335  1.00  0.00    -0.207 C  
HETATM   17  C   UNL     1     -10.493  11.022  66.812  1.00  0.00    -0.300 C  
HETATM   18  C   UNL     1     -10.703  12.986  68.573  1.00  0.00    -0.275 C  
HETATM   19  C   UNL     1      -9.909  12.053  65.802  1.00  0.00    -0.263 C  
ENDROOT
BRANCH   4  20
HETATM   20  C   UNL     1      -8.076   8.493  68.068  1.00  0.00    -0.115 C  
HETATM   21  O   UNL     1      -7.791   7.367  68.504  1.00  0.00    -0.117 OA 
HETATM   22  C   UNL     1      -7.230   8.987  66.920  1.00  0.00    -0.086 C  
ENDBRANCH   4  20
BRANCH   4  23
HETATM   23  O   UNL     1      -8.300   9.546  70.004  1.00  0.00    -0.142 OA 
BRANCH  23  24
HETATM   24  C   UNL     1      -7.134  10.231  70.077  1.00  0.00    -0.158 C  
HETATM   25  O   UNL     1      -6.915  11.308  69.554  1.00  0.00    -0.122 OA 
BRANCH  24  26
HETATM   26  C   UNL     1      -6.228   9.527  71.071  1.00  0.00    -0.079 C  
BRANCH  26  27
HETATM   27  C   UNL     1      -6.927   8.410  71.815  1.00  0.00    -0.093 C  
BRANCH  27  28
HETATM   28  C   UNL     1      -6.314   8.190  73.193  1.00  0.00    -0.089 C  
BRANCH  28  29
HETATM   29  C   UNL     1      -7.377   8.277  74.279  1.00  0.00    -0.239 C  
HETATM   30  C   UNL     1      -8.710   7.767  73.764  1.00  0.00    -0.318 C  
ENDBRANCH  28  29
ENDBRANCH  27  28
ENDBRANCH  26  27
ENDBRANCH  24  26
ENDBRANCH  23  24
ENDBRANCH   4  23
TORSDOF 7
ENDMDL
MODEL       15
REMARK 921   NORMALIZED FREE ENERGY PREDICTED BY IDOCK:   -5.03 KCAL/MOL
REMARK 922        TOTAL FREE ENERGY PREDICTED BY IDOCK:   -7.18 KCAL/MOL
REMARK 923 INTER-LIGAND FREE ENERGY PREDICTED BY IDOCK:   -7.31 KCAL/MOL
REMARK 924 INTRA-LIGAND FREE ENERGY PREDICTED BY IDOCK:    0.13 KCAL/MOL
REMARK 927      BINDING AFFINITY PREDICTED BY RF-SCORE:    0.00 PKD
ROOT
HETATM    1  C   UNL     1      -9.957  10.032  66.183  1.00  0.00    -0.322 C  
HETATM    2  C   UNL     1      -9.994  10.146  64.769  1.00  0.00    -0.334 C  
HETATM    3  C   UNL     1      -8.771  10.642  65.448  1.00  0.00    -0.195 C  
HETATM    4  C   UNL     1      -8.625  10.104  67.439  1.00  0.00    -0.122 C  
HETATM    5  C   UNL     1     -10.681  15.813  66.630  1.00  0.00    -0.287 C  
HETATM    6  O   UNL     1      -9.509  17.752  66.054  1.00  0.00    -0.502 OA 
HETATM    7  C   UNL     1      -8.071   9.535  66.326  1.00  0.00    -0.111 C  
HETATM    8  C   UNL     1      -9.476  16.668  66.639  1.00  0.00    -0.252 C  
HETATM    9  C   UNL     1     -10.688  14.582  67.169  1.00  0.00    -0.286 C  
HETATM   10  C   UNL     1      -6.825  10.903  66.342  1.00  0.00    -0.135 C  
HETATM   11  C   UNL     1      -7.681   8.103  65.995  1.00  0.00    -0.090 C  
HETATM   12  C   UNL     1      -8.219  16.180  67.311  1.00  0.00    -0.203 C  
HETATM   13  C   UNL     1     -11.902  13.682  67.071  1.00  0.00    -0.448 C  
HETATM   14  C   UNL     1      -7.465  12.341  66.985  1.00  0.00    -0.063 C  
HETATM   15  C   UNL     1      -8.399  14.978  68.223  1.00  0.00    -0.145 C  
HETATM   16  C   UNL     1     -10.281  11.668  66.942  1.00  0.00    -0.244 C  
HETATM   17  C   UNL     1      -9.043  12.797  66.875  1.00  0.00    -0.221 C  
HETATM   18  C   UNL     1     -11.608  12.296  66.462  1.00  0.00    -0.440 C  
HETATM   19  C   UNL     1      -9.471  13.954  67.826  1.00  0.00    -0.214 C  
ENDROOT
BRANCH   4  20
HETATM   20  C   UNL     1      -7.469   9.874  68.548  1.00  0.00    -0.082 C  
HETATM   21  O   UNL     1      -6.718   8.888  68.587  1.00  0.00    -0.057 OA 
HETATM   22  C   UNL     1      -7.337  10.846  69.695  1.00  0.00    -0.068 C  
ENDBRANCH   4  20
BRANCH   4  23
HETATM   23  O   UNL     1      -9.319   8.807  67.962  1.00  0.00    -0.141 OA 
BRANCH  23  24
HETATM   24  C   UNL     1      -9.818   8.673  69.214  1.00  0.00    -0.188 C  
HETATM   25  O   UNL     1      -9.469   7.837  70.027  1.00  0.00    -0.161 OA 
BRANCH  24  26
HETATM   26  C   UNL     1     -10.736   9.850  69.491  1.00  0.00    -0.265 C  
BRANCH  26  27
HETATM   27  C   UNL     1     -11.593   9.650  70.721  1.00  0.00    -0.395 C  
BRANCH  27  28
HETATM   28  C   UNL     1     -12.471  10.867  70.992  1.00  0.00    -0.514 C  
BRANCH  28  29
HETATM   29  C   UNL     1     -12.026  12.055  70.151  1.00  0.00    -0.401 C  
HETATM   30  C   UNL     1     -12.476  13.358  70.786  1.00  0.00    -0.418 C  
ENDBRANCH  28  29
ENDBRANCH  27  28
ENDBRANCH  26  27
ENDBRANCH  24  26
ENDBRANCH  23  24
ENDBRANCH   4  23
TORSDOF 7
ENDMDL
MODEL       16
REMARK 921   NORMALIZED FREE ENERGY PREDICTED BY IDOCK:   -4.97 KCAL/MOL
REMARK 922        TOTAL FREE ENERGY PREDICTED BY IDOCK:   -7.09 KCAL/MOL
REMARK 923 INTER-LIGAND FREE ENERGY PREDICTED BY IDOCK:   -7.42 KCAL/MOL
REMARK 924 INTRA-LIGAND FREE ENERGY PREDICTED BY IDOCK:    0.33 KCAL/MOL
REMARK 927      BINDING AFFINITY PREDICTED BY RF-SCORE:    0.00 PKD
ROOT
HETATM    1  C   UNL     1     -11.666  14.085  66.207  1.00  0.00    -0.401 C  
HETATM    2  C   UNL     1     -12.877  13.344  66.194  1.00  0.00     0.051 C  
HETATM    3  C   UNL     1     -11.889  12.990  67.243  1.00  0.00    -0.419 C  
HETATM    4  C   UNL     1     -10.337  14.342  67.441  1.00  0.00    -0.259 C  
HETATM    5  C   UNL     1      -8.831   9.413  64.138  1.00  0.00    -0.216 C  
HETATM    6  O   UNL     1      -8.331   7.241  64.844  1.00  0.00    -0.111 OA 
HETATM    7  C   UNL     1     -11.499  14.219  68.151  1.00  0.00    -0.336 C  
HETATM    8  C   UNL     1      -8.282   8.444  65.109  1.00  0.00    -0.157 C  
HETATM    9  C   UNL     1      -8.894  10.730  64.400  1.00  0.00    -0.132 C  
HETATM   10  C   UNL     1     -10.714  12.799  69.042  1.00  0.00    -0.136 C  
HETATM   11  C   UNL     1     -12.369  15.234  68.876  1.00  0.00    -0.007 C  
HETATM   12  C   UNL     1      -7.728   8.934  66.421  1.00  0.00    -0.095 C  
HETATM   13  C   UNL     1      -9.542  11.700  63.434  1.00  0.00    -0.308 C  
HETATM   14  C   UNL     1      -9.599  11.970  68.062  1.00  0.00    -0.199 C  
HETATM   15  C   UNL     1      -7.471  10.430  66.496  1.00  0.00    -0.119 C  
HETATM   16  C   UNL     1     -10.319  13.075  65.484  1.00  0.00    -0.304 C  
HETATM   17  C   UNL     1      -9.713  11.827  66.425  1.00  0.00    -0.234 C  
HETATM   18  C   UNL     1     -10.651  12.566  64.064  1.00  0.00    -0.451 C  
HETATM   19  C   UNL     1      -8.419  11.341  65.707  1.00  0.00    -0.018 C  
ENDROOT
BRANCH   4  20
HETATM   20  C   UNL     1      -9.295  14.828  68.581  1.00  0.00    -0.198 C  
HETATM   21  O   UNL     1      -9.547  15.679  69.446  1.00  0.00    -0.256 OA 
HETATM   22  C   UNL     1      -7.875  14.316  68.554  1.00  0.00    -0.143 C  
ENDBRANCH   4  20
BRANCH   4  23
HETATM   23  O   UNL     1     -10.537  15.841  67.052  1.00  0.00    -0.309 OA 
BRANCH  23  24
HETATM   24  C   UNL     1      -9.635  16.561  66.345  1.00  0.00    -0.285 C  
HETATM   25  O   UNL     1      -8.705  16.099  65.709  1.00  0.00    -0.334 OA 
BRANCH  24  26
HETATM   26  C   UNL     1     -10.091  18.009  66.324  1.00  0.00    -0.363 C  
BRANCH  26  27
HETATM   27  C   UNL     1     -10.547  18.502  67.680  1.00  0.00    -0.450 C  
BRANCH  27  28
HETATM   28  C   UNL     1      -9.772  19.741  68.112  1.00  0.00    -0.506 C  
BRANCH  28  29
HETATM   29  C   UNL     1      -8.423  19.358  68.703  1.00  0.00    -0.395 C  
HETATM   30  C   UNL     1      -7.292  19.907  67.853  1.00  0.00    -0.326 C  
ENDBRANCH  28  29
ENDBRANCH  27  28
ENDBRANCH  26  27
ENDBRANCH  24  26
ENDBRANCH  23  24
ENDBRANCH   4  23
TORSDOF 7
ENDMDL
MODEL       17
REMARK 921   NORMALIZED FREE ENERGY PREDICTED BY IDOCK:   -4.97 KCAL/MOL
REMARK 922        TOTAL FREE ENERGY PREDICTED BY IDOCK:   -7.09 KCAL/MOL
REMARK 923 INTER-LIGAND FREE ENERGY PREDICTED BY IDOCK:   -7.45 KCAL/MOL
REMARK 924 INTRA-LIGAND FREE ENERGY PREDICTED BY IDOCK:    0.36 KCAL/MOL
REMARK 927      BINDING AFFINITY PREDICTED BY RF-SCORE:    0.00 PKD
ROOT
HETATM    1  C   UNL     1     -11.501  12.167  67.242  1.00  0.00    -0.413 C  
HETATM    2  C   UNL     1     -12.008  12.677  66.018  1.00  0.00    -0.478 C  
HETATM    3  C   UNL     1     -10.532  12.656  66.172  1.00  0.00    -0.278 C  
HETATM    4  C   UNL     1      -9.862  11.564  67.796  1.00  0.00    -0.177 C  
HETATM    5  C   UNL     1     -10.042  17.591  68.853  1.00  0.00    -0.346 C  
HETATM    6  O   UNL     1      -8.584  19.274  68.138  1.00  0.00    -0.305 OA 
HETATM    7  C   UNL     1      -9.973  11.213  66.479  1.00  0.00    -0.252 C  
HETATM    8  C   UNL     1      -8.704  18.095  68.475  1.00  0.00    -0.296 C  
HETATM    9  C   UNL     1     -10.263  16.298  69.143  1.00  0.00    -0.266 C  
HETATM   10  C   UNL     1      -8.427  12.182  66.170  1.00  0.00     0.241 C  
HETATM   11  C   UNL     1     -10.232   9.881  65.793  1.00  0.00    -0.251 C  
HETATM   12  C   UNL     1      -7.529  17.152  68.456  1.00  0.00    -0.238 C  
HETATM   13  C   UNL     1     -11.654  15.779  69.438  1.00  0.00    -0.371 C  
HETATM   14  C   UNL     1      -8.271  13.493  67.242  1.00  0.00    -0.164 C  
HETATM   15  C   UNL     1      -7.756  15.823  69.156  1.00  0.00    -0.220 C  
HETATM   16  C   UNL     1     -10.961  13.554  68.311  1.00  0.00    -0.280 C  
HETATM   17  C   UNL     1      -9.532  14.326  67.895  1.00  0.00    -0.212 C  
HETATM   18  C   UNL     1     -12.081  14.590  68.554  1.00  0.00    -0.257 C  
HETATM   19  C   UNL     1      -9.174  15.239  69.105  1.00  0.00    -0.234 C  
ENDROOT
BRANCH   4  20
HETATM   20  C   UNL     1      -8.530  10.763  68.248  1.00  0.00    -0.130 C  
HETATM   21  O   UNL     1      -8.139   9.704  67.736  1.00  0.00    -0.111 OA 
HETATM   22  C   UNL     1      -7.743  11.246  69.443  1.00  0.00     0.083 C  
ENDBRANCH   4  20
BRANCH   4  23
HETATM   23  O   UNL     1     -10.709  10.378  68.357  1.00  0.00    -0.196 OA 
BRANCH  23  24
HETATM   24  C   UNL     1     -10.953  10.186  69.675  1.00  0.00    -0.264 C  
HETATM   25  O   UNL     1     -11.379  11.029  70.444  1.00  0.00    -0.277 OA 
BRANCH  24  26
HETATM   26  C   UNL     1     -10.791   8.708  69.980  1.00  0.00    -0.226 C  
BRANCH  26  27
HETATM   27  C   UNL     1     -11.527   8.282  71.232  1.00  0.00    -0.314 C  
BRANCH  27  28
HETATM   28  C   UNL     1     -11.989   6.833  71.141  1.00  0.00    -0.421 C  
BRANCH  28  29
HETATM   29  C   UNL     1     -11.247   6.095  70.035  1.00  0.00    -0.471 C  
HETATM   30  C   UNL     1     -10.252   5.112  70.622  1.00  0.00    -0.326 C  
ENDBRANCH  28  29
ENDBRANCH  27  28
ENDBRANCH  26  27
ENDBRANCH  24  26
ENDBRANCH  23  24
ENDBRANCH   4  23
TORSDOF 7
ENDMDL
MODEL       18
REMARK 921   NORMALIZED FREE ENERGY PREDICTED BY IDOCK:   -4.91 KCAL/MOL
REMARK 922        TOTAL FREE ENERGY PREDICTED BY IDOCK:   -7.00 KCAL/MOL
REMARK 923 INTER-LIGAND FREE ENERGY PREDICTED BY IDOCK:   -7.25 KCAL/MOL
REMARK 924 INTRA-LIGAND FREE ENERGY PREDICTED BY IDOCK:    0.25 KCAL/MOL
REMARK 927      BINDING AFFINITY PREDICTED BY RF-SCORE:    0.00 PKD
ROOT
HETATM    1  C   UNL     1      -8.358   9.745  69.985  1.00  0.00    -0.211 C  
HETATM    2  C   UNL     1      -7.038   9.811  70.504  1.00  0.00    -0.130 C  
HETATM    3  C   UNL     1      -7.329   8.703  69.560  1.00  0.00    -0.068 C  
HETATM    4  C   UNL     1      -9.131   8.887  68.562  1.00  0.00    -0.137 C  
HETATM    5  C   UNL     1      -9.408   5.086  73.352  1.00  0.00    -0.141 C  
HETATM    6  O   UNL     1      -8.627   2.892  73.561  1.00  0.00    -0.072 OA 
HETATM    7  C   UNL     1      -7.864   9.216  68.168  1.00  0.00    -0.099 C  
HETATM    8  C   UNL     1      -9.095   3.747  72.808  1.00  0.00    -0.100 C  
HETATM    9  C   UNL     1      -9.835   6.093  72.571  1.00  0.00    -0.180 C  
HETATM   10  C   UNL     1      -7.580   7.415  67.848  1.00  0.00    -0.114 C  
HETATM   11  C   UNL     1      -7.328  10.288  67.231  1.00  0.00    -0.090 C  
HETATM   12  C   UNL     1      -9.301   3.471  71.341  1.00  0.00    -0.213 C  
HETATM   13  C   UNL     1     -10.064   7.483  73.126  1.00  0.00    -0.362 C  
HETATM   14  C   UNL     1      -8.490   6.431  68.893  1.00  0.00    -0.121 C  
HETATM   15  C   UNL     1     -10.138   4.500  70.601  1.00  0.00    -0.232 C  
HETATM   16  C   UNL     1      -9.290   8.419  70.840  1.00  0.00    -0.201 C  
HETATM   17  C   UNL     1      -8.915   6.837  70.432  1.00  0.00    -0.152 C  
HETATM   18  C   UNL     1      -9.299   8.592  72.375  1.00  0.00    -0.349 C  
HETATM   19  C   UNL     1     -10.029   5.957  71.070  1.00  0.00    -0.239 C  
ENDROOT
BRANCH   4  20
HETATM   20  C   UNL     1      -9.800   8.394  67.173  1.00  0.00    -0.215 C  
HETATM   21  O   UNL     1      -9.563   8.892  66.063  1.00  0.00    -0.245 OA 
HETATM   22  C   UNL     1     -10.873   7.332  67.202  1.00  0.00    -0.378 C  
ENDBRANCH   4  20
BRANCH   4  23
HETATM   23  O   UNL     1      -9.755  10.296  68.307  1.00  0.00    -0.139 OA 
BRANCH  23  24
HETATM   24  C   UNL     1     -11.077  10.566  68.429  1.00  0.00    -0.281 C  
HETATM   25  O   UNL     1     -11.798  10.974  67.537  1.00  0.00    -0.571 OA 
BRANCH  24  26
HETATM   26  C   UNL     1     -11.537  10.094  69.796  1.00  0.00    -0.245 C  
BRANCH  26  27
HETATM   27  C   UNL     1     -12.273  11.165  70.571  1.00  0.00    -0.475 C  
BRANCH  27  28
HETATM   28  C   UNL     1     -13.128  10.563  71.679  1.00  0.00    -0.551 C  
BRANCH  28  29
HETATM   29  C   UNL     1     -12.996   9.046  71.703  1.00  0.00    -0.418 C  
HETATM   30  C   UNL     1     -14.289   8.405  72.173  1.00  0.00    -0.520 C  
ENDBRANCH  28  29
ENDBRANCH  27  28
ENDBRANCH  26  27
ENDBRANCH  24  26
ENDBRANCH  23  24
ENDBRANCH   4  23
TORSDOF 7
ENDMDL
MODEL       19
REMARK 921   NORMALIZED FREE ENERGY PREDICTED BY IDOCK:   -4.89 KCAL/MOL
REMARK 922        TOTAL FREE ENERGY PREDICTED BY IDOCK:   -6.98 KCAL/MOL
REMARK 923 INTER-LIGAND FREE ENERGY PREDICTED BY IDOCK:   -7.31 KCAL/MOL
REMARK 924 INTRA-LIGAND FREE ENERGY PREDICTED BY IDOCK:    0.33 KCAL/MOL
REMARK 927      BINDING AFFINITY PREDICTED BY RF-SCORE:    0.00 PKD
ROOT
HETATM    1  C   UNL     1      -8.309   9.723  66.123  1.00  0.00    -0.122 C  
HETATM    2  C   UNL     1      -7.217  10.281  65.408  1.00  0.00    -0.143 C  
HETATM    3  C   UNL     1      -7.746  11.075  66.545  1.00  0.00    -0.154 C  
HETATM    4  C   UNL     1      -9.064  10.046  67.761  1.00  0.00    -0.131 C  
HETATM    5  C   UNL     1     -11.862  13.688  63.714  1.00  0.00    -0.373 C  
HETATM    6  O   UNL     1     -12.126  16.011  63.733  1.00  0.00    -0.882 OA 
HETATM    7  C   UNL     1      -7.724  10.278  67.905  1.00  0.00    -0.089 C  
HETATM    8  C   UNL     1     -12.033  14.983  64.406  1.00  0.00    -0.353 C  
HETATM    9  C   UNL     1     -11.663  12.541  64.385  1.00  0.00    -0.432 C  
HETATM   10  C   UNL     1      -8.158  11.991  68.454  1.00  0.00    -0.154 C  
HETATM   11  C   UNL     1      -6.614   9.482  68.574  1.00  0.00    -0.053 C  
HETATM   12  C   UNL     1     -12.034  15.031  65.912  1.00  0.00     0.061 C  
HETATM   13  C   UNL     1     -11.399  11.236  63.662  1.00  0.00    -0.134 C  
HETATM   14  C   UNL     1      -9.586  12.552  67.722  1.00  0.00    -0.203 C  
HETATM   15  C   UNL     1     -12.197  13.687  66.601  1.00  0.00    -0.437 C  
HETATM   16  C   UNL     1      -9.861  10.566  65.633  1.00  0.00    -0.311 C  
HETATM   17  C   UNL     1     -10.105  12.117  66.221  1.00  0.00    -0.247 C  
HETATM   18  C   UNL     1     -10.107  10.522  64.109  1.00  0.00    -0.351 C  
HETATM   19  C   UNL     1     -11.589  12.465  65.901  1.00  0.00    -0.449 C  
ENDROOT
BRANCH   4  20
HETATM   20  C   UNL     1      -9.582  10.091  69.294  1.00  0.00    -0.216 C  
HETATM   21  O   UNL     1      -8.903   9.754  70.276  1.00  0.00    -0.225 OA 
HETATM   22  C   UNL     1     -11.018  10.457  69.582  1.00  0.00    -0.325 C  
ENDBRANCH   4  20
BRANCH   4  23
HETATM   23  O   UNL     1      -8.979   8.492  67.886  1.00  0.00    -0.136 OA 
BRANCH  23  24
HETATM   24  C   UNL     1     -10.061   7.678  67.902  1.00  0.00    -0.185 C  
HETATM   25  O   UNL     1     -10.953   7.674  67.074  1.00  0.00    -0.277 OA 
BRANCH  24  26
HETATM   26  C   UNL     1      -9.872   6.655  69.009  1.00  0.00    -0.149 C  
BRANCH  26  27
HETATM   27  C   UNL     1     -10.146   5.239  68.553  1.00  0.00    -0.232 C  
BRANCH  27  28
HETATM   28  C   UNL     1      -9.063   4.739  67.605  1.00  0.00    -0.128 C  
BRANCH  28  29
HETATM   29  C   UNL     1      -9.362   3.321  67.139  1.00  0.00    -0.212 C  
HETATM   30  C   UNL     1      -9.408   2.369  68.320  1.00  0.00    -0.265 C  
ENDBRANCH  28  29
ENDBRANCH  27  28
ENDBRANCH  26  27
ENDBRANCH  24  26
ENDBRANCH  23  24
ENDBRANCH   4  23
TORSDOF 7
ENDMDL
MODEL       20
REMARK 921   NORMALIZED FREE ENERGY PREDICTED BY IDOCK:   -4.87 KCAL/MOL
REMARK 922        TOTAL FREE ENERGY PREDICTED BY IDOCK:   -6.94 KCAL/MOL
REMARK 923 INTER-LIGAND FREE ENERGY PREDICTED BY IDOCK:   -7.05 KCAL/MOL
REMARK 924 INTRA-LIGAND FREE ENERGY PREDICTED BY IDOCK:    0.11 KCAL/MOL
REMARK 927      BINDING AFFINITY PREDICTED BY RF-SCORE:    0.00 PKD
ROOT
HETATM    1  C   UNL     1      -9.169  12.632  67.293  1.00  0.00    -0.195 C  
HETATM    2  C   UNL     1      -8.871  12.377  68.657  1.00  0.00     0.035 C  
HETATM    3  C   UNL     1     -10.120  13.128  68.376  1.00  0.00    -0.231 C  
HETATM    4  C   UNL     1     -10.680  13.132  66.386  1.00  0.00    -0.284 C  
HETATM    5  C   UNL     1      -7.795  18.256  68.085  1.00  0.00    -0.299 C  
HETATM    6  O   UNL     1      -8.588  20.072  69.326  1.00  0.00     0.061 OA 
HETATM    7  C   UNL     1     -11.099  12.344  67.421  1.00  0.00    -0.320 C  
HETATM    8  C   UNL     1      -8.863  19.180  68.521  1.00  0.00    -0.367 C  
HETATM    9  C   UNL     1      -8.042  17.208  67.281  1.00  0.00    -0.206 C  
HETATM   10  C   UNL     1     -12.142  13.766  67.980  1.00  0.00    -0.315 C  
HETATM   11  C   UNL     1     -11.607  10.911  67.477  1.00  0.00    -0.102 C  
HETATM   12  C   UNL     1     -10.271  18.984  68.021  1.00  0.00    -0.476 C  
HETATM   13  C   UNL     1      -6.956  16.217  66.916  1.00  0.00    -0.226 C  
HETATM   14  C   UNL     1     -11.445  15.264  67.578  1.00  0.00    -0.271 C  
HETATM   15  C   UNL     1     -10.410  18.045  66.834  1.00  0.00    -0.377 C  
HETATM   16  C   UNL     1      -8.776  14.377  66.892  1.00  0.00    -0.218 C  
HETATM   17  C   UNL     1      -9.826  15.548  67.472  1.00  0.00    -0.220 C  
HETATM   18  C   UNL     1      -7.315  14.750  67.228  1.00  0.00    -0.147 C  
HETATM   19  C   UNL     1      -9.427  16.871  66.754  1.00  0.00    -0.269 C  
ENDROOT
BRANCH   4  20
HETATM   20  C   UNL     1     -12.033  13.288  65.511  1.00  0.00    -0.405 C  
HETATM   21  O   UNL     1     -12.832  12.368  65.280  1.00  0.00    -0.557 OA 
HETATM   22  C   UNL     1     -12.322  14.598  64.818  1.00  0.00    -0.362 C  
ENDBRANCH   4  20
BRANCH   4  23
HETATM   23  O   UNL     1     -10.262  11.959  65.442  1.00  0.00    -0.246 OA 
BRANCH  23  24
HETATM   24  C   UNL     1      -9.958  12.120  64.132  1.00  0.00    -0.252 C  
HETATM   25  O   UNL     1      -9.740  13.184  63.584  1.00  0.00     0.241 OA 
BRANCH  24  26
HETATM   26  C   UNL     1      -9.748  10.747  63.520  1.00  0.00    -0.387 C  
BRANCH  26  27
HETATM   27  C   UNL     1      -9.183   9.745  64.502  1.00  0.00    -0.310 C  
BRANCH  27  28
HETATM   28  C   UNL     1      -7.660   9.715  64.455  1.00  0.00    -0.128 C  
BRANCH  28  29
HETATM   29  C   UNL     1      -7.068  10.145  65.789  1.00  0.00    -0.127 C  
HETATM   30  C   UNL     1      -7.649   9.320  66.923  1.00  0.00    -0.091 C  
ENDBRANCH  28  29
ENDBRANCH  27  28
ENDBRANCH  26  27
ENDBRANCH  24  26
ENDBRANCH  23  24
ENDBRANCH   4  23
TORSDOF 7
ENDMDL
MODEL       21
REMARK 921   NORMALIZED FREE ENERGY PREDICTED BY IDOCK:   -4.86 KCAL/MOL
REMARK 922        TOTAL FREE ENERGY PREDICTED BY IDOCK:   -6.93 KCAL/MOL
REMARK 923 INTER-LIGAND FREE ENERGY PREDICTED BY IDOCK:   -6.82 KCAL/MOL
REMARK 924 INTRA-LIGAND FREE ENERGY PREDICTED BY IDOCK:   -0.11 KCAL/MOL
REMARK 927      BINDING AFFINITY PREDICTED BY RF-SCORE:    0.00 PKD
ROOT
HETATM    1  C   UNL     1      -9.774   8.438  68.075  1.00  0.00    -0.184 C  
HETATM    2  C   UNL     1     -10.775   7.711  67.379  1.00  0.00    -0.318 C  
HETATM    3  C   UNL     1      -9.774   8.430  66.551  1.00  0.00    -0.330 C  
HETATM    4  C   UNL     1      -8.147   9.141  67.610  1.00  0.00    -0.104 C  
HETATM    5  C   UNL     1     -12.371  13.434  66.513  1.00  0.00    -0.354 C  
HETATM    6  O   UNL     1     -12.836  14.598  64.539  1.00  0.00    -0.579 OA 
HETATM    7  C   UNL     1      -8.293   7.998  66.876  1.00  0.00    -0.116 C  
HETATM    8  C   UNL     1     -11.973  14.057  65.232  1.00  0.00    -0.379 C  
HETATM    9  C   UNL     1     -11.502  12.749  67.275  1.00  0.00    -0.393 C  
HETATM   10  C   UNL     1      -8.082   9.037  65.359  1.00  0.00    -0.120 C  
HETATM   11  C   UNL     1      -7.664   6.618  66.993  1.00  0.00    -0.103 C  
HETATM   12  C   UNL     1     -10.540  13.970  64.774  1.00  0.00    -0.441 C  
HETATM   13  C   UNL     1     -11.943  12.040  68.538  1.00  0.00    -0.273 C  
HETATM   14  C   UNL     1      -8.665  10.618  65.584  1.00  0.00    -0.198 C  
HETATM   15  C   UNL     1      -9.546  13.536  65.838  1.00  0.00    -0.132 C  
HETATM   16  C   UNL     1     -10.167  10.227  68.028  1.00  0.00    -0.200 C  
HETATM   17  C   UNL     1      -9.915  11.026  66.575  1.00  0.00    -0.253 C  
HETATM   18  C   UNL     1     -11.576  10.543  68.578  1.00  0.00    -0.222 C  
HETATM   19  C   UNL     1     -10.044  12.544  66.896  1.00  0.00    -0.232 C  
ENDROOT
BRANCH   4  20
HETATM   20  C   UNL     1      -6.599   9.525  67.335  1.00  0.00    -0.070 C  
HETATM   21  O   UNL     1      -5.720   8.712  67.013  1.00  0.00    -0.040 OA 
HETATM   22  C   UNL     1      -6.129  10.937  67.585  1.00  0.00    -0.047 C  
ENDBRANCH   4  20
BRANCH   4  23
HETATM   23  O   UNL     1      -7.690   8.437  68.927  1.00  0.00    -0.100 OA 
BRANCH  23  24
HETATM   24  C   UNL     1      -7.765   9.010  70.152  1.00  0.00    -0.089 C  
HETATM   25  O   UNL     1      -7.690  10.203  70.378  1.00  0.00    -0.230 OA 
BRANCH  24  26
HETATM   26  C   UNL     1      -8.149   7.938  71.157  1.00  0.00    -0.093 C  
BRANCH  26  27
HETATM   27  C   UNL     1      -9.559   8.100  71.678  1.00  0.00    -0.237 C  
BRANCH  27  28
HETATM   28  C   UNL     1     -10.378   6.831  71.473  1.00  0.00    -0.228 C  
BRANCH  28  29
HETATM   29  C   UNL     1     -11.809   7.167  71.077  1.00  0.00    -0.373 C  
HETATM   30  C   UNL     1     -12.262   8.450  71.749  1.00  0.00    -0.377 C  
ENDBRANCH  28  29
ENDBRANCH  27  28
ENDBRANCH  26  27
ENDBRANCH  24  26
ENDBRANCH  23  24
ENDBRANCH   4  23
TORSDOF 7
ENDMDL
MODEL       22
REMARK 921   NORMALIZED FREE ENERGY PREDICTED BY IDOCK:   -4.84 KCAL/MOL
REMARK 922        TOTAL FREE ENERGY PREDICTED BY IDOCK:   -6.91 KCAL/MOL
REMARK 923 INTER-LIGAND FREE ENERGY PREDICTED BY IDOCK:   -6.69 KCAL/MOL
REMARK 924 INTRA-LIGAND FREE ENERGY PREDICTED BY IDOCK:   -0.22 KCAL/MOL
REMARK 927      BINDING AFFINITY PREDICTED BY RF-SCORE:    0.00 PKD
ROOT
HETATM    1  C   UNL     1     -10.266  10.034  66.761  1.00  0.00    -0.295 C  
HETATM    2  C   UNL     1     -11.278  10.455  67.663  1.00  0.00    -0.287 C  
HETATM    3  C   UNL     1      -9.894  10.391  68.195  1.00  0.00    -0.168 C  
HETATM    4  C   UNL     1      -8.437  10.142  66.749  1.00  0.00    -0.126 C  
HETATM    5  C   UNL     1      -9.936   4.926  69.581  1.00  0.00    -0.302 C  
HETATM    6  O   UNL     1      -9.341   4.161  71.708  1.00  0.00    -0.122 OA 
HETATM    7  C   UNL     1      -8.884  11.276  67.369  1.00  0.00    -0.145 C  
HETATM    8  C   UNL     1      -9.003   4.819  70.722  1.00  0.00    -0.123 C  
HETATM    9  C   UNL     1      -9.673   5.699  68.513  1.00  0.00    -0.172 C  
HETATM   10  C   UNL     1      -7.871  10.778  68.836  1.00  0.00    -0.136 C  
HETATM   11  C   UNL     1      -8.973  12.724  66.915  1.00  0.00    -0.213 C  
HETATM   12  C   UNL     1      -7.689   5.555  70.685  1.00  0.00    -0.090 C  
HETATM   13  C   UNL     1     -10.677   5.871  67.393  1.00  0.00    -0.370 C  
HETATM   14  C   UNL     1      -7.737   9.089  68.975  1.00  0.00    -0.089 C  
HETATM   15  C   UNL     1      -7.283   6.083  69.320  1.00  0.00    -0.074 C  
HETATM   16  C   UNL     1      -9.811   8.294  67.116  1.00  0.00    -0.281 C  
HETATM   17  C   UNL     1      -8.884   8.013  68.485  1.00  0.00    -0.134 C  
HETATM   18  C   UNL     1     -11.026   7.341  67.083  1.00  0.00    -0.285 C  
HETATM   19  C   UNL     1      -8.410   6.534  68.381  1.00  0.00    -0.117 C  
ENDROOT
BRANCH   4  20
HETATM   20  C   UNL     1      -6.863  10.462  66.550  1.00  0.00    -0.107 C  
HETATM   21  O   UNL     1      -6.390  11.599  66.409  1.00  0.00    -0.068 OA 
HETATM   22  C   UNL     1      -5.886   9.320  66.411  1.00  0.00    -0.058 C  
ENDBRANCH   4  20
BRANCH   4  23
HETATM   23  O   UNL     1      -8.676  10.646  65.290  1.00  0.00    -0.183 OA 
BRANCH  23  24
HETATM   24  C   UNL     1      -8.695   9.833  64.207  1.00  0.00    -0.206 C  
HETATM   25  O   UNL     1      -8.186   8.729  64.144  1.00  0.00    -0.156 OA 
BRANCH  24  26
HETATM   26  C   UNL     1      -9.616  10.445  63.167  1.00  0.00    -0.346 C  
BRANCH  26  27
HETATM   27  C   UNL     1     -10.029  11.860  63.508  1.00  0.00    -0.422 C  
BRANCH  27  28
HETATM   28  C   UNL     1     -11.540  11.976  63.670  1.00  0.00    -0.578 C  
BRANCH  28  29
HETATM   29  C   UNL     1     -11.933  13.381  64.103  1.00  0.00    -0.505 C  
HETATM   30  C   UNL     1     -12.465  13.374  65.524  1.00  0.00    -0.534 C  
ENDBRANCH  28  29
ENDBRANCH  27  28
ENDBRANCH  26  27
ENDBRANCH  24  26
ENDBRANCH  23  24
ENDBRANCH   4  23
TORSDOF 7
ENDMDL
MODEL       23
REMARK 921   NORMALIZED FREE ENERGY PREDICTED BY IDOCK:   -4.84 KCAL/MOL
REMARK 922        TOTAL FREE ENERGY PREDICTED BY IDOCK:   -6.90 KCAL/MOL
REMARK 923 INTER-LIGAND FREE ENERGY PREDICTED BY IDOCK:   -7.37 KCAL/MOL
REMARK 924 INTRA-LIGAND FREE ENERGY PREDICTED BY IDOCK:    0.47 KCAL/MOL
REMARK 927      BINDING AFFINITY PREDICTED BY RF-SCORE:    0.00 PKD
ROOT
HETATM    1  C   UNL     1      -9.189  13.298  67.525  1.00  0.00    -0.213 C  
HETATM    2  C   UNL     1      -8.947  13.386  68.921  1.00  0.00     0.249 C  
HETATM    3  C   UNL     1     -10.224  13.960  68.427  1.00  0.00    -0.243 C  
HETATM    4  C   UNL     1     -10.679  13.465  66.472  1.00  0.00    -0.286 C  
HETATM    5  C   UNL     1      -8.209  19.038  67.033  1.00  0.00    -0.285 C  
HETATM    6  O   UNL     1      -9.177  21.028  67.787  1.00  0.00    -0.080 OA 
HETATM    7  C   UNL     1     -11.102  12.908  67.647  1.00  0.00    -0.297 C  
HETATM    8  C   UNL     1      -9.354  19.957  67.202  1.00  0.00    -0.364 C  
HETATM    9  C   UNL     1      -8.348  17.817  66.487  1.00  0.00    -0.294 C  
HETATM   10  C   UNL     1     -12.258  14.342  67.821  1.00  0.00    -0.190 C  
HETATM   11  C   UNL     1     -11.522  11.494  68.017  1.00  0.00    -0.381 C  
HETATM   12  C   UNL     1     -10.718  19.550  66.711  1.00  0.00    -0.569 C  
HETATM   13  C   UNL     1      -7.186  16.850  66.403  1.00  0.00    -0.269 C  
HETATM   14  C   UNL     1     -11.635  15.753  67.106  1.00  0.00     0.201 C  
HETATM   15  C   UNL     1     -10.737  18.356  65.772  1.00  0.00    -0.161 C  
HETATM   16  C   UNL     1      -8.884  14.927  66.743  1.00  0.00    -0.291 C  
HETATM   17  C   UNL     1     -10.034  16.121  66.995  1.00  0.00    -0.259 C  
HETATM   18  C   UNL     1      -7.469  15.473  67.035  1.00  0.00    -0.205 C  
HETATM   19  C   UNL     1      -9.680  17.269  66.004  1.00  0.00    -0.190 C  
ENDROOT
BRANCH   4  20
HETATM   20  C   UNL     1     -11.992  13.317  65.536  1.00  0.00    -0.405 C  
HETATM   21  O   UNL     1     -12.774  12.356  65.570  1.00  0.00    -0.530 OA 
HETATM   22  C   UNL     1     -12.255  14.343  64.460  1.00  0.00    -0.483 C  
ENDBRANCH   4  20
BRANCH   4  23
HETATM   23  O   UNL     1     -10.140  12.140  65.844  1.00  0.00    -0.234 OA 
BRANCH  23  24
HETATM   24  C   UNL     1      -9.936  11.965  64.517  1.00  0.00    -0.228 C  
HETATM   25  O   UNL     1      -9.716  12.854  63.714  1.00  0.00    -0.133 OA 
BRANCH  24  26
HETATM   26  C   UNL     1      -9.837  10.476  64.241  1.00  0.00    -0.402 C  
BRANCH  26  27
HETATM   27  C   UNL     1      -9.003   9.742  65.268  1.00  0.00    -0.233 C  
BRANCH  27  28
HETATM   28  C   UNL     1      -9.870   8.876  66.174  1.00  0.00    -0.326 C  
BRANCH  28  29
HETATM   29  C   UNL     1      -9.291   8.814  67.581  1.00  0.00    -0.157 C  
HETATM   30  C   UNL     1      -8.155   9.809  67.735  1.00  0.00    -0.113 C  
ENDBRANCH  28  29
ENDBRANCH  27  28
ENDBRANCH  26  27
ENDBRANCH  24  26
ENDBRANCH  23  24
ENDBRANCH   4  23
TORSDOF 7
ENDMDL
MODEL       24
REMARK 921   NORMALIZED FREE ENERGY PREDICTED BY IDOCK:   -4.83 KCAL/MOL
REMARK 922        TOTAL FREE ENERGY PREDICTED BY IDOCK:   -6.89 KCAL/MOL
REMARK 923 INTER-LIGAND FREE ENERGY PREDICTED BY IDOCK:   -6.96 KCAL/MOL
REMARK 924 INTRA-LIGAND FREE ENERGY PREDICTED BY IDOCK:    0.06 KCAL/MOL
REMARK 927      BINDING AFFINITY PREDICTED BY RF-SCORE:    0.00 PKD
ROOT
HETATM    1  C   UNL     1      -9.077  10.040  69.697  1.00  0.00    -0.230 C  
HETATM    2  C   UNL     1      -8.078   9.709  70.650  1.00  0.00    -0.068 C  
HETATM    3  C   UNL     1      -7.753   9.451  69.225  1.00  0.00    -0.083 C  
HETATM    4  C   UNL     1      -9.079  10.298  67.883  1.00  0.00    -0.131 C  
HETATM    5  C   UNL     1     -10.130   4.351  68.881  1.00  0.00     0.025 C  
HETATM    6  O   UNL     1      -8.985   2.479  68.074  1.00  0.00    -0.116 OA 
HETATM    7  C   UNL     1      -7.868  10.746  68.331  1.00  0.00    -0.120 C  
HETATM    8  C   UNL     1      -9.345   3.637  67.853  1.00  0.00    -0.190 C  
HETATM    9  C   UNL     1     -10.477   5.642  68.747  1.00  0.00    -0.289 C  
HETATM   10  C   UNL     1      -7.080   9.533  67.177  1.00  0.00    -0.086 C  
HETATM   11  C   UNL     1      -7.302  12.143  68.529  1.00  0.00    -0.105 C  
HETATM   12  C   UNL     1      -8.952   4.349  66.584  1.00  0.00    -0.117 C  
HETATM   13  C   UNL     1     -11.202   6.386  69.849  1.00  0.00    -0.485 C  
HETATM   14  C   UNL     1      -8.044   8.151  66.949  1.00  0.00    -0.104 C  
HETATM   15  C   UNL     1      -9.690   5.651  66.320  1.00  0.00    -0.162 C  
HETATM   16  C   UNL     1      -9.915   8.513  69.128  1.00  0.00    -0.194 C  
HETATM   17  C   UNL     1      -9.064   7.522  68.078  1.00  0.00    -0.131 C  
HETATM   18  C   UNL     1     -10.502   7.686  70.293  1.00  0.00    -0.224 C  
HETATM   19  C   UNL     1     -10.095   6.485  67.542  1.00  0.00    -0.193 C  
ENDROOT
BRANCH   4  20
HETATM   20  C   UNL     1      -9.084  10.813  66.349  1.00  0.00    -0.171 C  
HETATM   21  O   UNL     1      -8.564  11.870  65.960  1.00  0.00    -0.038 OA 
HETATM   22  C   UNL     1      -9.858  10.040  65.309  1.00  0.00    -0.388 C  
ENDBRANCH   4  20
BRANCH   4  23
HETATM   23  O   UNL     1      -9.883  11.581  68.267  1.00  0.00    -0.190 OA 
BRANCH  23  24
HETATM   24  C   UNL     1     -11.198  11.755  67.992  1.00  0.00    -0.263 C  
HETATM   25  O   UNL     1     -12.035  10.872  67.958  1.00  0.00    -0.586 OA 
BRANCH  24  26
HETATM   26  C   UNL     1     -11.478  13.246  67.926  1.00  0.00    -0.341 C  
BRANCH  26  27
HETATM   27  C   UNL     1     -11.202  13.836  66.561  1.00  0.00    -0.319 C  
BRANCH  27  28
HETATM   28  C   UNL     1     -12.400  13.678  65.632  1.00  0.00    -0.518 C  
BRANCH  28  29
HETATM   29  C   UNL     1     -11.965  13.711  64.174  1.00  0.00    -0.488 C  
HETATM   30  C   UNL     1     -12.139  12.346  63.534  1.00  0.00    -0.651 C  
ENDBRANCH  28  29
ENDBRANCH  27  28
ENDBRANCH  26  27
ENDBRANCH  24  26
ENDBRANCH  23  24
ENDBRANCH   4  23
TORSDOF 7
ENDMDL
MODEL       25
REMARK 921   NORMALIZED FREE ENERGY PREDICTED BY IDOCK:   -4.82 KCAL/MOL
REMARK 922        TOTAL FREE ENERGY PREDICTED BY IDOCK:   -6.88 KCAL/MOL
REMARK 923 INTER-LIGAND FREE ENERGY PREDICTED BY IDOCK:   -6.60 KCAL/MOL
REMARK 924 INTRA-LIGAND FREE ENERGY PREDICTED BY IDOCK:   -0.29 KCAL/MOL
REMARK 927      BINDING AFFINITY PREDICTED BY RF-SCORE:    0.00 PKD
ROOT
HETATM    1  C   UNL     1      -8.085   9.670  65.927  1.00  0.00    -0.112 C  
HETATM    2  C   UNL     1      -7.016  10.296  65.233  1.00  0.00    -0.130 C  
HETATM    3  C   UNL     1      -7.538  11.000  66.431  1.00  0.00    -0.135 C  
HETATM    4  C   UNL     1      -8.815   9.866  67.596  1.00  0.00    -0.125 C  
HETATM    5  C   UNL     1     -11.749  13.724  63.857  1.00  0.00    -0.304 C  
HETATM    6  O   UNL     1     -12.053  16.034  64.040  1.00  0.00    -0.810 OA 
HETATM    7  C   UNL     1      -7.477  10.112  67.733  1.00  0.00    -0.089 C  
HETATM    8  C   UNL     1     -11.930  14.965  64.639  1.00  0.00    -0.401 C  
HETATM    9  C   UNL     1     -11.518  12.537  64.444  1.00  0.00    -0.406 C  
HETATM   10  C   UNL     1      -7.931  11.775  68.406  1.00  0.00    -0.147 C  
HETATM   11  C   UNL     1      -6.341   9.294  68.326  1.00  0.00    -0.054 C  
HETATM   12  C   UNL     1     -11.905  14.910  66.145  1.00  0.00    -0.113 C  
HETATM   13  C   UNL     1     -11.244  11.290  63.629  1.00  0.00    -0.221 C  
HETATM   14  C   UNL     1      -9.382  12.359  67.738  1.00  0.00    -0.196 C  
HETATM   15  C   UNL     1     -12.031  13.519  66.742  1.00  0.00    -0.453 C  
HETATM   16  C   UNL     1      -9.660  10.515  65.523  1.00  0.00    -0.282 C  
HETATM   17  C   UNL     1      -9.920  12.018  66.219  1.00  0.00    -0.249 C  
HETATM   18  C   UNL     1      -9.933  10.571  64.003  1.00  0.00    -0.363 C  
HETATM   19  C   UNL     1     -11.415  12.359  65.949  1.00  0.00    -0.422 C  
ENDROOT
BRANCH   4  20
HETATM   20  C   UNL     1      -9.306   9.797  69.137  1.00  0.00    -0.182 C  
HETATM   21  O   UNL     1      -8.633   9.330  70.068  1.00  0.00    -0.145 OA 
HETATM   22  C   UNL     1     -10.713  10.216  69.488  1.00  0.00    -0.277 C  
ENDBRANCH   4  20
BRANCH   4  23
HETATM   23  O   UNL     1      -8.701   8.308  67.612  1.00  0.00    -0.132 OA 
BRANCH  23  24
HETATM   24  C   UNL     1      -9.724   7.476  67.306  1.00  0.00    -0.167 C  
HETATM   25  O   UNL     1     -10.887   7.809  67.166  1.00  0.00    -0.313 OA 
BRANCH  24  26
HETATM   26  C   UNL     1      -9.147   6.110  66.982  1.00  0.00    -0.119 C  
BRANCH  26  27
HETATM   27  C   UNL     1      -7.703   6.172  66.537  1.00  0.00    -0.103 C  
BRANCH  27  28
HETATM   28  C   UNL     1      -7.591   6.269  65.020  1.00  0.00    -0.090 C  
BRANCH  28  29
HETATM   29  C   UNL     1      -6.143   6.468  64.594  1.00  0.00    -0.034 C  
HETATM   30  C   UNL     1      -5.262   6.729  65.803  1.00  0.00    -0.022 C  
ENDBRANCH  28  29
ENDBRANCH  27  28
ENDBRANCH  26  27
ENDBRANCH  24  26
ENDBRANCH  23  24
ENDBRANCH   4  23
TORSDOF 7
ENDMDL
MODEL       26
REMARK 921   NORMALIZED FREE ENERGY PREDICTED BY IDOCK:   -4.75 KCAL/MOL
REMARK 922        TOTAL FREE ENERGY PREDICTED BY IDOCK:   -6.78 KCAL/MOL
REMARK 923 INTER-LIGAND FREE ENERGY PREDICTED BY IDOCK:   -6.85 KCAL/MOL
REMARK 924 INTRA-LIGAND FREE ENERGY PREDICTED BY IDOCK:    0.06 KCAL/MOL
REMARK 927      BINDING AFFINITY PREDICTED BY RF-SCORE:    0.00 PKD
ROOT
HETATM    1  C   UNL     1      -8.121   9.385  69.086  1.00  0.00    -0.107 C  
HETATM    2  C   UNL     1      -7.232  10.150  69.886  1.00  0.00    -0.155 C  
HETATM    3  C   UNL     1      -8.201   9.286  70.605  1.00  0.00    -0.224 C  
HETATM    4  C   UNL     1      -9.193   7.932  69.397  1.00  0.00    -0.145 C  
HETATM    5  C   UNL     1     -12.499  12.934  70.629  1.00  0.00    -0.333 C  
HETATM    6  O   UNL     1     -13.642  13.522  72.582  1.00  0.00    -0.629 OA 
HETATM    7  C   UNL     1      -8.089   7.769  70.188  1.00  0.00    -0.117 C  
HETATM    8  C   UNL     1     -13.267  12.605  71.849  1.00  0.00    -0.403 C  
HETATM    9  C   UNL     1     -11.981  11.984  69.833  1.00  0.00    -0.391 C  
HETATM   10  C   UNL     1      -9.235   7.701  71.639  1.00  0.00    -0.159 C  
HETATM   11  C   UNL     1      -6.879   6.854  70.081  1.00  0.00    -0.057 C  
HETATM   12  C   UNL     1     -13.527  11.164  72.201  1.00  0.00    -0.193 C  
HETATM   13  C   UNL     1     -11.119  12.335  68.638  1.00  0.00    -0.291 C  
HETATM   14  C   UNL     1     -10.632   8.638  71.393  1.00  0.00    -0.334 C  
HETATM   15  C   UNL     1     -13.263  10.168  71.084  1.00  0.00    -0.438 C  
HETATM   16  C   UNL     1      -9.778  10.167  69.088  1.00  0.00    -0.225 C  
HETATM   17  C   UNL     1     -10.695  10.008  70.482  1.00  0.00    -0.352 C  
HETATM   18  C   UNL     1      -9.741  11.643  68.633  1.00  0.00    -0.151 C  
HETATM   19  C   UNL     1     -12.126  10.497  70.109  1.00  0.00    -0.380 C  
ENDROOT
BRANCH   4  20
HETATM   20  C   UNL     1      -9.925   6.496  69.539  1.00  0.00    -0.159 C  
HETATM   21  O   UNL     1      -9.334   5.420  69.718  1.00  0.00    -0.133 OA 
HETATM   22  C   UNL     1     -11.418   6.400  69.334  1.00  0.00    -0.374 C  
ENDBRANCH   4  20
BRANCH   4  23
HETATM   23  O   UNL     1      -8.532   7.413  68.080  1.00  0.00    -0.123 OA 
BRANCH  23  24
HETATM   24  C   UNL     1      -9.203   7.255  66.914  1.00  0.00    -0.152 C  
HETATM   25  O   UNL     1     -10.062   8.004  66.487  1.00  0.00    -0.260 OA 
BRANCH  24  26
HETATM   26  C   UNL     1      -8.568   6.106  66.151  1.00  0.00    -0.141 C  
BRANCH  26  27
HETATM   27  C   UNL     1      -8.013   6.528  64.809  1.00  0.00    -0.120 C  
BRANCH  27  28
HETATM   28  C   UNL     1      -6.812   7.452  64.968  1.00  0.00    -0.050 C  
BRANCH  28  29
HETATM   29  C   UNL     1      -6.840   8.563  63.927  1.00  0.00    -0.079 C  
HETATM   30  C   UNL     1      -8.259   8.813  63.452  1.00  0.00    -0.170 C  
ENDBRANCH  28  29
ENDBRANCH  27  28
ENDBRANCH  26  27
ENDBRANCH  24  26
ENDBRANCH  23  24
ENDBRANCH   4  23
TORSDOF 7
ENDMDL
MODEL       27
REMARK 921   NORMALIZED FREE ENERGY PREDICTED BY IDOCK:   -4.71 KCAL/MOL
REMARK 922        TOTAL FREE ENERGY PREDICTED BY IDOCK:   -6.72 KCAL/MOL
REMARK 923 INTER-LIGAND FREE ENERGY PREDICTED BY IDOCK:   -7.04 KCAL/MOL
REMARK 924 INTRA-LIGAND FREE ENERGY PREDICTED BY IDOCK:    0.32 KCAL/MOL
REMARK 927      BINDING AFFINITY PREDICTED BY RF-SCORE:    0.00 PKD
ROOT
HETATM    1  C   UNL     1      -9.151   9.966  69.718  1.00  0.00    -0.249 C  
HETATM    2  C   UNL     1      -8.054   9.556  70.520  1.00  0.00    -0.199 C  
HETATM    3  C   UNL     1      -7.867   9.492  69.049  1.00  0.00    -0.077 C  
HETATM    4  C   UNL     1      -9.341  10.449  67.960  1.00  0.00    -0.140 C  
HETATM    5  C   UNL     1     -10.136   4.388  68.283  1.00  0.00     0.021 C  
HETATM    6  O   UNL     1      -9.031   2.676  67.137  1.00  0.00    -0.133 OA 
HETATM    7  C   UNL     1      -8.103  10.882  68.344  1.00  0.00    -0.131 C  
HETATM    8  C   UNL     1      -9.440   3.838  67.101  1.00  0.00    -0.202 C  
HETATM    9  C   UNL     1     -10.528   5.671  68.350  1.00  0.00    -0.263 C  
HETATM   10  C   UNL     1      -7.404   9.854  66.973  1.00  0.00    -0.091 C  
HETATM   11  C   UNL     1      -7.556  12.264  68.665  1.00  0.00    -0.089 C  
HETATM   12  C   UNL     1      -9.194   4.718  65.903  1.00  0.00    -0.149 C  
HETATM   13  C   UNL     1     -11.158   6.244  69.602  1.00  0.00    -0.479 C  
HETATM   14  C   UNL     1      -8.350   8.476  66.663  1.00  0.00    -0.112 C  
HETATM   15  C   UNL     1      -9.988   6.014  65.880  1.00  0.00     0.205 C  
HETATM   16  C   UNL     1     -10.004   8.492  69.041  1.00  0.00    -0.197 C  
HETATM   17  C   UNL     1      -9.237   7.672  67.795  1.00  0.00    -0.141 C  
HETATM   18  C   UNL     1     -10.450   7.504  70.141  1.00  0.00    -0.226 C  
HETATM   19  C   UNL     1     -10.289   6.673  67.232  1.00  0.00    -0.296 C  
ENDROOT
BRANCH   4  20
HETATM   20  C   UNL     1      -9.512  11.151  66.512  1.00  0.00    -0.193 C  
HETATM   21  O   UNL     1      -9.162  12.311  66.248  1.00  0.00    -0.225 OA 
HETATM   22  C   UNL     1     -10.243  10.418  65.413  1.00  0.00    -0.329 C  
ENDBRANCH   4  20
BRANCH   4  23
HETATM   23  O   UNL     1     -10.135  11.642  68.580  1.00  0.00    -0.211 OA 
BRANCH  23  24
HETATM   24  C   UNL     1     -11.485  11.672  68.691  1.00  0.00    -0.290 C  
HETATM   25  O   UNL     1     -12.269  11.649  67.761  1.00  0.00    -0.560 OA 
BRANCH  24  26
HETATM   26  C   UNL     1     -11.846  11.543  70.160  1.00  0.00    -0.440 C  
BRANCH  26  27
HETATM   27  C   UNL     1     -12.835  10.430  70.426  1.00  0.00    -0.249 C  
BRANCH  27  28
HETATM   28  C   UNL     1     -13.146  10.304  71.913  1.00  0.00    -0.568 C  
BRANCH  28  29
HETATM   29  C   UNL     1     -13.131   8.846  72.349  1.00  0.00    -0.476 C  
HETATM   30  C   UNL     1     -14.244   8.073  71.666  1.00  0.00    -0.549 C  
ENDBRANCH  28  29
ENDBRANCH  27  28
ENDBRANCH  26  27
ENDBRANCH  24  26
ENDBRANCH  23  24
ENDBRANCH   4  23
TORSDOF 7
ENDMDL
MODEL       28
REMARK 921   NORMALIZED FREE ENERGY PREDICTED BY IDOCK:   -4.70 KCAL/MOL
REMARK 922        TOTAL FREE ENERGY PREDICTED BY IDOCK:   -6.71 KCAL/MOL
REMARK 923 INTER-LIGAND FREE ENERGY PREDICTED BY IDOCK:   -7.21 KCAL/MOL
REMARK 924 INTRA-LIGAND FREE ENERGY PREDICTED BY IDOCK:    0.50 KCAL/MOL
REMARK 927      BINDING AFFINITY PREDICTED BY RF-SCORE:    0.00 PKD
ROOT
HETATM    1  C   UNL     1     -12.442  13.519  66.613  1.00  0.00    -0.263 C  
HETATM    2  C   UNL     1     -13.243  14.404  65.844  1.00  0.00     0.565 C  
HETATM    3  C   UNL     1     -11.851  14.189  65.378  1.00  0.00    -0.362 C  
HETATM    4  C   UNL     1     -10.875  12.621  66.307  1.00  0.00    -0.273 C  
HETATM    5  C   UNL     1      -9.417  18.088  68.642  1.00  0.00    -0.317 C  
HETATM    6  O   UNL     1      -8.008  19.746  67.787  1.00  0.00    -0.286 OA 
HETATM    7  C   UNL     1     -11.528  12.670  65.107  1.00  0.00    -0.363 C  
HETATM    8  C   UNL     1      -8.236  18.539  67.876  1.00  0.00    -0.261 C  
HETATM    9  C   UNL     1      -9.777  16.795  68.705  1.00  0.00    -0.259 C  
HETATM   10  C   UNL     1     -10.037  13.523  64.418  1.00  0.00    -0.050 C  
HETATM   11  C   UNL     1     -12.286  11.619  64.310  1.00  0.00    -0.097 C  
HETATM   12  C   UNL     1      -7.369  17.525  67.175  1.00  0.00    -0.214 C  
HETATM   13  C   UNL     1     -11.040  16.358  69.417  1.00  0.00    -0.300 C  
HETATM   14  C   UNL     1      -9.236  14.454  65.594  1.00  0.00     0.319 C  
HETATM   15  C   UNL     1      -7.593  16.083  67.596  1.00  0.00    -0.166 C  
HETATM   16  C   UNL     1     -11.278  14.485  67.647  1.00  0.00    -0.335 C  
HETATM   17  C   UNL     1      -9.973  15.193  66.868  1.00  0.00    -0.243 C  
HETATM   18  C   UNL     1     -11.994  15.518  68.545  1.00  0.00    -0.179 C  
HETATM   19  C   UNL     1      -9.019  15.685  67.997  1.00  0.00    -0.178 C  
ENDROOT
BRANCH   4  20
HETATM   20  C   UNL     1      -9.665  11.593  65.992  1.00  0.00    -0.232 C  
HETATM   21  O   UNL     1      -9.724  10.668  65.168  1.00  0.00    -0.228 OA 
HETATM   22  C   UNL     1      -8.400  11.661  66.814  1.00  0.00    -0.171 C  
ENDBRANCH   4  20
BRANCH   4  23
HETATM   23  O   UNL     1     -11.683  11.417  66.888  1.00  0.00    -0.507 OA 
BRANCH  23  24
HETATM   24  C   UNL     1     -11.262  10.662  67.930  1.00  0.00    -0.308 C  
HETATM   25  O   UNL     1     -11.013   9.471  67.883  1.00  0.00    -0.229 OA 
BRANCH  24  26
HETATM   26  C   UNL     1     -10.974  11.583  69.102  1.00  0.00    -0.276 C  
BRANCH  26  27
HETATM   27  C   UNL     1     -11.941  11.394  70.250  1.00  0.00    -0.460 C  
BRANCH  27  28
HETATM   28  C   UNL     1     -12.506  12.727  70.727  1.00  0.00    -0.357 C  
BRANCH  28  29
HETATM   29  C   UNL     1     -13.353  12.539  71.978  1.00  0.00    -0.528 C  
HETATM   30  C   UNL     1     -14.033  13.841  72.362  1.00  0.00    -0.651 C  
ENDBRANCH  28  29
ENDBRANCH  27  28
ENDBRANCH  26  27
ENDBRANCH  24  26
ENDBRANCH  23  24
ENDBRANCH   4  23
TORSDOF 7
ENDMDL
MODEL       29
REMARK 921   NORMALIZED FREE ENERGY PREDICTED BY IDOCK:   -4.67 KCAL/MOL
REMARK 922        TOTAL FREE ENERGY PREDICTED BY IDOCK:   -6.66 KCAL/MOL
REMARK 923 INTER-LIGAND FREE ENERGY PREDICTED BY IDOCK:   -6.42 KCAL/MOL
REMARK 924 INTRA-LIGAND FREE ENERGY PREDICTED BY IDOCK:   -0.24 KCAL/MOL
REMARK 927      BINDING AFFINITY PREDICTED BY RF-SCORE:    0.00 PKD
ROOT
HETATM    1  C   UNL     1      -7.954  10.879  68.025  1.00  0.00    -0.109 C  
HETATM    2  C   UNL     1      -7.088  11.596  68.892  1.00  0.00    -0.115 C  
HETATM    3  C   UNL     1      -7.855  10.475  69.491  1.00  0.00    -0.134 C  
HETATM    4  C   UNL     1      -8.792   9.252  68.112  1.00  0.00    -0.129 C  
HETATM    5  C   UNL     1     -12.555  13.377  70.619  1.00  0.00    -0.325 C  
HETATM    6  O   UNL     1     -13.545  13.399  72.737  1.00  0.00    -0.656 OA 
HETATM    7  C   UNL     1      -7.597   9.102  68.760  1.00  0.00    -0.083 C  
HETATM    8  C   UNL     1     -13.138  12.708  71.801  1.00  0.00    -0.360 C  
HETATM    9  C   UNL     1     -12.010  12.687  69.604  1.00  0.00    -0.352 C  
HETATM   10  C   UNL     1      -8.560   8.585  70.253  1.00  0.00    -0.137 C  
HETATM   11  C   UNL     1      -6.299   8.413  68.369  1.00  0.00    -0.055 C  
HETATM   12  C   UNL     1     -13.172  11.203  71.866  1.00  0.00    -0.488 C  
HETATM   13  C   UNL     1     -11.335  13.386  68.442  1.00  0.00    -0.329 C  
HETATM   14  C   UNL     1     -10.084   9.336  70.320  1.00  0.00    -0.262 C  
HETATM   15  C   UNL     1     -12.907  10.494  70.549  1.00  0.00    -0.339 C  
HETATM   16  C   UNL     1      -9.687  11.394  68.322  1.00  0.00    -0.202 C  
HETATM   17  C   UNL     1     -10.420  10.833  69.723  1.00  0.00    -0.130 C  
HETATM   18  C   UNL     1      -9.889  12.919  68.183  1.00  0.00    -0.227 C  
HETATM   19  C   UNL     1     -11.933  11.170  69.576  1.00  0.00    -0.425 C  
ENDROOT
BRANCH   4  20
HETATM   20  C   UNL     1      -9.315   7.723  68.010  1.00  0.00    -0.141 C  
HETATM   21  O   UNL     1      -8.583   6.724  68.072  1.00  0.00    -0.122 OA 
HETATM   22  C   UNL     1     -10.770   7.456  67.710  1.00  0.00    -0.249 C  
ENDBRANCH   4  20
BRANCH   4  23
HETATM   23  O   UNL     1      -8.217   9.101  66.668  1.00  0.00    -0.113 OA 
BRANCH  23  24
HETATM   24  C   UNL     1      -8.988   9.003  65.558  1.00  0.00    -0.204 C  
HETATM   25  O   UNL     1      -9.947   9.707  65.301  1.00  0.00    -0.295 OA 
BRANCH  24  26
HETATM   26  C   UNL     1      -8.340   8.007  64.613  1.00  0.00    -0.065 C  
BRANCH  26  27
HETATM   27  C   UNL     1      -6.851   8.227  64.459  1.00  0.00    -0.068 C  
BRANCH  27  28
HETATM   28  C   UNL     1      -6.554   9.473  63.633  1.00  0.00    -0.104 C  
BRANCH  28  29
HETATM   29  C   UNL     1      -5.216  10.080  64.029  1.00  0.00    -0.097 C  
HETATM   30  C   UNL     1      -5.245  10.539  65.476  1.00  0.00    -0.105 C  
ENDBRANCH  28  29
ENDBRANCH  27  28
ENDBRANCH  26  27
ENDBRANCH  24  26
ENDBRANCH  23  24
ENDBRANCH   4  23
TORSDOF 7
ENDMDL
MODEL       30
REMARK 921   NORMALIZED FREE ENERGY PREDICTED BY IDOCK:   -4.64 KCAL/MOL
REMARK 922        TOTAL FREE ENERGY PREDICTED BY IDOCK:   -6.62 KCAL/MOL
REMARK 923 INTER-LIGAND FREE ENERGY PREDICTED BY IDOCK:   -6.97 KCAL/MOL
REMARK 924 INTRA-LIGAND FREE ENERGY PREDICTED BY IDOCK:    0.35 KCAL/MOL
REMARK 927      BINDING AFFINITY PREDICTED BY RF-SCORE:    0.00 PKD
ROOT
HETATM    1  C   UNL     1      -8.137   8.937  66.443  1.00  0.00    -0.110 C  
HETATM    2  C   UNL     1      -6.918   9.464  65.942  1.00  0.00    -0.090 C  
HETATM    3  C   UNL     1      -7.509  10.150  67.118  1.00  0.00    -0.091 C  
HETATM    4  C   UNL     1      -9.057   9.117  68.017  1.00  0.00    -0.131 C  
HETATM    5  C   UNL     1     -10.983  13.551  64.263  1.00  0.00    -0.355 C  
HETATM    6  O   UNL     1     -11.033  15.865  64.592  1.00  0.00    -0.528 OA 
HETATM    7  C   UNL     1      -7.730   9.180  68.340  1.00  0.00    -0.094 C  
HETATM    8  C   UNL     1     -11.119  14.753  65.114  1.00  0.00    -0.384 C  
HETATM    9  C   UNL     1     -10.976  12.309  64.776  1.00  0.00    -0.346 C  
HETATM   10  C   UNL     1      -8.070  10.841  69.083  1.00  0.00    -0.133 C  
HETATM   11  C   UNL     1      -6.789   8.186  69.004  1.00  0.00    -0.060 C  
HETATM   12  C   UNL     1     -11.304  14.597  66.601  1.00  0.00    -0.358 C  
HETATM   13  C   UNL     1     -10.744  11.093  63.904  1.00  0.00    -0.407 C  
HETATM   14  C   UNL     1      -9.338  11.647  68.288  1.00  0.00    -0.191 C  
HETATM   15  C   UNL     1     -11.674  13.198  67.064  1.00  0.00    -0.431 C  
HETATM   16  C   UNL     1      -9.532  10.001  65.913  1.00  0.00    -0.260 C  
HETATM   17  C   UNL     1      -9.704  11.476  66.691  1.00  0.00    -0.221 C  
HETATM   18  C   UNL     1      -9.589  10.190  64.381  1.00  0.00    -0.366 C  
HETATM   19  C   UNL     1     -11.098  12.023  66.264  1.00  0.00    -0.363 C  
ENDROOT
BRANCH   4  20
HETATM   20  C   UNL     1      -9.755   9.011  69.474  1.00  0.00    -0.170 C  
HETATM   21  O   UNL     1      -9.282   8.390  70.437  1.00  0.00    -0.148 OA 
HETATM   22  C   UNL     1     -11.129   9.601  69.683  1.00  0.00    -0.223 C  
ENDBRANCH   4  20
BRANCH   4  23
HETATM   23  O   UNL     1      -9.131   7.560  67.921  1.00  0.00    -0.131 OA 
BRANCH  23  24
HETATM   24  C   UNL     1     -10.277   6.873  67.699  1.00  0.00    -0.185 C  
HETATM   25  O   UNL     1     -11.158   7.203  66.926  1.00  0.00    -0.327 OA 
BRANCH  24  26
HETATM   26  C   UNL     1     -10.185   5.542  68.424  1.00  0.00    -0.242 C  
BRANCH  26  27
HETATM   27  C   UNL     1      -9.661   4.429  67.544  1.00  0.00    -0.211 C  
BRANCH  27  28
HETATM   28  C   UNL     1      -9.381   3.166  68.350  1.00  0.00    -0.244 C  
BRANCH  28  29
HETATM   29  C   UNL     1      -8.233   2.376  67.738  1.00  0.00    -0.074 C  
HETATM   30  C   UNL     1      -8.361   2.333  66.226  1.00  0.00    -0.095 C  
ENDBRANCH  28  29
ENDBRANCH  27  28
ENDBRANCH  26  27
ENDBRANCH  24  26
ENDBRANCH  23  24
ENDBRANCH   4  23
TORSDOF 7
ENDMDL
MODEL       31
REMARK 921   NORMALIZED FREE ENERGY PREDICTED BY IDOCK:   -4.61 KCAL/MOL
REMARK 922        TOTAL FREE ENERGY PREDICTED BY IDOCK:   -6.58 KCAL/MOL
REMARK 923 INTER-LIGAND FREE ENERGY PREDICTED BY IDOCK:   -6.94 KCAL/MOL
REMARK 924 INTRA-LIGAND FREE ENERGY PREDICTED BY IDOCK:    0.36 KCAL/MOL
REMARK 927      BINDING AFFINITY PREDICTED BY RF-SCORE:    0.00 PKD
ROOT
HETATM    1  C   UNL     1      -9.932   9.981  65.608  1.00  0.00    -0.355 C  
HETATM    2  C   UNL     1      -9.771  10.149  64.207  1.00  0.00    -0.326 C  
HETATM    3  C   UNL     1      -8.645  10.591  65.067  1.00  0.00    -0.184 C  
HETATM    4  C   UNL     1      -8.785   9.975  67.036  1.00  0.00    -0.132 C  
HETATM    5  C   UNL     1     -10.610  15.756  66.185  1.00  0.00    -0.318 C  
HETATM    6  O   UNL     1      -9.337  17.688  65.854  1.00  0.00    -0.520 OA 
HETATM    7  C   UNL     1      -8.093   9.436  65.987  1.00  0.00    -0.111 C  
HETATM    8  C   UNL     1      -9.403  16.582  66.394  1.00  0.00    -0.287 C  
HETATM    9  C   UNL     1     -10.713  14.506  66.667  1.00  0.00    -0.305 C  
HETATM   10  C   UNL     1      -6.837  10.774  66.229  1.00  0.00    -0.135 C  
HETATM   11  C   UNL     1      -7.685   8.009  65.655  1.00  0.00    -0.094 C  
HETATM   12  C   UNL     1      -8.259  16.040  67.212  1.00  0.00    -0.209 C  
HETATM   13  C   UNL     1     -11.917  13.638  66.368  1.00  0.00    -0.466 C  
HETATM   14  C   UNL     1      -7.534  12.200  66.836  1.00  0.00    -0.019 C  
HETATM   15  C   UNL     1      -8.584  14.809  68.040  1.00  0.00    -0.166 C  
HETATM   16  C   UNL     1     -10.329  11.594  66.380  1.00  0.00    -0.266 C  
HETATM   17  C   UNL     1      -9.074  12.697  66.530  1.00  0.00    -0.163 C  
HETATM   18  C   UNL     1     -11.566  12.270  65.750  1.00  0.00    -0.443 C  
HETATM   19  C   UNL     1      -9.608  13.826  67.459  1.00  0.00    -0.219 C  
ENDROOT
BRANCH   4  20
HETATM   20  C   UNL     1      -7.796   9.677  68.283  1.00  0.00    -0.085 C  
HETATM   21  O   UNL     1      -7.002   8.726  68.338  1.00  0.00    -0.064 OA 
HETATM   22  C   UNL     1      -7.896  10.525  69.528  1.00  0.00    -0.134 C  
ENDBRANCH   4  20
BRANCH   4  23
HETATM   23  O   UNL     1      -9.567   8.675  67.406  1.00  0.00    -0.148 OA 
BRANCH  23  24
HETATM   24  C   UNL     1     -10.410   8.579  68.461  1.00  0.00    -0.198 C  
HETATM   25  O   UNL     1     -11.115   9.476  68.885  1.00  0.00    -0.142 OA 
BRANCH  24  26
HETATM   26  C   UNL     1     -10.466   7.125  68.896  1.00  0.00    -0.218 C  
BRANCH  26  27
HETATM   27  C   UNL     1     -10.276   6.950  70.387  1.00  0.00    -0.209 C  
BRANCH  27  28
HETATM   28  C   UNL     1     -11.385   6.101  70.994  1.00  0.00    -0.348 C  
BRANCH  28  29
HETATM   29  C   UNL     1     -11.327   6.138  72.515  1.00  0.00    -0.328 C  
HETATM   30  C   UNL     1     -10.977   4.769  73.070  1.00  0.00    -0.346 C  
ENDBRANCH  28  29
ENDBRANCH  27  28
ENDBRANCH  26  27
ENDBRANCH  24  26
ENDBRANCH  23  24
ENDBRANCH   4  23
TORSDOF 7
ENDMDL
MODEL       32
REMARK 921   NORMALIZED FREE ENERGY PREDICTED BY IDOCK:   -4.60 KCAL/MOL
REMARK 922        TOTAL FREE ENERGY PREDICTED BY IDOCK:   -6.56 KCAL/MOL
REMARK 923 INTER-LIGAND FREE ENERGY PREDICTED BY IDOCK:   -7.66 KCAL/MOL
REMARK 924 INTRA-LIGAND FREE ENERGY PREDICTED BY IDOCK:    1.10 KCAL/MOL
REMARK 927      BINDING AFFINITY PREDICTED BY RF-SCORE:    0.00 PKD
ROOT
HETATM    1  C   UNL     1      -8.789  14.659  69.057  1.00  0.00    -0.090 C  
HETATM    2  C   UNL     1      -7.440  14.217  69.075  1.00  0.00    -0.082 C  
HETATM    3  C   UNL     1      -7.889  14.946  67.862  1.00  0.00    -0.145 C  
HETATM    4  C   UNL     1      -9.723  15.880  68.060  1.00  0.00    -0.216 C  
HETATM    5  C   UNL     1     -10.056  10.507  65.145  1.00  0.00    -0.383 C  
HETATM    6  O   UNL     1      -9.468   9.964  62.948  1.00  0.00    -0.276 OA 
HETATM    7  C   UNL     1      -8.457  16.380  68.190  1.00  0.00    -0.188 C  
HETATM    8  C   UNL     1      -9.901  10.830  63.711  1.00  0.00    -0.339 C  
HETATM    9  C   UNL     1     -10.436  11.427  66.047  1.00  0.00    -0.305 C  
HETATM   10  C   UNL     1      -8.359  16.402  66.342  1.00  0.00    -0.363 C  
HETATM   11  C   UNL     1      -7.883  17.507  69.034  1.00  0.00    -0.118 C  
HETATM   12  C   UNL     1     -10.220  12.218  63.219  1.00  0.00    -0.245 C  
HETATM   13  C   UNL     1     -10.502  11.107  67.526  1.00  0.00    -0.239 C  
HETATM   14  C   UNL     1      -9.290  15.165  65.640  1.00  0.00    -0.096 C  
HETATM   15  C   UNL     1     -11.002  13.084  64.192  1.00  0.00    -0.438 C  
HETATM   16  C   UNL     1      -9.786  13.550  67.991  1.00  0.00    -0.238 C  
HETATM   17  C   UNL     1      -9.583  13.701  66.334  1.00  0.00    -0.280 C  
HETATM   18  C   UNL     1      -9.686  12.068  68.414  1.00  0.00    -0.199 C  
HETATM   19  C   UNL     1     -10.732  12.874  65.687  1.00  0.00    -0.295 C  
ENDROOT
BRANCH   4  20
HETATM   20  C   UNL     1     -10.517  17.134  67.414  1.00  0.00    -0.334 C  
HETATM   21  O   UNL     1     -11.248  17.063  66.415  1.00  0.00     0.271 OA 
HETATM   22  C   UNL     1     -10.291  18.520  67.968  1.00  0.00    -0.417 C  
ENDBRANCH   4  20
BRANCH   4  23
HETATM   23  O   UNL     1     -10.229  16.342  69.463  1.00  0.00    -0.257 OA 
BRANCH  23  24
HETATM   24  C   UNL     1     -11.450  16.032  69.961  1.00  0.00    -0.331 C  
HETATM   25  O   UNL     1     -12.511  16.220  69.396  1.00  0.00     0.064 OA 
BRANCH  24  26
HETATM   26  C   UNL     1     -11.256  15.243  71.244  1.00  0.00    -0.375 C  
BRANCH  26  27
HETATM   27  C   UNL     1     -12.529  15.108  72.050  1.00  0.00    -0.414 C  
BRANCH  27  28
HETATM   28  C   UNL     1     -13.073  13.685  71.998  1.00  0.00    -0.484 C  
BRANCH  28  29
HETATM   29  C   UNL     1     -12.461  12.912  70.838  1.00  0.00    -0.383 C  
HETATM   30  C   UNL     1     -12.499  11.420  71.112  1.00  0.00    -0.465 C  
ENDBRANCH  28  29
ENDBRANCH  27  28
ENDBRANCH  26  27
ENDBRANCH  24  26
ENDBRANCH  23  24
ENDBRANCH   4  23
TORSDOF 7
ENDMDL
MODEL       33
REMARK 921   NORMALIZED FREE ENERGY PREDICTED BY IDOCK:   -4.59 KCAL/MOL
REMARK 922        TOTAL FREE ENERGY PREDICTED BY IDOCK:   -6.55 KCAL/MOL
REMARK 923 INTER-LIGAND FREE ENERGY PREDICTED BY IDOCK:   -6.51 KCAL/MOL
REMARK 924 INTRA-LIGAND FREE ENERGY PREDICTED BY IDOCK:   -0.05 KCAL/MOL
REMARK 927      BINDING AFFINITY PREDICTED BY RF-SCORE:    0.00 PKD
ROOT
HETATM    1  C   UNL     1      -8.018  10.753  66.256  1.00  0.00    -0.160 C  
HETATM    2  C   UNL     1      -7.464   9.638  65.574  1.00  0.00    -0.106 C  
HETATM    3  C   UNL     1      -8.800   9.447  66.191  1.00  0.00    -0.178 C  
HETATM    4  C   UNL     1      -9.701  11.196  66.828  1.00  0.00    -0.193 C  
HETATM    5  C   UNL     1      -6.992   8.094  71.357  1.00  0.00    -0.059 C  
HETATM    6  O   UNL     1      -7.701   6.167  72.476  1.00  0.00    -0.101 OA 
HETATM    7  C   UNL     1      -9.865  10.487  65.671  1.00  0.00    -0.311 C  
HETATM    8  C   UNL     1      -8.039   7.204  71.903  1.00  0.00    -0.097 C  
HETATM    9  C   UNL     1      -7.289   9.193  70.643  1.00  0.00    -0.114 C  
HETATM   10  C   UNL     1     -10.906   9.300  66.636  1.00  0.00     0.078 C  
HETATM   11  C   UNL     1     -10.235  10.907  64.256  1.00  0.00    -0.430 C  
HETATM   12  C   UNL     1      -9.492   7.550  71.702  1.00  0.00    -0.170 C  
HETATM   13  C   UNL     1      -6.208  10.044  70.012  1.00  0.00    -0.068 C  
HETATM   14  C   UNL     1     -10.416   9.198  68.261  1.00  0.00    -0.254 C  
HETATM   15  C   UNL     1      -9.760   8.972  71.240  1.00  0.00    -0.371 C  
HETATM   16  C   UNL     1      -7.845  10.516  68.065  1.00  0.00    -0.105 C  
HETATM   17  C   UNL     1      -8.870   9.405  68.790  1.00  0.00    -0.132 C  
HETATM   18  C   UNL     1      -6.384  10.263  68.496  1.00  0.00    -0.051 C  
HETATM   19  C   UNL     1      -8.713   9.618  70.324  1.00  0.00    -0.248 C  
ENDROOT
BRANCH   4  20
HETATM   20  C   UNL     1     -11.195  11.760  67.094  1.00  0.00    -0.316 C  
HETATM   21  O   UNL     1     -12.031  11.982  66.206  1.00  0.00    -0.596 OA 
HETATM   22  C   UNL     1     -11.599  12.160  68.492  1.00  0.00    -0.366 C  
ENDBRANCH   4  20
BRANCH   4  23
HETATM   23  O   UNL     1      -9.360  12.558  66.143  1.00  0.00    -0.217 OA 
BRANCH  23  24
HETATM   24  C   UNL     1      -9.152  13.710  66.823  1.00  0.00    -0.217 C  
HETATM   25  O   UNL     1      -8.492  13.821  67.839  1.00  0.00    -0.152 OA 
BRANCH  24  26
HETATM   26  C   UNL     1      -9.716  14.857  66.002  1.00  0.00    -0.358 C  
BRANCH  26  27
HETATM   27  C   UNL     1      -9.865  16.133  66.800  1.00  0.00    -0.255 C  
BRANCH  27  28
HETATM   28  C   UNL     1     -11.083  16.079  67.715  1.00  0.00    -0.273 C  
BRANCH  28  29
HETATM   29  C   UNL     1     -10.745  16.611  69.100  1.00  0.00    -0.342 C  
HETATM   30  C   UNL     1     -10.895  15.518  70.143  1.00  0.00    -0.346 C  
ENDBRANCH  28  29
ENDBRANCH  27  28
ENDBRANCH  26  27
ENDBRANCH  24  26
ENDBRANCH  23  24
ENDBRANCH   4  23
TORSDOF 7
ENDMDL
MODEL       34
REMARK 921   NORMALIZED FREE ENERGY PREDICTED BY IDOCK:   -4.59 KCAL/MOL
REMARK 922        TOTAL FREE ENERGY PREDICTED BY IDOCK:   -6.55 KCAL/MOL
REMARK 923 INTER-LIGAND FREE ENERGY PREDICTED BY IDOCK:   -6.93 KCAL/MOL
REMARK 924 INTRA-LIGAND FREE ENERGY PREDICTED BY IDOCK:    0.38 KCAL/MOL
REMARK 927      BINDING AFFINITY PREDICTED BY RF-SCORE:    0.00 PKD
ROOT
HETATM    1  C   UNL     1      -8.267   9.739  69.302  1.00  0.00    -0.132 C  
HETATM    2  C   UNL     1      -7.280  10.065  70.268  1.00  0.00    -0.155 C  
HETATM    3  C   UNL     1      -7.238   8.691  69.707  1.00  0.00    -0.051 C  
HETATM    4  C   UNL     1      -8.446   8.410  68.053  1.00  0.00    -0.132 C  
HETATM    5  C   UNL     1     -10.965   6.379  73.249  1.00  0.00    -0.218 C  
HETATM    6  O   UNL     1     -10.509   4.436  74.466  1.00  0.00    -0.245 OA 
HETATM    7  C   UNL     1      -7.108   8.680  68.135  1.00  0.00    -0.082 C  
HETATM    8  C   UNL     1     -10.558   4.962  73.353  1.00  0.00    -0.239 C  
HETATM    9  C   UNL     1     -10.954   7.042  72.080  1.00  0.00    -0.264 C  
HETATM   10  C   UNL     1      -6.855   6.899  68.569  1.00  0.00    -0.070 C  
HETATM   11  C   UNL     1      -6.154   9.421  67.211  1.00  0.00    -0.056 C  
HETATM   12  C   UNL     1     -10.160   4.206  72.112  1.00  0.00    -0.248 C  
HETATM   13  C   UNL     1     -11.285   8.517  72.002  1.00  0.00    -0.418 C  
HETATM   14  C   UNL     1      -8.187   6.250  69.402  1.00  0.00    -0.114 C  
HETATM   15  C   UNL     1     -10.535   4.875  70.800  1.00  0.00    -0.166 C  
HETATM   16  C   UNL     1      -9.568   8.705  70.075  1.00  0.00    -0.175 C  
HETATM   17  C   UNL     1      -9.178   7.107  70.400  1.00  0.00    -0.156 C  
HETATM   18  C   UNL     1     -10.197   9.370  71.319  1.00  0.00    -0.340 C  
HETATM   19  C   UNL     1     -10.520   6.408  70.769  1.00  0.00    -0.270 C  
ENDROOT
BRANCH   4  20
HETATM   20  C   UNL     1      -8.517   7.443  66.757  1.00  0.00    -0.124 C  
HETATM   21  O   UNL     1      -7.696   7.453  65.827  1.00  0.00    -0.092 OA 
HETATM   22  C   UNL     1      -9.706   6.531  66.576  1.00  0.00    -0.177 C  
ENDBRANCH   4  20
BRANCH   4  23
HETATM   23  O   UNL     1      -8.800   9.610  67.118  1.00  0.00    -0.131 OA 
BRANCH  23  24
HETATM   24  C   UNL     1     -10.054   9.879  66.681  1.00  0.00    -0.233 C  
HETATM   25  O   UNL     1     -11.044   9.962  67.385  1.00  0.00    -0.234 OA 
BRANCH  24  26
HETATM   26  C   UNL     1      -9.979  10.245  65.210  1.00  0.00    -0.387 C  
BRANCH  26  27
HETATM   27  C   UNL     1     -10.237  11.714  64.955  1.00  0.00    -0.321 C  
BRANCH  27  28
HETATM   28  C   UNL     1     -10.736  11.954  63.536  1.00  0.00    -0.504 C  
BRANCH  28  29
HETATM   29  C   UNL     1     -12.218  12.304  63.534  1.00  0.00    -0.669 C  
HETATM   30  C   UNL     1     -12.625  12.910  64.865  1.00  0.00    -0.525 C  
ENDBRANCH  28  29
ENDBRANCH  27  28
ENDBRANCH  26  27
ENDBRANCH  24  26
ENDBRANCH  23  24
ENDBRANCH   4  23
TORSDOF 7
ENDMDL
MODEL       35
REMARK 921   NORMALIZED FREE ENERGY PREDICTED BY IDOCK:   -4.57 KCAL/MOL
REMARK 922        TOTAL FREE ENERGY PREDICTED BY IDOCK:   -6.53 KCAL/MOL
REMARK 923 INTER-LIGAND FREE ENERGY PREDICTED BY IDOCK:   -7.50 KCAL/MOL
REMARK 924 INTRA-LIGAND FREE ENERGY PREDICTED BY IDOCK:    0.97 KCAL/MOL
REMARK 927      BINDING AFFINITY PREDICTED BY RF-SCORE:    0.00 PKD
ROOT
HETATM    1  C   UNL     1      -8.640  11.095  69.196  1.00  0.00     0.045 C  
HETATM    2  C   UNL     1      -7.246  10.835  69.269  1.00  0.00    -0.122 C  
HETATM    3  C   UNL     1      -7.904  10.583  67.963  1.00  0.00    -0.105 C  
HETATM    4  C   UNL     1      -9.826  11.333  67.819  1.00  0.00    -0.173 C  
HETATM    5  C   UNL     1      -9.664   5.344  69.075  1.00  0.00    -0.208 C  
HETATM    6  O   UNL     1      -9.213   3.536  67.663  1.00  0.00    -0.155 OA 
HETATM    7  C   UNL     1      -8.637  11.858  67.395  1.00  0.00    -0.164 C  
HETATM    8  C   UNL     1      -9.691   4.667  67.761  1.00  0.00    -0.155 C  
HETATM    9  C   UNL     1     -10.085   6.610  69.236  1.00  0.00    -0.187 C  
HETATM   10  C   UNL     1      -8.717  10.683  65.967  1.00  0.00    -0.186 C  
HETATM   11  C   UNL     1      -8.153  13.289  67.225  1.00  0.00    -0.150 C  
HETATM   12  C   UNL     1     -10.249   5.389  66.561  1.00  0.00    -0.287 C  
HETATM   13  C   UNL     1      -9.966   7.320  70.568  1.00  0.00    -0.191 C  
HETATM   14  C   UNL     1      -9.524   9.243  66.372  1.00  0.00    -0.277 C  
HETATM   15  C   UNL     1     -11.051   6.640  66.875  1.00  0.00    -0.319 C  
HETATM   16  C   UNL     1      -9.564   9.514  69.254  1.00  0.00    -0.179 C  
HETATM   17  C   UNL     1      -9.540   8.565  67.873  1.00  0.00    -0.177 C  
HETATM   18  C   UNL     1      -9.215   8.665  70.497  1.00  0.00    -0.201 C  
HETATM   19  C   UNL     1     -10.616   7.461  68.095  1.00  0.00    -0.216 C  
ENDROOT
BRANCH   4  20
HETATM   20  C   UNL     1     -10.847  11.830  66.666  1.00  0.00    -0.276 C  
HETATM   21  O   UNL     1     -11.897  11.247  66.358  1.00  0.00    -0.193 OA 
HETATM   22  C   UNL     1     -10.477  13.016  65.809  1.00  0.00    -0.292 C  
ENDBRANCH   4  20
BRANCH   4  23
HETATM   23  O   UNL     1     -10.260  12.568  68.670  1.00  0.00    -0.220 OA 
BRANCH  23  24
HETATM   24  C   UNL     1     -11.461  12.673  69.286  1.00  0.00    -0.294 C  
HETATM   25  O   UNL     1     -12.077  11.753  69.793  1.00  0.00    -0.297 OA 
BRANCH  24  26
HETATM   26  C   UNL     1     -11.810  14.146  69.406  1.00  0.00    -0.378 C  
BRANCH  26  27
HETATM   27  C   UNL     1     -12.061  14.576  70.834  1.00  0.00    -0.404 C  
BRANCH  27  28
HETATM   28  C   UNL     1     -13.482  15.098  71.017  1.00  0.00    -0.493 C  
BRANCH  28  29
HETATM   29  C   UNL     1     -13.852  15.158  72.492  1.00  0.00    -0.602 C  
HETATM   30  C   UNL     1     -12.606  15.275  73.351  1.00  0.00    -0.648 C  
ENDBRANCH  28  29
ENDBRANCH  27  28
ENDBRANCH  26  27
ENDBRANCH  24  26
ENDBRANCH  23  24
ENDBRANCH   4  23
TORSDOF 7
ENDMDL
MODEL       36
REMARK 921   NORMALIZED FREE ENERGY PREDICTED BY IDOCK:   -4.57 KCAL/MOL
REMARK 922        TOTAL FREE ENERGY PREDICTED BY IDOCK:   -6.52 KCAL/MOL
REMARK 923 INTER-LIGAND FREE ENERGY PREDICTED BY IDOCK:   -6.71 KCAL/MOL
REMARK 924 INTRA-LIGAND FREE ENERGY PREDICTED BY IDOCK:    0.19 KCAL/MOL
REMARK 927      BINDING AFFINITY PREDICTED BY RF-SCORE:    0.00 PKD
ROOT
HETATM    1  C   UNL     1      -8.459  10.147  69.605  1.00  0.00    -0.172 C  
HETATM    2  C   UNL     1      -7.208  10.215  70.272  1.00  0.00    -0.131 C  
HETATM    3  C   UNL     1      -7.405   9.079  69.337  1.00  0.00    -0.075 C  
HETATM    4  C   UNL     1      -9.076   9.250  68.132  1.00  0.00    -0.128 C  
HETATM    5  C   UNL     1      -9.963   5.620  72.981  1.00  0.00    -0.191 C  
HETATM    6  O   UNL     1      -9.246   3.426  73.352  1.00  0.00    -0.099 OA 
HETATM    7  C   UNL     1      -7.767   9.549  67.877  1.00  0.00    -0.087 C  
HETATM    8  C   UNL     1      -9.611   4.260  72.521  1.00  0.00    -0.138 C  
HETATM    9  C   UNL     1     -10.282   6.604  72.123  1.00  0.00    -0.209 C  
HETATM   10  C   UNL     1      -7.476   7.736  67.651  1.00  0.00    -0.104 C  
HETATM   11  C   UNL     1      -7.111  10.582  66.973  1.00  0.00    -0.094 C  
HETATM   12  C   UNL     1      -9.651   3.935  71.051  1.00  0.00    -0.251 C  
HETATM   13  C   UNL     1     -10.551   8.016  72.601  1.00  0.00    -0.419 C  
HETATM   14  C   UNL     1      -8.516   6.799  68.617  1.00  0.00    -0.123 C  
HETATM   15  C   UNL     1     -10.380   4.948  70.185  1.00  0.00    -0.253 C  
HETATM   16  C   UNL     1      -9.505   8.863  70.391  1.00  0.00    -0.227 C  
HETATM   17  C   UNL     1      -9.110   7.263  70.081  1.00  0.00    -0.148 C  
HETATM   18  C   UNL     1      -9.688   9.089  71.908  1.00  0.00    -0.242 C  
HETATM   19  C   UNL     1     -10.304   6.419  70.615  1.00  0.00    -0.243 C  
ENDROOT
BRANCH   4  20
HETATM   20  C   UNL     1      -9.588   8.716  66.692  1.00  0.00    -0.221 C  
HETATM   21  O   UNL     1      -9.261   9.209  65.603  1.00  0.00    -0.210 OA 
HETATM   22  C   UNL     1     -10.622   7.617  66.633  1.00  0.00    -0.092 C  
ENDBRANCH   4  20
BRANCH   4  23
HETATM   23  O   UNL     1      -9.645  10.656  67.760  1.00  0.00    -0.155 OA 
BRANCH  23  24
HETATM   24  C   UNL     1     -10.962  10.968  67.797  1.00  0.00    -0.269 C  
HETATM   25  O   UNL     1     -11.808  10.385  68.450  1.00  0.00    -0.304 OA 
BRANCH  24  26
HETATM   26  C   UNL     1     -11.165  12.272  67.045  1.00  0.00    -0.367 C  
BRANCH  26  27
HETATM   27  C   UNL     1     -10.064  12.551  66.045  1.00  0.00    -0.268 C  
BRANCH  27  28
HETATM   28  C   UNL     1     -10.622  13.128  64.750  1.00  0.00    -0.390 C  
BRANCH  28  29
HETATM   29  C   UNL     1     -10.920  12.021  63.747  1.00  0.00    -0.492 C  
HETATM   30  C   UNL     1     -12.418  11.851  63.570  1.00  0.00    -0.609 C  
ENDBRANCH  28  29
ENDBRANCH  27  28
ENDBRANCH  26  27
ENDBRANCH  24  26
ENDBRANCH  23  24
ENDBRANCH   4  23
TORSDOF 7
ENDMDL
MODEL       37
REMARK 921   NORMALIZED FREE ENERGY PREDICTED BY IDOCK:   -4.56 KCAL/MOL
REMARK 922        TOTAL FREE ENERGY PREDICTED BY IDOCK:   -6.51 KCAL/MOL
REMARK 923 INTER-LIGAND FREE ENERGY PREDICTED BY IDOCK:   -6.52 KCAL/MOL
REMARK 924 INTRA-LIGAND FREE ENERGY PREDICTED BY IDOCK:    0.02 KCAL/MOL
REMARK 927      BINDING AFFINITY PREDICTED BY RF-SCORE:    0.00 PKD
ROOT
HETATM    1  C   UNL     1      -8.399  11.508  67.462  1.00  0.00    -0.143 C  
HETATM    2  C   UNL     1      -7.732  12.299  68.433  1.00  0.00    -0.141 C  
HETATM    3  C   UNL     1      -7.372  10.860  68.382  1.00  0.00    -0.094 C  
HETATM    4  C   UNL     1      -8.088   9.862  66.720  1.00  0.00    -0.117 C  
HETATM    5  C   UNL     1     -11.515   8.989  71.716  1.00  0.00    -0.442 C  
HETATM    6  O   UNL     1     -11.119   7.630  73.576  1.00  0.00    -0.315 OA 
HETATM    7  C   UNL     1      -6.860  10.411  66.960  1.00  0.00    -0.085 C  
HETATM    8  C   UNL     1     -10.963   7.781  72.363  1.00  0.00    -0.311 C  
HETATM    9  C   UNL     1     -11.305   9.264  70.417  1.00  0.00    -0.283 C  
HETATM   10  C   UNL     1      -6.487   8.930  68.004  1.00  0.00    -0.057 C  
HETATM   11  C   UNL     1      -5.814  11.024  66.041  1.00  0.00    -0.125 C  
HETATM   12  C   UNL     1     -10.175   6.790  71.546  1.00  0.00    -0.210 C  
HETATM   13  C   UNL     1     -11.799  10.550  69.789  1.00  0.00    -0.329 C  
HETATM   14  C   UNL     1      -7.885   8.298  68.736  1.00  0.00    -0.115 C  
HETATM   15  C   UNL     1     -10.301   6.949  70.040  1.00  0.00    -0.219 C  
HETATM   16  C   UNL     1      -9.701  10.506  68.274  1.00  0.00    -0.163 C  
HETATM   17  C   UNL     1      -9.196   9.190  69.183  1.00  0.00    -0.144 C  
HETATM   18  C   UNL     1     -10.699  11.366  69.081  1.00  0.00    -0.229 C  
HETATM   19  C   UNL     1     -10.482   8.373  69.501  1.00  0.00    -0.225 C  
ENDROOT
BRANCH   4  20
HETATM   20  C   UNL     1      -7.709   8.561  65.834  1.00  0.00    -0.097 C  
HETATM   21  O   UNL     1      -6.756   8.503  65.042  1.00  0.00    -0.063 OA 
HETATM   22  C   UNL     1      -8.617   7.355  65.860  1.00  0.00    -0.165 C  
ENDBRANCH   4  20
BRANCH   4  23
HETATM   23  O   UNL     1      -8.357  10.632  65.388  1.00  0.00    -0.163 OA 
BRANCH  23  24
HETATM   24  C   UNL     1      -9.522  10.562  64.700  1.00  0.00    -0.263 C  
HETATM   25  O   UNL     1     -10.535  10.008  65.084  1.00  0.00    -0.113 OA 
BRANCH  24  26
HETATM   26  C   UNL     1      -9.405  11.447  63.472  1.00  0.00    -0.187 C  
BRANCH  26  27
HETATM   27  C   UNL     1     -10.555  12.421  63.338  1.00  0.00    -0.375 C  
BRANCH  27  28
HETATM   28  C   UNL     1     -10.652  13.339  64.551  1.00  0.00    -0.437 C  
BRANCH  28  29
HETATM   29  C   UNL     1     -12.048  13.294  65.156  1.00  0.00    -0.452 C  
HETATM   30  C   UNL     1     -12.003  13.657  66.629  1.00  0.00    -0.458 C  
ENDBRANCH  28  29
ENDBRANCH  27  28
ENDBRANCH  26  27
ENDBRANCH  24  26
ENDBRANCH  23  24
ENDBRANCH   4  23
TORSDOF 7
ENDMDL
MODEL       38
REMARK 921   NORMALIZED FREE ENERGY PREDICTED BY IDOCK:   -4.56 KCAL/MOL
REMARK 922        TOTAL FREE ENERGY PREDICTED BY IDOCK:   -6.50 KCAL/MOL
REMARK 923 INTER-LIGAND FREE ENERGY PREDICTED BY IDOCK:   -7.13 KCAL/MOL
REMARK 924 INTRA-LIGAND FREE ENERGY PREDICTED BY IDOCK:    0.62 KCAL/MOL
REMARK 927      BINDING AFFINITY PREDICTED BY RF-SCORE:    0.00 PKD
ROOT
HETATM    1  C   UNL     1      -8.949  10.352  69.578  1.00  0.00    -0.127 C  
HETATM    2  C   UNL     1      -7.759   9.945  70.237  1.00  0.00    -0.160 C  
HETATM    3  C   UNL     1      -7.783   9.812  68.759  1.00  0.00    -0.081 C  
HETATM    4  C   UNL     1      -9.374  10.764  67.844  1.00  0.00    -0.150 C  
HETATM    5  C   UNL     1     -10.253   4.748  68.558  1.00  0.00    -0.054 C  
HETATM    6  O   UNL     1      -9.361   2.957  67.350  1.00  0.00    -0.192 OA 
HETATM    7  C   UNL     1      -8.084  11.177  68.030  1.00  0.00    -0.123 C  
HETATM    8  C   UNL     1      -9.743   4.128  67.317  1.00  0.00    -0.170 C  
HETATM    9  C   UNL     1     -10.602   6.044  68.618  1.00  0.00    -0.327 C  
HETATM   10  C   UNL     1      -7.608  10.071  66.625  1.00  0.00    -0.104 C  
HETATM   11  C   UNL     1      -7.465  12.555  68.206  1.00  0.00    -0.122 C  
HETATM   12  C   UNL     1      -9.649   4.948  66.057  1.00  0.00    -0.185 C  
HETATM   13  C   UNL     1     -11.036   6.689  69.918  1.00  0.00    -0.403 C  
HETATM   14  C   UNL     1      -8.621   8.709  66.515  1.00  0.00    -0.124 C  
HETATM   15  C   UNL     1     -10.408   6.264  66.084  1.00  0.00     0.189 C  
HETATM   16  C   UNL     1      -9.922   8.875  69.097  1.00  0.00    -0.192 C  
HETATM   17  C   UNL     1      -9.357   7.981  67.796  1.00  0.00    -0.151 C  
HETATM   18  C   UNL     1     -10.231   7.949  70.293  1.00  0.00    -0.200 C  
HETATM   19  C   UNL     1     -10.501   6.989  67.432  1.00  0.00    -0.343 C  
ENDROOT
BRANCH   4  20
HETATM   20  C   UNL     1      -9.731  11.408  66.403  1.00  0.00    -0.204 C  
HETATM   21  O   UNL     1      -9.401  12.547  66.041  1.00  0.00    -0.195 OA 
HETATM   22  C   UNL     1     -10.617  10.645  65.448  1.00  0.00    -0.185 C  
ENDBRANCH   4  20
BRANCH   4  23
HETATM   23  O   UNL     1     -10.044  12.006  68.512  1.00  0.00    -0.210 OA 
BRANCH  23  24
HETATM   24  C   UNL     1     -11.381  12.134  68.689  1.00  0.00    -0.280 C  
HETATM   25  O   UNL     1     -12.198  11.240  68.570  1.00  0.00    -0.588 OA 
BRANCH  24  26
HETATM   26  C   UNL     1     -11.658  13.520  69.243  1.00  0.00    -0.369 C  
BRANCH  26  27
HETATM   27  C   UNL     1     -12.530  13.496  70.479  1.00  0.00    -0.373 C  
BRANCH  27  28
HETATM   28  C   UNL     1     -12.141  14.599  71.457  1.00  0.00    -0.413 C  
BRANCH  28  29
HETATM   29  C   UNL     1     -12.967  14.507  72.733  1.00  0.00    -0.563 C  
HETATM   30  C   UNL     1     -12.774  15.749  73.584  1.00  0.00    -0.729 C  
ENDBRANCH  28  29
ENDBRANCH  27  28
ENDBRANCH  26  27
ENDBRANCH  24  26
ENDBRANCH  23  24
ENDBRANCH   4  23
TORSDOF 7
ENDMDL
MODEL       39
REMARK 921   NORMALIZED FREE ENERGY PREDICTED BY IDOCK:   -4.54 KCAL/MOL
REMARK 922        TOTAL FREE ENERGY PREDICTED BY IDOCK:   -6.48 KCAL/MOL
REMARK 923 INTER-LIGAND FREE ENERGY PREDICTED BY IDOCK:   -7.08 KCAL/MOL
REMARK 924 INTRA-LIGAND FREE ENERGY PREDICTED BY IDOCK:    0.60 KCAL/MOL
REMARK 927      BINDING AFFINITY PREDICTED BY RF-SCORE:    0.00 PKD
ROOT
HETATM    1  C   UNL     1     -10.730   6.329  69.126  1.00  0.00    -0.362 C  
HETATM    2  C   UNL     1     -10.305   5.528  68.034  1.00  0.00    -0.237 C  
HETATM    3  C   UNL     1      -9.262   5.937  69.006  1.00  0.00    -0.132 C  
HETATM    4  C   UNL     1     -10.002   6.767  70.749  1.00  0.00    -0.187 C  
HETATM    5  C   UNL     1      -8.100  10.952  66.707  1.00  0.00    -0.142 C  
HETATM    6  O   UNL     1      -5.926  11.613  66.157  1.00  0.00    -0.129 OA 
HETATM    7  C   UNL     1      -9.596   5.490  70.481  1.00  0.00    -0.225 C  
HETATM    8  C   UNL     1      -6.681  11.200  67.039  1.00  0.00    -0.115 C  
HETATM    9  C   UNL     1      -8.958  10.417  67.592  1.00  0.00    -0.139 C  
HETATM   10  C   UNL     1      -7.853   6.095  70.633  1.00  0.00    -0.106 C  
HETATM   11  C   UNL     1     -10.024   4.141  71.037  1.00  0.00    -0.206 C  
HETATM   12  C   UNL     1      -6.173  10.893  68.424  1.00  0.00    -0.046 C  
HETATM   13  C   UNL     1     -10.385  10.084  67.210  1.00  0.00    -0.293 C  
HETATM   14  C   UNL     1      -7.700   7.721  70.161  1.00  0.00    -0.090 C  
HETATM   15  C   UNL     1      -7.250  10.667  69.471  1.00  0.00    -0.140 C  
HETATM   16  C   UNL     1     -10.249   8.073  68.834  1.00  0.00    -0.220 C  
HETATM   17  C   UNL     1      -8.628   8.458  69.018  1.00  0.00    -0.131 C  
HETATM   18  C   UNL     1     -10.785   8.622  67.493  1.00  0.00    -0.209 C  
HETATM   19  C   UNL     1      -8.556  10.014  69.001  1.00  0.00    -0.153 C  
ENDROOT
BRANCH   4  20
HETATM   20  C   UNL     1      -9.544   6.951  72.291  1.00  0.00    -0.146 C  
HETATM   21  O   UNL     1      -9.668   6.085  73.169  1.00  0.00    -0.159 OA 
HETATM   22  C   UNL     1      -9.029   8.292  72.757  1.00  0.00    -0.323 C  
ENDBRANCH   4  20
BRANCH   4  23
HETATM   23  O   UNL     1     -11.425   6.385  71.267  1.00  0.00    -0.295 OA 
BRANCH  23  24
HETATM   24  C   UNL     1     -12.473   7.242  71.291  1.00  0.00    -0.366 C  
HETATM   25  O   UNL     1     -13.638   6.936  71.120  1.00  0.00    -0.204 OA 
BRANCH  24  26
HETATM   26  C   UNL     1     -11.969   8.598  71.753  1.00  0.00    -0.402 C  
BRANCH  26  27
HETATM   27  C   UNL     1     -13.085   9.520  72.194  1.00  0.00    -0.522 C  
BRANCH  27  28
HETATM   28  C   UNL     1     -12.949  10.901  71.564  1.00  0.00    -0.556 C  
BRANCH  28  29
HETATM   29  C   UNL     1     -11.800  10.931  70.567  1.00  0.00    -0.457 C  
HETATM   30  C   UNL     1     -11.815  12.225  69.774  1.00  0.00    -0.388 C  
ENDBRANCH  28  29
ENDBRANCH  27  28
ENDBRANCH  26  27
ENDBRANCH  24  26
ENDBRANCH  23  24
ENDBRANCH   4  23
TORSDOF 7
ENDMDL
MODEL       40
REMARK 921   NORMALIZED FREE ENERGY PREDICTED BY IDOCK:   -4.51 KCAL/MOL
REMARK 922        TOTAL FREE ENERGY PREDICTED BY IDOCK:   -6.44 KCAL/MOL
REMARK 923 INTER-LIGAND FREE ENERGY PREDICTED BY IDOCK:   -7.51 KCAL/MOL
REMARK 924 INTRA-LIGAND FREE ENERGY PREDICTED BY IDOCK:    1.07 KCAL/MOL
REMARK 927      BINDING AFFINITY PREDICTED BY RF-SCORE:    0.00 PKD
ROOT
HETATM    1  C   UNL     1      -8.468   7.906  70.141  1.00  0.00    -0.129 C  
HETATM    2  C   UNL     1      -7.399   8.746  70.549  1.00  0.00    -0.066 C  
HETATM    3  C   UNL     1      -8.476   8.506  71.542  1.00  0.00    -0.221 C  
HETATM    4  C   UNL     1      -9.787   6.992  71.027  1.00  0.00    -0.180 C  
HETATM    5  C   UNL     1     -11.956  12.581  69.789  1.00  0.00    -0.359 C  
HETATM    6  O   UNL     1     -12.842  14.190  71.235  1.00  0.00    -0.323 OA 
HETATM    7  C   UNL     1      -8.693   6.975  71.846  1.00  0.00    -0.127 C  
HETATM    8  C   UNL     1     -12.700  12.989  71.000  1.00  0.00    -0.262 C  
HETATM    9  C   UNL     1     -11.685  11.293  69.517  1.00  0.00    -0.415 C  
HETATM   10  C   UNL     1      -9.741   7.790  73.136  1.00  0.00    -0.347 C  
HETATM   11  C   UNL     1      -7.697   5.881  72.201  1.00  0.00    -0.102 C  
HETATM   12  C   UNL     1     -13.219  11.939  71.946  1.00  0.00    -0.467 C  
HETATM   13  C   UNL     1     -10.843  10.896  68.322  1.00  0.00    -0.272 C  
HETATM   14  C   UNL     1     -10.937   8.784  72.449  1.00  0.00    -0.229 C  
HETATM   15  C   UNL     1     -13.225  10.521  71.399  1.00  0.00    -0.441 C  
HETATM   16  C   UNL     1      -9.935   8.928  69.736  1.00  0.00    -0.196 C  
HETATM   17  C   UNL     1     -10.780   9.592  71.022  1.00  0.00    -0.393 C  
HETATM   18  C   UNL     1      -9.633  10.009  68.675  1.00  0.00    -0.158 C  
HETATM   19  C   UNL     1     -12.105  10.146  70.420  1.00  0.00    -0.332 C  
ENDROOT
BRANCH   4  20
HETATM   20  C   UNL     1     -10.780   5.949  71.766  1.00  0.00    -0.245 C  
HETATM   21  O   UNL     1     -11.985   6.154  71.975  1.00  0.00    -0.324 OA 
HETATM   22  C   UNL     1     -10.217   4.678  72.354  1.00  0.00    -0.249 C  
ENDBRANCH   4  20
BRANCH   4  23
HETATM   23  O   UNL     1      -9.322   5.822  70.103  1.00  0.00    -0.150 OA 
BRANCH  23  24
HETATM   24  C   UNL     1     -10.116   5.234  69.177  1.00  0.00    -0.219 C  
HETATM   25  O   UNL     1     -10.137   4.045  68.918  1.00  0.00     0.046 OA 
BRANCH  24  26
HETATM   26  C   UNL     1     -11.098   6.272  68.662  1.00  0.00    -0.409 C  
BRANCH  26  27
HETATM   27  C   UNL     1     -10.985   6.500  67.171  1.00  0.00    -0.480 C  
BRANCH  27  28
HETATM   28  C   UNL     1      -9.579   6.200  66.667  1.00  0.00    -0.181 C  
BRANCH  28  29
HETATM   29  C   UNL     1      -8.836   7.487  66.336  1.00  0.00    -0.178 C  
HETATM   30  C   UNL     1      -7.609   7.194  65.491  1.00  0.00    -0.098 C  
ENDBRANCH  28  29
ENDBRANCH  27  28
ENDBRANCH  26  27
ENDBRANCH  24  26
ENDBRANCH  23  24
ENDBRANCH   4  23
TORSDOF 7
ENDMDL
MODEL       41
REMARK 921   NORMALIZED FREE ENERGY PREDICTED BY IDOCK:   -4.48 KCAL/MOL
REMARK 922        TOTAL FREE ENERGY PREDICTED BY IDOCK:   -6.40 KCAL/MOL
REMARK 923 INTER-LIGAND FREE ENERGY PREDICTED BY IDOCK:   -6.30 KCAL/MOL
REMARK 924 INTRA-LIGAND FREE ENERGY PREDICTED BY IDOCK:   -0.10 KCAL/MOL
REMARK 927      BINDING AFFINITY PREDICTED BY RF-SCORE:    0.00 PKD
ROOT
HETATM    1  C   UNL     1      -8.337   7.940  68.903  1.00  0.00    -0.127 C  
HETATM    2  C   UNL     1      -7.175   8.749  68.996  1.00  0.00    -0.072 C  
HETATM    3  C   UNL     1      -8.100   8.772  70.157  1.00  0.00    -0.114 C  
HETATM    4  C   UNL     1      -9.554   7.303  70.116  1.00  0.00    -0.168 C  
HETATM    5  C   UNL     1     -11.579  12.749  68.189  1.00  0.00    -0.380 C  
HETATM    6  O   UNL     1     -12.146  14.651  69.425  1.00  0.00    -0.306 OA 
HETATM    7  C   UNL     1      -8.351   7.339  70.764  1.00  0.00    -0.124 C  
HETATM    8  C   UNL     1     -12.107  13.420  69.396  1.00  0.00    -0.269 C  
HETATM    9  C   UNL     1     -11.422  11.416  68.123  1.00  0.00    -0.375 C  
HETATM   10  C   UNL     1      -9.146   8.447  72.015  1.00  0.00    -0.296 C  
HETATM   11  C   UNL     1      -7.373   6.247  71.171  1.00  0.00    -0.080 C  
HETATM   12  C   UNL     1     -12.533  12.594  70.582  1.00  0.00    -0.323 C  
HETATM   13  C   UNL     1     -10.795  10.751  66.916  1.00  0.00    -0.288 C  
HETATM   14  C   UNL     1     -10.376   9.401  71.331  1.00  0.00    -0.326 C  
HETATM   15  C   UNL     1     -12.699  11.109  70.310  1.00  0.00    -0.213 C  
HETATM   16  C   UNL     1      -9.790   8.991  68.525  1.00  0.00    -0.184 C  
HETATM   17  C   UNL     1     -10.394   9.934  69.773  1.00  0.00    -0.278 C  
HETATM   18  C   UNL     1      -9.595   9.844  67.252  1.00  0.00    -0.195 C  
HETATM   19  C   UNL     1     -11.763  10.480  69.271  1.00  0.00    -0.281 C  
ENDROOT
BRANCH   4  20
HETATM   20  C   UNL     1     -10.479   6.487  71.164  1.00  0.00    -0.220 C  
HETATM   21  O   UNL     1     -10.064   5.603  71.927  1.00  0.00    -0.179 OA 
HETATM   22  C   UNL     1     -11.972   6.710  71.167  1.00  0.00    -0.412 C  
ENDBRANCH   4  20
BRANCH   4  23
HETATM   23  O   UNL     1      -9.299   5.957  69.366  1.00  0.00    -0.128 OA 
BRANCH  23  24
HETATM   24  C   UNL     1     -10.194   5.382  68.528  1.00  0.00    -0.169 C  
HETATM   25  O   UNL     1     -11.026   5.976  67.869  1.00  0.00    -0.302 OA 
BRANCH  24  26
HETATM   26  C   UNL     1      -9.854   3.907  68.407  1.00  0.00    -0.012 C  
BRANCH  26  27
HETATM   27  C   UNL     1      -9.555   3.487  66.985  1.00  0.00    -0.155 C  
BRANCH  27  28
HETATM   28  C   UNL     1      -8.219   4.045  66.508  1.00  0.00    -0.101 C  
BRANCH  28  29
HETATM   29  C   UNL     1      -8.368   4.733  65.159  1.00  0.00    -0.129 C  
HETATM   30  C   UNL     1      -8.596   6.223  65.342  1.00  0.00    -0.097 C  
ENDBRANCH  28  29
ENDBRANCH  27  28
ENDBRANCH  26  27
ENDBRANCH  24  26
ENDBRANCH  23  24
ENDBRANCH   4  23
TORSDOF 7
ENDMDL
MODEL       42
REMARK 921   NORMALIZED FREE ENERGY PREDICTED BY IDOCK:   -4.46 KCAL/MOL
REMARK 922        TOTAL FREE ENERGY PREDICTED BY IDOCK:   -6.37 KCAL/MOL
REMARK 923 INTER-LIGAND FREE ENERGY PREDICTED BY IDOCK:   -6.37 KCAL/MOL
REMARK 924 INTRA-LIGAND FREE ENERGY PREDICTED BY IDOCK:    0.00 KCAL/MOL
REMARK 927      BINDING AFFINITY PREDICTED BY RF-SCORE:    0.00 PKD
ROOT
HETATM    1  C   UNL     1      -8.009  10.845  66.893  1.00  0.00    -0.138 C  
HETATM    2  C   UNL     1      -7.395   9.842  66.098  1.00  0.00    -0.104 C  
HETATM    3  C   UNL     1      -8.678   9.484  66.751  1.00  0.00    -0.138 C  
HETATM    4  C   UNL     1      -9.695  11.087  67.569  1.00  0.00    -0.172 C  
HETATM    5  C   UNL     1      -6.515   7.887  71.706  1.00  0.00    -0.041 C  
HETATM    6  O   UNL     1      -7.000   5.821  72.686  1.00  0.00    -0.076 OA 
HETATM    7  C   UNL     1      -9.852  10.462  66.363  1.00  0.00    -0.266 C  
HETATM    8  C   UNL     1      -7.454   6.866  72.217  1.00  0.00    -0.087 C  
HETATM    9  C   UNL     1      -6.940   9.009  71.100  1.00  0.00    -0.096 C  
HETATM   10  C   UNL     1     -10.740   9.113  67.266  1.00  0.00    -0.224 C  
HETATM   11  C   UNL     1     -10.324  10.959  65.006  1.00  0.00    -0.356 C  
HETATM   12  C   UNL     1      -8.939   7.094  72.105  1.00  0.00    -0.142 C  
HETATM   13  C   UNL     1      -5.967  10.002  70.500  1.00  0.00    -0.092 C  
HETATM   14  C   UNL     1     -10.166   8.925  68.855  1.00  0.00    -0.220 C  
HETATM   15  C   UNL     1      -9.351   8.519  71.776  1.00  0.00    -0.323 C  
HETATM   16  C   UNL     1      -7.731  10.480  68.667  1.00  0.00    -0.106 C  
HETATM   17  C   UNL     1      -8.620   9.226  69.337  1.00  0.00    -0.142 C  
HETATM   18  C   UNL     1      -6.234  10.325  69.016  1.00  0.00    -0.040 C  
HETATM   19  C   UNL     1      -8.408   9.329  70.876  1.00  0.00    -0.196 C  
ENDROOT
BRANCH   4  20
HETATM   20  C   UNL     1     -11.217  11.491  67.942  1.00  0.00    -0.279 C  
HETATM   21  O   UNL     1     -12.115  11.691  67.110  1.00  0.00    -0.575 OA 
HETATM   22  C   UNL     1     -11.582  11.761  69.381  1.00  0.00    -0.386 C  
ENDBRANCH   4  20
BRANCH   4  23
HETATM   23  O   UNL     1      -9.506  12.525  66.988  1.00  0.00    -0.204 OA 
BRANCH  23  24
HETATM   24  C   UNL     1      -9.308  13.625  67.752  1.00  0.00    -0.218 C  
HETATM   25  O   UNL     1      -8.662  13.661  68.783  1.00  0.00    -0.075 OA 
BRANCH  24  26
HETATM   26  C   UNL     1      -9.859  14.828  67.008  1.00  0.00    -0.240 C  
BRANCH  26  27
HETATM   27  C   UNL     1      -9.857  14.643  65.507  1.00  0.00    -0.327 C  
BRANCH  27  28
HETATM   28  C   UNL     1     -11.025  15.372  64.854  1.00  0.00    -0.453 C  
BRANCH  28  29
HETATM   29  C   UNL     1     -12.101  14.389  64.414  1.00  0.00    -0.491 C  
HETATM   30  C   UNL     1     -13.141  14.212  65.505  1.00  0.00    -0.166 C  
ENDBRANCH  28  29
ENDBRANCH  27  28
ENDBRANCH  26  27
ENDBRANCH  24  26
ENDBRANCH  23  24
ENDBRANCH   4  23
TORSDOF 7
ENDMDL
MODEL       43
REMARK 921   NORMALIZED FREE ENERGY PREDICTED BY IDOCK:   -4.44 KCAL/MOL
REMARK 922        TOTAL FREE ENERGY PREDICTED BY IDOCK:   -6.34 KCAL/MOL
REMARK 923 INTER-LIGAND FREE ENERGY PREDICTED BY IDOCK:   -6.31 KCAL/MOL
REMARK 924 INTRA-LIGAND FREE ENERGY PREDICTED BY IDOCK:   -0.03 KCAL/MOL
REMARK 927      BINDING AFFINITY PREDICTED BY RF-SCORE:    0.00 PKD
ROOT
HETATM    1  C   UNL     1     -10.018  10.046  65.927  1.00  0.00    -0.339 C  
HETATM    2  C   UNL     1      -9.935  10.336  64.540  1.00  0.00    -0.359 C  
HETATM    3  C   UNL     1      -8.767  10.715  65.373  1.00  0.00    -0.195 C  
HETATM    4  C   UNL     1      -8.795   9.930  67.285  1.00  0.00    -0.132 C  
HETATM    5  C   UNL     1     -10.704  15.741  67.038  1.00  0.00    -0.306 C  
HETATM    6  O   UNL     1      -9.463  17.709  66.809  1.00  0.00    -0.262 OA 
HETATM    7  C   UNL     1      -8.157   9.492  66.158  1.00  0.00    -0.111 C  
HETATM    8  C   UNL     1      -9.493  16.560  67.254  1.00  0.00    -0.235 C  
HETATM    9  C   UNL     1     -10.772  14.453  67.415  1.00  0.00    -0.280 C  
HETATM   10  C   UNL     1      -6.899  10.818  66.448  1.00  0.00    -0.135 C  
HETATM   11  C   UNL     1      -7.759   8.104  65.682  1.00  0.00    -0.090 C  
HETATM   12  C   UNL     1      -8.303  15.963  67.959  1.00  0.00    -0.161 C  
HETATM   13  C   UNL     1     -11.984  13.600  67.107  1.00  0.00    -0.434 C  
HETATM   14  C   UNL     1      -7.572  12.179  67.213  1.00  0.00    -0.156 C  
HETATM   15  C   UNL     1      -8.574  14.661  68.694  1.00  0.00    -0.172 C  
HETATM   16  C   UNL     1     -10.383  11.582  66.857  1.00  0.00    -0.258 C  
HETATM   17  C   UNL     1      -9.130  12.682  67.034  1.00  0.00    -0.215 C  
HETATM   18  C   UNL     1     -11.658  12.295  66.354  1.00  0.00    -0.445 C  
HETATM   19  C   UNL     1      -9.621  13.721  68.085  1.00  0.00    -0.216 C  
ENDROOT
BRANCH   4  20
HETATM   20  C   UNL     1      -7.738   9.537  68.447  1.00  0.00    -0.085 C  
HETATM   21  O   UNL     1      -6.972   8.563  68.399  1.00  0.00    -0.064 OA 
HETATM   22  C   UNL     1      -7.732  10.317  69.739  1.00  0.00    -0.159 C  
ENDBRANCH   4  20
BRANCH   4  23
HETATM   23  O   UNL     1      -9.547   8.594  67.582  1.00  0.00    -0.148 OA 
BRANCH  23  24
HETATM   24  C   UNL     1     -10.361   8.410  68.649  1.00  0.00    -0.197 C  
HETATM   25  O   UNL     1     -10.925   9.294  69.266  1.00  0.00    -0.191 OA 
BRANCH  24  26
HETATM   26  C   UNL     1     -10.598   6.920  68.816  1.00  0.00    -0.247 C  
BRANCH  26  27
HETATM   27  C   UNL     1      -9.669   6.078  67.970  1.00  0.00    -0.126 C  
BRANCH  27  28
HETATM   28  C   UNL     1     -10.435   5.298  66.908  1.00  0.00    -0.313 C  
BRANCH  28  29
HETATM   29  C   UNL     1      -9.515   4.888  65.767  1.00  0.00    -0.172 C  
HETATM   30  C   UNL     1      -8.311   4.131  66.297  1.00  0.00    -0.105 C  
ENDBRANCH  28  29
ENDBRANCH  27  28
ENDBRANCH  26  27
ENDBRANCH  24  26
ENDBRANCH  23  24
ENDBRANCH   4  23
TORSDOF 7
ENDMDL
MODEL       44
REMARK 921   NORMALIZED FREE ENERGY PREDICTED BY IDOCK:   -4.42 KCAL/MOL
REMARK 922        TOTAL FREE ENERGY PREDICTED BY IDOCK:   -6.31 KCAL/MOL
REMARK 923 INTER-LIGAND FREE ENERGY PREDICTED BY IDOCK:   -6.18 KCAL/MOL
REMARK 924 INTRA-LIGAND FREE ENERGY PREDICTED BY IDOCK:   -0.14 KCAL/MOL
REMARK 927      BINDING AFFINITY PREDICTED BY RF-SCORE:    0.00 PKD
ROOT
HETATM    1  C   UNL     1     -10.768   7.449  69.845  1.00  0.00    -0.254 C  
HETATM    2  C   UNL     1     -11.386   6.362  70.516  1.00  0.00    -0.438 C  
HETATM    3  C   UNL     1      -9.904   6.425  70.571  1.00  0.00    -0.207 C  
HETATM    4  C   UNL     1      -9.103   8.213  69.910  1.00  0.00    -0.151 C  
HETATM    5  C   UNL     1      -8.915   3.781  65.691  1.00  0.00    -0.136 C  
HETATM    6  O   UNL     1      -7.478   1.945  65.521  1.00  0.00    -0.066 OA 
HETATM    7  C   UNL     1      -9.376   7.780  71.178  1.00  0.00    -0.164 C  
HETATM    8  C   UNL     1      -7.608   3.117  65.879  1.00  0.00    -0.074 C  
HETATM    9  C   UNL     1      -9.156   5.025  66.139  1.00  0.00    -0.138 C  
HETATM   10  C   UNL     1      -7.835   6.760  71.078  1.00  0.00    -0.101 C  
HETATM   11  C   UNL     1      -9.764   8.518  72.450  1.00  0.00    -0.357 C  
HETATM   12  C   UNL     1      -6.483   3.860  66.552  1.00  0.00    -0.037 C  
HETATM   13  C   UNL     1     -10.526   5.659  66.020  1.00  0.00     0.021 C  
HETATM   14  C   UNL     1      -7.506   6.257  69.488  1.00  0.00    -0.093 C  
HETATM   15  C   UNL     1      -6.685   5.360  66.680  1.00  0.00    -0.058 C  
HETATM   16  C   UNL     1     -10.056   6.870  68.259  1.00  0.00    -0.182 C  
HETATM   17  C   UNL     1      -8.651   5.958  68.342  1.00  0.00    -0.113 C  
HETATM   18  C   UNL     1     -11.098   6.172  67.357  1.00  0.00    -0.326 C  
HETATM   19  C   UNL     1      -8.122   5.856  66.881  1.00  0.00    -0.102 C  
ENDROOT
BRANCH   4  20
HETATM   20  C   UNL     1      -7.764   9.093  70.133  1.00  0.00    -0.105 C  
HETATM   21  O   UNL     1      -7.486   9.698  71.179  1.00  0.00    -0.328 OA 
HETATM   22  C   UNL     1      -6.817   9.310  68.977  1.00  0.00    -0.055 C  
ENDBRANCH   4  20
BRANCH   4  23
HETATM   23  O   UNL     1      -9.931   9.534  70.003  1.00  0.00    -0.205 OA 
BRANCH  23  24
HETATM   24  C   UNL     1     -10.368  10.225  68.923  1.00  0.00    -0.204 C  
HETATM   25  O   UNL     1      -9.801  10.288  67.848  1.00  0.00    -0.154 OA 
BRANCH  24  26
HETATM   26  C   UNL     1     -11.765  10.740  69.220  1.00  0.00    -0.374 C  
BRANCH  26  27
HETATM   27  C   UNL     1     -11.803  11.689  70.398  1.00  0.00    -0.385 C  
BRANCH  27  28
HETATM   28  C   UNL     1     -12.825  11.246  71.438  1.00  0.00    -0.515 C  
BRANCH  28  29
HETATM   29  C   UNL     1     -13.305   9.829  71.157  1.00  0.00    -0.360 C  
HETATM   30  C   UNL     1     -13.351   9.017  72.438  1.00  0.00    -0.516 C  
ENDBRANCH  28  29
ENDBRANCH  27  28
ENDBRANCH  26  27
ENDBRANCH  24  26
ENDBRANCH  23  24
ENDBRANCH   4  23
TORSDOF 7
ENDMDL
MODEL       45
REMARK 921   NORMALIZED FREE ENERGY PREDICTED BY IDOCK:   -4.40 KCAL/MOL
REMARK 922        TOTAL FREE ENERGY PREDICTED BY IDOCK:   -6.29 KCAL/MOL
REMARK 923 INTER-LIGAND FREE ENERGY PREDICTED BY IDOCK:   -5.95 KCAL/MOL
REMARK 924 INTRA-LIGAND FREE ENERGY PREDICTED BY IDOCK:   -0.34 KCAL/MOL
REMARK 927      BINDING AFFINITY PREDICTED BY RF-SCORE:    0.00 PKD
ROOT
HETATM    1  C   UNL     1      -8.408   8.549  67.010  1.00  0.00    -0.110 C  
HETATM    2  C   UNL     1      -7.246   9.312  66.724  1.00  0.00    -0.083 C  
HETATM    3  C   UNL     1      -7.817   9.452  68.086  1.00  0.00    -0.087 C  
HETATM    4  C   UNL     1      -9.260   8.047  68.552  1.00  0.00    -0.135 C  
HETATM    5  C   UNL     1     -11.609  13.435  66.843  1.00  0.00    -0.404 C  
HETATM    6  O   UNL     1     -11.772  15.437  68.040  1.00  0.00    -0.336 OA 
HETATM    7  C   UNL     1      -7.925   8.074  68.845  1.00  0.00    -0.118 C  
HETATM    8  C   UNL     1     -11.771  14.206  68.094  1.00  0.00    -0.355 C  
HETATM    9  C   UNL     1     -11.507  12.095  66.837  1.00  0.00    -0.414 C  
HETATM   10  C   UNL     1      -8.321   9.295  70.178  1.00  0.00    -0.189 C  
HETATM   11  C   UNL     1      -6.899   6.971  69.052  1.00  0.00    -0.065 C  
HETATM   12  C   UNL     1     -11.875  13.480  69.410  1.00  0.00    -0.389 C  
HETATM   13  C   UNL     1     -11.250  11.326  65.559  1.00  0.00    -0.069 C  
HETATM   14  C   UNL     1      -9.669  10.254  69.784  1.00  0.00    -0.183 C  
HETATM   15  C   UNL     1     -12.144  11.988  69.306  1.00  0.00    -0.249 C  
HETATM   16  C   UNL     1      -9.884   9.635  66.963  1.00  0.00    -0.249 C  
HETATM   17  C   UNL     1     -10.101  10.683  68.253  1.00  0.00    -0.176 C  
HETATM   18  C   UNL     1     -10.025  10.392  65.624  1.00  0.00    -0.337 C  
HETATM   19  C   UNL     1     -11.542  11.253  68.102  1.00  0.00    -0.359 C  
ENDROOT
BRANCH   4  20
HETATM   20  C   UNL     1      -9.881   7.343  69.871  1.00  0.00    -0.178 C  
HETATM   21  O   UNL     1      -9.281   6.519  70.577  1.00  0.00    -0.154 OA 
HETATM   22  C   UNL     1     -11.324   7.594  70.237  1.00  0.00    -0.197 C  
ENDBRANCH   4  20
BRANCH   4  23
HETATM   23  O   UNL     1      -9.251   6.644  67.865  1.00  0.00    -0.115 OA 
BRANCH  23  24
HETATM   24  C   UNL     1     -10.372   5.983  67.491  1.00  0.00    -0.210 C  
HETATM   25  O   UNL     1     -11.393   6.502  67.077  1.00  0.00    -0.342 OA 
BRANCH  24  26
HETATM   26  C   UNL     1     -10.072   4.495  67.493  1.00  0.00    -0.096 C  
BRANCH  26  27
HETATM   27  C   UNL     1      -8.643   4.184  67.882  1.00  0.00    -0.107 C  
BRANCH  27  28
HETATM   28  C   UNL     1      -7.853   3.629  66.703  1.00  0.00    -0.088 C  
BRANCH  28  29
HETATM   29  C   UNL     1      -6.957   4.701  66.098  1.00  0.00    -0.066 C  
HETATM   30  C   UNL     1      -7.664   5.406  64.956  1.00  0.00    -0.087 C  
ENDBRANCH  28  29
ENDBRANCH  27  28
ENDBRANCH  26  27
ENDBRANCH  24  26
ENDBRANCH  23  24
ENDBRANCH   4  23
TORSDOF 7
ENDMDL
MODEL       46
REMARK 921   NORMALIZED FREE ENERGY PREDICTED BY IDOCK:   -4.38 KCAL/MOL
REMARK 922        TOTAL FREE ENERGY PREDICTED BY IDOCK:   -6.26 KCAL/MOL
REMARK 923 INTER-LIGAND FREE ENERGY PREDICTED BY IDOCK:   -7.06 KCAL/MOL
REMARK 924 INTRA-LIGAND FREE ENERGY PREDICTED BY IDOCK:    0.80 KCAL/MOL
REMARK 927      BINDING AFFINITY PREDICTED BY RF-SCORE:    0.00 PKD
ROOT
HETATM    1  C   UNL     1      -8.372  12.805  68.221  1.00  0.00    -0.161 C  
HETATM    2  C   UNL     1      -7.045  12.782  67.717  1.00  0.00    -0.132 C  
HETATM    3  C   UNL     1      -8.116  12.313  66.801  1.00  0.00    -0.025 C  
HETATM    4  C   UNL     1     -10.034  12.725  67.453  1.00  0.00    -0.212 C  
HETATM    5  C   UNL     1      -8.282   6.975  68.607  1.00  0.00    -0.122 C  
HETATM    6  O   UNL     1      -8.115   5.148  67.158  1.00  0.00    -0.103 OA 
HETATM    7  C   UNL     1      -9.236  13.397  66.569  1.00  0.00    -0.182 C  
HETATM    8  C   UNL     1      -8.712   6.191  67.430  1.00  0.00    -0.104 C  
HETATM    9  C   UNL     1      -8.827   8.165  68.911  1.00  0.00    -0.141 C  
HETATM   10  C   UNL     1      -9.666  12.105  65.317  1.00  0.00    -0.159 C  
HETATM   11  C   UNL     1      -9.133  14.868  66.196  1.00  0.00    -0.202 C  
HETATM   12  C   UNL     1      -9.828   6.705  66.557  1.00  0.00    -0.165 C  
HETATM   13  C   UNL     1      -8.315   8.999  70.066  1.00  0.00    -0.144 C  
HETATM   14  C   UNL     1      -9.963  10.594  66.037  1.00  0.00    -0.295 C  
HETATM   15  C   UNL     1     -10.651   7.832  67.158  1.00  0.00    -0.401 C  
HETATM   16  C   UNL     1      -8.887  11.106  68.676  1.00  0.00    -0.155 C  
HETATM   17  C   UNL     1      -9.248  10.056  67.419  1.00  0.00    -0.153 C  
HETATM   18  C   UNL     1      -7.918  10.437  69.675  1.00  0.00    -0.129 C  
HETATM   19  C   UNL     1      -9.920   8.816  68.080  1.00  0.00    -0.220 C  
ENDROOT
BRANCH   4  20
HETATM   20  C   UNL     1     -11.505  12.947  66.816  1.00  0.00    -0.340 C  
HETATM   21  O   UNL     1     -12.405  12.094  66.811  1.00  0.00    -0.429 OA 
HETATM   22  C   UNL     1     -11.807  14.226  66.071  1.00  0.00    -0.399 C  
ENDBRANCH   4  20
BRANCH   4  23
HETATM   23  O   UNL     1     -10.307  13.944  68.391  1.00  0.00    -0.237 OA 
BRANCH  23  24
HETATM   24  C   UNL     1     -11.280  13.964  69.333  1.00  0.00    -0.224 C  
HETATM   25  O   UNL     1     -11.686  12.996  69.949  1.00  0.00    -0.304 OA 
BRANCH  24  26
HETATM   26  C   UNL     1     -11.633  15.412  69.622  1.00  0.00    -0.344 C  
BRANCH  26  27
HETATM   27  C   UNL     1     -10.519  16.372  69.266  1.00  0.00    -0.303 C  
BRANCH  27  28
HETATM   28  C   UNL     1     -10.892  17.239  68.069  1.00  0.00    -0.297 C  
BRANCH  28  29
HETATM   29  C   UNL     1     -10.348  18.651  68.233  1.00  0.00    -0.388 C  
HETATM   30  C   UNL     1     -10.725  19.510  67.039  1.00  0.00    -0.592 C  
ENDBRANCH  28  29
ENDBRANCH  27  28
ENDBRANCH  26  27
ENDBRANCH  24  26
ENDBRANCH  23  24
ENDBRANCH   4  23
TORSDOF 7
ENDMDL
MODEL       47
REMARK 921   NORMALIZED FREE ENERGY PREDICTED BY IDOCK:   -4.35 KCAL/MOL
REMARK 922        TOTAL FREE ENERGY PREDICTED BY IDOCK:   -6.22 KCAL/MOL
REMARK 923 INTER-LIGAND FREE ENERGY PREDICTED BY IDOCK:   -6.35 KCAL/MOL
REMARK 924 INTRA-LIGAND FREE ENERGY PREDICTED BY IDOCK:    0.13 KCAL/MOL
REMARK 927      BINDING AFFINITY PREDICTED BY RF-SCORE:    0.00 PKD
ROOT
HETATM    1  C   UNL     1      -8.399   9.820  69.759  1.00  0.00    -0.189 C  
HETATM    2  C   UNL     1      -7.120   9.860  70.374  1.00  0.00    -0.146 C  
HETATM    3  C   UNL     1      -7.379   8.733  69.444  1.00  0.00    -0.072 C  
HETATM    4  C   UNL     1      -9.094   8.942  68.309  1.00  0.00    -0.140 C  
HETATM    5  C   UNL     1      -9.856   5.309  73.176  1.00  0.00    -0.173 C  
HETATM    6  O   UNL     1      -9.169   3.100  73.509  1.00  0.00    -0.085 OA 
HETATM    7  C   UNL     1      -7.791   9.217  68.001  1.00  0.00    -0.100 C  
HETATM    8  C   UNL     1      -9.551   3.945  72.698  1.00  0.00    -0.136 C  
HETATM    9  C   UNL     1     -10.189   6.304  72.336  1.00  0.00    -0.208 C  
HETATM   10  C   UNL     1      -7.547   7.398  67.757  1.00  0.00    -0.107 C  
HETATM   11  C   UNL     1      -7.151  10.239  67.075  1.00  0.00    -0.090 C  
HETATM   12  C   UNL     1      -9.658   3.627  71.229  1.00  0.00    -0.244 C  
HETATM   13  C   UNL     1     -10.410   7.718  72.830  1.00  0.00    -0.396 C  
HETATM   14  C   UNL     1      -8.565   6.479  68.761  1.00  0.00    -0.121 C  
HETATM   15  C   UNL     1     -10.401   4.659  70.397  1.00  0.00    -0.101 C  
HETATM   16  C   UNL     1      -9.438   8.554  70.582  1.00  0.00    -0.203 C  
HETATM   17  C   UNL     1      -9.089   6.948  70.250  1.00  0.00    -0.153 C  
HETATM   18  C   UNL     1      -9.554   8.776  72.106  1.00  0.00    -0.325 C  
HETATM   19  C   UNL     1     -10.277   6.126  70.830  1.00  0.00    -0.249 C  
ENDROOT
BRANCH   4  20
HETATM   20  C   UNL     1      -9.676   8.426  66.889  1.00  0.00    -0.227 C  
HETATM   21  O   UNL     1      -9.362   8.898  65.787  1.00  0.00    -0.229 OA 
HETATM   22  C   UNL     1     -10.759   7.374  66.869  1.00  0.00    -0.324 C  
ENDBRANCH   4  20
BRANCH   4  23
HETATM   23  O   UNL     1      -9.649  10.361  67.966  1.00  0.00    -0.141 OA 
BRANCH  23  24
HETATM   24  C   UNL     1     -10.961  10.692  68.031  1.00  0.00    -0.282 C  
HETATM   25  O   UNL     1     -11.710  10.427  68.952  1.00  0.00    -0.192 OA 
BRANCH  24  26
HETATM   26  C   UNL     1     -11.281  11.606  66.862  1.00  0.00    -0.376 C  
BRANCH  26  27
HETATM   27  C   UNL     1     -10.073  12.369  66.363  1.00  0.00    -0.252 C  
BRANCH  27  28
HETATM   28  C   UNL     1     -10.345  13.867  66.301  1.00  0.00    -0.293 C  
BRANCH  28  29
HETATM   29  C   UNL     1     -11.732  14.188  66.840  1.00  0.00    -0.437 C  
HETATM   30  C   UNL     1     -11.634  14.985  68.128  1.00  0.00    -0.360 C  
ENDBRANCH  28  29
ENDBRANCH  27  28
ENDBRANCH  26  27
ENDBRANCH  24  26
ENDBRANCH  23  24
ENDBRANCH   4  23
TORSDOF 7
ENDMDL
MODEL       48
REMARK 921   NORMALIZED FREE ENERGY PREDICTED BY IDOCK:   -4.33 KCAL/MOL
REMARK 922        TOTAL FREE ENERGY PREDICTED BY IDOCK:   -6.19 KCAL/MOL
REMARK 923 INTER-LIGAND FREE ENERGY PREDICTED BY IDOCK:   -7.04 KCAL/MOL
REMARK 924 INTRA-LIGAND FREE ENERGY PREDICTED BY IDOCK:    0.85 KCAL/MOL
REMARK 927      BINDING AFFINITY PREDICTED BY RF-SCORE:    0.00 PKD
ROOT
HETATM    1  C   UNL     1      -9.439  13.069  67.887  1.00  0.00    -0.219 C  
HETATM    2  C   UNL     1      -8.191  13.737  67.989  1.00  0.00    -0.164 C  
HETATM    3  C   UNL     1      -8.898  13.838  66.688  1.00  0.00    -0.089 C  
HETATM    4  C   UNL     1     -10.856  13.174  66.729  1.00  0.00    -0.276 C  
HETATM    5  C   UNL     1      -6.955   9.034  64.468  1.00  0.00    -0.089 C  
HETATM    6  O   UNL     1      -5.936   8.938  62.366  1.00  0.00    -0.091 OA 
HETATM    7  C   UNL     1     -10.348  14.439  66.829  1.00  0.00    -0.273 C  
HETATM    8  C   UNL     1      -6.931   9.274  63.009  1.00  0.00    -0.092 C  
HETATM    9  C   UNL     1      -7.967   9.454  65.245  1.00  0.00    -0.110 C  
HETATM   10  C   UNL     1     -10.108  14.404  64.995  1.00  0.00    -0.322 C  
HETATM   11  C   UNL     1     -10.842  15.687  67.546  1.00  0.00    -0.316 C  
HETATM   12  C   UNL     1      -8.093   9.970  62.348  1.00  0.00    -0.149 C  
HETATM   13  C   UNL     1      -7.935   9.282  66.749  1.00  0.00    -0.108 C  
HETATM   14  C   UNL     1      -9.799  12.834  64.422  1.00  0.00    -0.052 C  
HETATM   15  C   UNL     1      -9.352  10.068  63.192  1.00  0.00    -0.297 C  
HETATM   16  C   UNL     1      -9.230  11.515  66.937  1.00  0.00    -0.181 C  
HETATM   17  C   UNL     1      -9.028  11.657  65.279  1.00  0.00     0.129 C  
HETATM   18  C   UNL     1      -8.146  10.592  67.535  1.00  0.00    -0.111 C  
HETATM   19  C   UNL     1      -9.168  10.215  64.708  1.00  0.00    -0.291 C  
ENDROOT
BRANCH   4  20
HETATM   20  C   UNL     1     -12.235  13.425  65.921  1.00  0.00    -0.450 C  
HETATM   21  O   UNL     1     -13.032  14.345  66.158  1.00  0.00    -0.140 OA 
HETATM   22  C   UNL     1     -12.672  12.430  64.873  1.00  0.00    -0.256 C  
ENDBRANCH   4  20
BRANCH   4  23
HETATM   23  O   UNL     1     -11.680  13.219  68.055  1.00  0.00    -0.318 OA 
BRANCH  23  24
HETATM   24  C   UNL     1     -12.117  12.116  68.708  1.00  0.00    -0.113 C  
HETATM   25  O   UNL     1     -12.406  11.056  68.185  1.00  0.00    -0.402 OA 
BRANCH  24  26
HETATM   26  C   UNL     1     -12.000  12.367  70.201  1.00  0.00    -0.376 C  
BRANCH  26  27
HETATM   27  C   UNL     1     -12.618  11.264  71.032  1.00  0.00    -0.495 C  
BRANCH  27  28
HETATM   28  C   UNL     1     -11.665  10.086  71.193  1.00  0.00    -0.472 C  
BRANCH  28  29
HETATM   29  C   UNL     1     -12.358   8.917  71.879  1.00  0.00    -0.445 C  
HETATM   30  C   UNL     1     -11.345   8.042  72.595  1.00  0.00    -0.469 C  
ENDBRANCH  28  29
ENDBRANCH  27  28
ENDBRANCH  26  27
ENDBRANCH  24  26
ENDBRANCH  23  24
ENDBRANCH   4  23
TORSDOF 7
ENDMDL
MODEL       49
REMARK 921   NORMALIZED FREE ENERGY PREDICTED BY IDOCK:   -4.33 KCAL/MOL
REMARK 922        TOTAL FREE ENERGY PREDICTED BY IDOCK:   -6.18 KCAL/MOL
REMARK 923 INTER-LIGAND FREE ENERGY PREDICTED BY IDOCK:   -6.42 KCAL/MOL
REMARK 924 INTRA-LIGAND FREE ENERGY PREDICTED BY IDOCK:    0.23 KCAL/MOL
REMARK 927      BINDING AFFINITY PREDICTED BY RF-SCORE:    0.00 PKD
ROOT
HETATM    1  C   UNL     1      -9.719   8.503  69.357  1.00  0.00    -0.177 C  
HETATM    2  C   UNL     1     -11.013   7.942  69.514  1.00  0.00    -0.078 C  
HETATM    3  C   UNL     1     -10.348   7.731  68.204  1.00  0.00    -0.248 C  
HETATM    4  C   UNL     1      -8.344   8.237  68.175  1.00  0.00    -0.129 C  
HETATM    5  C   UNL     1     -11.958  12.581  65.821  1.00  0.00    -0.482 C  
HETATM    6  O   UNL     1     -13.018  12.672  63.739  1.00  0.00    -0.707 OA 
HETATM    7  C   UNL     1      -8.947   7.022  68.339  1.00  0.00    -0.122 C  
HETATM    8  C   UNL     1     -12.036  12.284  64.375  1.00  0.00    -0.399 C  
HETATM    9  C   UNL     1     -10.964  12.112  66.594  1.00  0.00    -0.325 C  
HETATM   10  C   UNL     1      -9.229   7.000  66.510  1.00  0.00    -0.198 C  
HETATM   11  C   UNL     1      -8.537   5.769  69.099  1.00  0.00    -0.110 C  
HETATM   12  C   UNL     1     -10.950  11.470  63.720  1.00  0.00    -0.485 C  
HETATM   13  C   UNL     1     -10.945  12.348  68.090  1.00  0.00    -0.263 C  
HETATM   14  C   UNL     1      -9.426   8.566  65.878  1.00  0.00    -0.207 C  
HETATM   15  C   UNL     1      -9.682  11.306  64.541  1.00  0.00    -0.293 C  
HETATM   16  C   UNL     1      -9.827  10.028  68.346  1.00  0.00    -0.169 C  
HETATM   17  C   UNL     1     -10.081   9.835  66.700  1.00  0.00    -0.303 C  
HETATM   18  C   UNL     1     -10.819  11.059  68.927  1.00  0.00    -0.262 C  
HETATM   19  C   UNL     1      -9.841  11.236  66.065  1.00  0.00    -0.267 C  
ENDROOT
BRANCH   4  20
HETATM   20  C   UNL     1      -7.009   7.843  67.348  1.00  0.00    -0.075 C  
HETATM   21  O   UNL     1      -6.256   6.902  67.637  1.00  0.00    -0.037 OA 
HETATM   22  C   UNL     1      -6.555   8.724  66.209  1.00  0.00    -0.066 C  
ENDBRANCH   4  20
BRANCH   4  23
HETATM   23  O   UNL     1      -7.494   8.180  69.484  1.00  0.00    -0.082 OA 
BRANCH  23  24
HETATM   24  C   UNL     1      -7.153   9.272  70.208  1.00  0.00    -0.084 C  
HETATM   25  O   UNL     1      -7.467   9.477  71.366  1.00  0.00    -0.326 OA 
BRANCH  24  26
HETATM   26  C   UNL     1      -6.164  10.092  69.398  1.00  0.00    -0.045 C  
BRANCH  26  27
HETATM   27  C   UNL     1      -6.596  11.531  69.224  1.00  0.00    -0.113 C  
BRANCH  27  28
HETATM   28  C   UNL     1      -6.762  11.888  67.751  1.00  0.00    -0.087 C  
BRANCH  28  29
HETATM   29  C   UNL     1      -7.068  13.370  67.584  1.00  0.00    -0.168 C  
HETATM   30  C   UNL     1      -7.125  14.059  68.935  1.00  0.00    -0.111 C  
ENDBRANCH  28  29
ENDBRANCH  27  28
ENDBRANCH  26  27
ENDBRANCH  24  26
ENDBRANCH  23  24
ENDBRANCH   4  23
TORSDOF 7
ENDMDL
MODEL       50
REMARK 921   NORMALIZED FREE ENERGY PREDICTED BY IDOCK:   -4.28 KCAL/MOL
REMARK 922        TOTAL FREE ENERGY PREDICTED BY IDOCK:   -6.11 KCAL/MOL
REMARK 923 INTER-LIGAND FREE ENERGY PREDICTED BY IDOCK:   -6.86 KCAL/MOL
REMARK 924 INTRA-LIGAND FREE ENERGY PREDICTED BY IDOCK:    0.75 KCAL/MOL
REMARK 927      BINDING AFFINITY PREDICTED BY RF-SCORE:    0.00 PKD
ROOT
HETATM    1  C   UNL     1      -8.882  11.496  66.305  1.00  0.00    -0.186 C  
HETATM    2  C   UNL     1      -9.159  10.485  65.347  1.00  0.00    -0.215 C  
HETATM    3  C   UNL     1     -10.325  11.082  66.046  1.00  0.00    -0.311 C  
HETATM    4  C   UNL     1      -9.887  12.786  67.131  1.00  0.00    -0.216 C  
HETATM    5  C   UNL     1     -10.196   7.743  70.587  1.00  0.00    -0.199 C  
HETATM    6  O   UNL     1     -12.070   6.563  71.337  1.00  0.00    -0.337 OA 
HETATM    7  C   UNL     1     -10.403  12.647  65.873  1.00  0.00    -0.295 C  
HETATM    8  C   UNL     1     -11.602   7.662  71.036  1.00  0.00    -0.282 C  
HETATM    9  C   UNL     1      -9.648   8.892  70.158  1.00  0.00    -0.199 C  
HETATM   10  C   UNL     1     -12.027  12.253  66.666  1.00  0.00    -0.257 C  
HETATM   11  C   UNL     1     -10.312  13.515  64.627  1.00  0.00    -0.406 C  
HETATM   12  C   UNL     1     -12.449   8.908  71.066  1.00  0.00    -0.181 C  
HETATM   13  C   UNL     1      -8.236   8.942  69.614  1.00  0.00    -0.114 C  
HETATM   14  C   UNL     1     -11.832  11.487  68.172  1.00  0.00    -0.306 C  
HETATM   15  C   UNL     1     -11.682  10.214  70.949  1.00  0.00    -0.468 C  
HETATM   16  C   UNL     1      -9.025  10.799  67.994  1.00  0.00    -0.139 C  
HETATM   17  C   UNL     1     -10.572  10.503  68.568  1.00  0.00    -0.234 C  
HETATM   18  C   UNL     1      -8.126   9.561  68.206  1.00  0.00    -0.102 C  
HETATM   19  C   UNL     1     -10.413  10.204  70.088  1.00  0.00    -0.311 C  
ENDROOT
BRANCH   4  20
HETATM   20  C   UNL     1     -10.650  14.109  67.665  1.00  0.00    -0.253 C  
HETATM   21  O   UNL     1     -11.036  15.039  66.941  1.00  0.00    -0.314 OA 
HETATM   22  C   UNL     1     -10.826  14.316  69.150  1.00  0.00    -0.264 C  
ENDBRANCH   4  20
BRANCH   4  23
HETATM   23  O   UNL     1      -8.689  13.701  66.720  1.00  0.00    -0.187 OA 
BRANCH  23  24
HETATM   24  C   UNL     1      -7.945  14.408  67.604  1.00  0.00    -0.179 C  
HETATM   25  O   UNL     1      -7.924  15.621  67.696  1.00  0.00    -0.136 OA 
BRANCH  24  26
HETATM   26  C   UNL     1      -7.300  13.433  68.572  1.00  0.00    -0.111 C  
BRANCH  26  27
HETATM   27  C   UNL     1      -6.057  13.992  69.229  1.00  0.00    -0.100 C  
BRANCH  27  28
HETATM   28  C   UNL     1      -6.018  13.667  70.717  1.00  0.00    -0.130 C  
BRANCH  28  29
HETATM   29  C   UNL     1      -5.172  14.682  71.472  1.00  0.00    -0.148 C  
HETATM   30  C   UNL     1      -5.239  14.426  72.967  1.00  0.00    -0.282 C  
ENDBRANCH  28  29
ENDBRANCH  27  28
ENDBRANCH  26  27
ENDBRANCH  24  26
ENDBRANCH  23  24
ENDBRANCH   4  23
TORSDOF 7
ENDMDL
MODEL       51
REMARK 921   NORMALIZED FREE ENERGY PREDICTED BY IDOCK:   -4.27 KCAL/MOL
REMARK 922        TOTAL FREE ENERGY PREDICTED BY IDOCK:   -6.10 KCAL/MOL
REMARK 923 INTER-LIGAND FREE ENERGY PREDICTED BY IDOCK:   -6.25 KCAL/MOL
REMARK 924 INTRA-LIGAND FREE ENERGY PREDICTED BY IDOCK:    0.15 KCAL/MOL
REMARK 927      BINDING AFFINITY PREDICTED BY RF-SCORE:    0.00 PKD
ROOT
HETATM    1  C   UNL     1     -10.854  11.410  68.373  1.00  0.00    -0.248 C  
HETATM    2  C   UNL     1     -12.193  11.488  67.909  1.00  0.00     0.349 C  
HETATM    3  C   UNL     1     -11.126  11.787  66.922  1.00  0.00    -0.361 C  
HETATM    4  C   UNL     1      -9.220  11.291  67.552  1.00  0.00    -0.158 C  
HETATM    5  C   UNL     1     -10.501  17.241  68.209  1.00  0.00    -0.385 C  
HETATM    6  O   UNL     1     -10.588  18.933  66.599  1.00  0.00    -0.399 OA 
HETATM    7  C   UNL     1     -10.097  10.603  66.761  1.00  0.00    -0.272 C  
HETATM    8  C   UNL     1     -10.059  17.877  66.951  1.00  0.00    -0.348 C  
HETATM    9  C   UNL     1     -10.035  16.045  68.608  1.00  0.00    -0.220 C  
HETATM   10  C   UNL     1      -9.619  11.738  65.379  1.00  0.00    -0.210 C  
HETATM   11  C   UNL     1     -10.321   9.117  66.532  1.00  0.00    -0.269 C  
HETATM   12  C   UNL     1      -9.017  17.202  66.098  1.00  0.00    -0.217 C  
HETATM   13  C   UNL     1     -10.564  15.363  69.852  1.00  0.00    -0.315 C  
HETATM   14  C   UNL     1      -9.186  13.282  65.944  1.00  0.00     0.178 C  
HETATM   15  C   UNL     1      -8.257  16.075  66.778  1.00  0.00    -0.307 C  
HETATM   16  C   UNL     1     -10.199  13.100  68.650  1.00  0.00    -0.177 C  
HETATM   17  C   UNL     1      -9.809  13.998  67.290  1.00  0.00    -0.242 C  
HETATM   18  C   UNL     1     -11.079  13.930  69.610  1.00  0.00    -0.126 C  
HETATM   19  C   UNL     1      -9.024  15.239  67.809  1.00  0.00    -0.177 C  
ENDROOT
BRANCH   4  20
HETATM   20  C   UNL     1      -7.793  10.899  66.896  1.00  0.00    -0.135 C  
HETATM   21  O   UNL     1      -7.505   9.774  66.461  1.00  0.00    -0.093 OA 
HETATM   22  C   UNL     1      -6.673  11.912  66.896  1.00  0.00    -0.076 C  
ENDBRANCH   4  20
BRANCH   4  23
HETATM   23  O   UNL     1      -9.002  10.147  68.593  1.00  0.00    -0.125 OA 
BRANCH  23  24
HETATM   24  C   UNL     1      -8.206  10.262  69.682  1.00  0.00    -0.133 C  
HETATM   25  O   UNL     1      -7.489  11.213  69.934  1.00  0.00     0.076 OA 
BRANCH  24  26
HETATM   26  C   UNL     1      -8.507   9.105  70.618  1.00  0.00    -0.246 C  
BRANCH  26  27
HETATM   27  C   UNL     1      -9.908   8.561  70.448  1.00  0.00    -0.198 C  
BRANCH  27  28
HETATM   28  C   UNL     1     -10.779   8.876  71.658  1.00  0.00    -0.418 C  
BRANCH  28  29
HETATM   29  C   UNL     1     -11.925   9.803  71.276  1.00  0.00    -0.471 C  
HETATM   30  C   UNL     1     -13.204   9.389  71.980  1.00  0.00    -0.529 C  
ENDBRANCH  28  29
ENDBRANCH  27  28
ENDBRANCH  26  27
ENDBRANCH  24  26
ENDBRANCH  23  24
ENDBRANCH   4  23
TORSDOF 7
ENDMDL
MODEL       52
REMARK 921   NORMALIZED FREE ENERGY PREDICTED BY IDOCK:   -4.24 KCAL/MOL
REMARK 922        TOTAL FREE ENERGY PREDICTED BY IDOCK:   -6.06 KCAL/MOL
REMARK 923 INTER-LIGAND FREE ENERGY PREDICTED BY IDOCK:   -6.82 KCAL/MOL
REMARK 924 INTRA-LIGAND FREE ENERGY PREDICTED BY IDOCK:    0.76 KCAL/MOL
REMARK 927      BINDING AFFINITY PREDICTED BY RF-SCORE:    0.00 PKD
ROOT
HETATM    1  C   UNL     1      -9.389  11.420  66.298  1.00  0.00    -0.228 C  
HETATM    2  C   UNL     1     -10.021  10.567  65.355  1.00  0.00    -0.353 C  
HETATM    3  C   UNL     1     -10.909  11.424  66.181  1.00  0.00    -0.310 C  
HETATM    4  C   UNL     1      -9.921  12.894  67.247  1.00  0.00    -0.224 C  
HETATM    5  C   UNL     1     -11.272   7.970  70.622  1.00  0.00    -0.266 C  
HETATM    6  O   UNL     1     -13.318   7.306  71.539  1.00  0.00    -0.379 OA 
HETATM    7  C   UNL     1     -10.571  12.958  66.046  1.00  0.00    -0.287 C  
HETATM    8  C   UNL     1     -12.598   8.251  71.212  1.00  0.00    -0.221 C  
HETATM    9  C   UNL     1     -10.473   8.946  70.160  1.00  0.00    -0.236 C  
HETATM   10  C   UNL     1     -12.160  12.981  66.995  1.00  0.00    -0.330 C  
HETATM   11  C   UNL     1     -10.364  13.825  64.814  1.00  0.00    -0.422 C  
HETATM   12  C   UNL     1     -13.065   9.677  71.352  1.00  0.00    -0.471 C  
HETATM   13  C   UNL     1      -9.159   8.637  69.475  1.00  0.00    -0.146 C  
HETATM   14  C   UNL     1     -12.041  12.123  68.458  1.00  0.00    -0.115 C  
HETATM   15  C   UNL     1     -11.984  10.731  71.181  1.00  0.00    -0.361 C  
HETATM   16  C   UNL     1      -9.559  10.711  67.980  1.00  0.00    -0.167 C  
HETATM   17  C   UNL     1     -11.067  10.818  68.704  1.00  0.00    -0.312 C  
HETATM   18  C   UNL     1      -9.017   9.268  68.076  1.00  0.00    -0.128 C  
HETATM   19  C   UNL     1     -10.853  10.417  70.193  1.00  0.00    -0.333 C  
ENDROOT
BRANCH   4  20
HETATM   20  C   UNL     1     -10.240  14.349  67.881  1.00  0.00    -0.232 C  
HETATM   21  O   UNL     1     -10.429  14.563  69.088  1.00  0.00    -0.242 OA 
HETATM   22  C   UNL     1     -10.440  15.531  66.964  1.00  0.00    -0.304 C  
ENDBRANCH   4  20
BRANCH   4  23
HETATM   23  O   UNL     1      -8.563  13.469  66.732  1.00  0.00    -0.151 OA 
BRANCH  23  24
HETATM   24  C   UNL     1      -7.477  13.652  67.520  1.00  0.00    -0.170 C  
HETATM   25  O   UNL     1      -7.304  14.590  68.276  1.00  0.00    -0.103 OA 
BRANCH  24  26
HETATM   26  C   UNL     1      -6.615  12.405  67.441  1.00  0.00    -0.157 C  
BRANCH  26  27
HETATM   27  C   UNL     1      -6.129  11.939  68.796  1.00  0.00    -0.055 C  
BRANCH  27  28
HETATM   28  C   UNL     1      -5.613  10.506  68.741  1.00  0.00    -0.041 C  
BRANCH  28  29
HETATM   29  C   UNL     1      -5.241  10.118  67.317  1.00  0.00    -0.041 C  
HETATM   30  C   UNL     1      -5.553   8.654  67.064  1.00  0.00    -0.038 C  
ENDBRANCH  28  29
ENDBRANCH  27  28
ENDBRANCH  26  27
ENDBRANCH  24  26
ENDBRANCH  23  24
ENDBRANCH   4  23
TORSDOF 7
ENDMDL
MODEL       53
REMARK 921   NORMALIZED FREE ENERGY PREDICTED BY IDOCK:   -4.17 KCAL/MOL
REMARK 922        TOTAL FREE ENERGY PREDICTED BY IDOCK:   -5.95 KCAL/MOL
REMARK 923 INTER-LIGAND FREE ENERGY PREDICTED BY IDOCK:   -6.51 KCAL/MOL
REMARK 924 INTRA-LIGAND FREE ENERGY PREDICTED BY IDOCK:    0.55 KCAL/MOL
REMARK 927      BINDING AFFINITY PREDICTED BY RF-SCORE:    0.00 PKD
ROOT
HETATM    1  C   UNL     1     -10.162  12.194  64.952  1.00  0.00    -0.309 C  
HETATM    2  C   UNL     1     -10.744  11.118  64.232  1.00  0.00    -0.403 C  
HETATM    3  C   UNL     1     -11.113  11.240  65.664  1.00  0.00    -0.141 C  
HETATM    4  C   UNL     1     -10.541  13.023  66.542  1.00  0.00    -0.282 C  
HETATM    5  C   UNL     1      -6.716   8.401  67.759  1.00  0.00    -0.066 C  
HETATM    6  O   UNL     1      -6.962   6.615  69.247  1.00  0.00    -0.069 OA 
HETATM    7  C   UNL     1     -11.743  12.643  66.013  1.00  0.00    -0.470 C  
HETATM    8  C   UNL     1      -7.218   7.797  69.011  1.00  0.00    -0.080 C  
HETATM    9  C   UNL     1      -7.032   9.655  67.393  1.00  0.00    -0.084 C  
HETATM   10  C   UNL     1     -12.034  11.679  67.565  1.00  0.00    -0.044 C  
HETATM   11  C   UNL     1     -12.858  13.427  65.338  1.00  0.00    -0.388 C  
HETATM   12  C   UNL     1      -8.074   8.614  69.943  1.00  0.00    -0.111 C  
HETATM   13  C   UNL     1      -6.586  10.229  66.065  1.00  0.00    -0.109 C  
HETATM   14  C   UNL     1     -10.582  11.111  68.244  1.00  0.00    -0.221 C  
HETATM   15  C   UNL     1      -8.072  10.110  69.678  1.00  0.00    -0.178 C  
HETATM   16  C   UNL     1      -8.802  11.565  66.006  1.00  0.00    -0.144 C  
HETATM   17  C   UNL     1      -9.236  10.713  67.383  1.00  0.00    -0.153 C  
HETATM   18  C   UNL     1      -7.737  10.785  65.204  1.00  0.00     0.100 C  
HETATM   19  C   UNL     1      -7.931  10.560  68.219  1.00  0.00    -0.113 C  
ENDROOT
BRANCH   4  20
HETATM   20  C   UNL     1     -10.997  13.964  67.777  1.00  0.00    -0.256 C  
HETATM   21  O   UNL     1     -12.080  14.563  67.842  1.00  0.00    -0.325 OA 
HETATM   22  C   UNL     1     -10.021  14.246  68.894  1.00  0.00    -0.160 C  
ENDBRANCH   4  20
BRANCH   4  23
HETATM   23  O   UNL     1     -10.379  14.314  65.679  1.00  0.00    -0.303 OA 
BRANCH  23  24
HETATM   24  C   UNL     1      -9.503  15.306  65.966  1.00  0.00    -0.337 C  
HETATM   25  O   UNL     1      -8.349  15.147  66.319  1.00  0.00    -0.042 OA 
BRANCH  24  26
HETATM   26  C   UNL     1     -10.141  16.631  65.589  1.00  0.00    -0.244 C  
BRANCH  26  27
HETATM   27  C   UNL     1      -9.620  17.789  66.410  1.00  0.00    -0.293 C  
BRANCH  27  28
HETATM   28  C   UNL     1     -10.663  18.280  67.407  1.00  0.00    -0.377 C  
BRANCH  28  29
HETATM   29  C   UNL     1     -10.313  19.670  67.919  1.00  0.00    -0.583 C  
HETATM   30  C   UNL     1      -9.713  19.592  69.311  1.00  0.00    -0.322 C  
ENDBRANCH  28  29
ENDBRANCH  27  28
ENDBRANCH  26  27
ENDBRANCH  24  26
ENDBRANCH  23  24
ENDBRANCH   4  23
TORSDOF 7
ENDMDL
MODEL       54
REMARK 921   NORMALIZED FREE ENERGY PREDICTED BY IDOCK:   -4.15 KCAL/MOL
REMARK 922        TOTAL FREE ENERGY PREDICTED BY IDOCK:   -5.94 KCAL/MOL
REMARK 923 INTER-LIGAND FREE ENERGY PREDICTED BY IDOCK:   -6.65 KCAL/MOL
REMARK 924 INTRA-LIGAND FREE ENERGY PREDICTED BY IDOCK:    0.71 KCAL/MOL
REMARK 927      BINDING AFFINITY PREDICTED BY RF-SCORE:    0.00 PKD
ROOT
HETATM    1  C   UNL     1     -10.671  14.384  65.900  1.00  0.00    -0.308 C  
HETATM    2  C   UNL     1     -11.966  14.174  65.358  1.00  0.00    -0.382 C  
HETATM    3  C   UNL     1     -11.798  13.908  66.809  1.00  0.00    -0.452 C  
HETATM    4  C   UNL     1     -10.013  14.589  67.598  1.00  0.00    -0.224 C  
HETATM    5  C   UNL     1      -9.957   8.601  66.332  1.00  0.00    -0.331 C  
HETATM    6  O   UNL     1     -10.924   6.821  67.500  1.00  0.00    -0.294 OA 
HETATM    7  C   UNL     1     -11.255  15.160  67.598  1.00  0.00    -0.329 C  
HETATM    8  C   UNL     1     -10.400   7.934  67.575  1.00  0.00    -0.259 C  
HETATM    9  C   UNL     1      -9.461   9.850  66.329  1.00  0.00    -0.245 C  
HETATM   10  C   UNL     1     -11.706  13.994  68.962  1.00  0.00    -0.368 C  
HETATM   11  C   UNL     1     -11.716  16.609  67.601  1.00  0.00     0.638 C  
HETATM   12  C   UNL     1     -10.256   8.644  68.896  1.00  0.00    -0.221 C  
HETATM   13  C   UNL     1      -9.096  10.554  65.039  1.00  0.00    -0.231 C  
HETATM   14  C   UNL     1     -10.861  12.523  68.848  1.00  0.00    -0.238 C  
HETATM   15  C   UNL     1      -9.350   9.863  68.878  1.00  0.00    -0.170 C  
HETATM   16  C   UNL     1      -9.839  12.770  66.150  1.00  0.00    -0.269 C  
HETATM   17  C   UNL     1     -10.364  11.833  67.438  1.00  0.00    -0.228 C  
HETATM   18  C   UNL     1      -9.777  11.925  64.859  1.00  0.00    -0.158 C  
HETATM   19  C   UNL     1      -9.317  10.690  67.587  1.00  0.00    -0.156 C  
ENDROOT
BRANCH   4  20
HETATM   20  C   UNL     1      -9.425  15.058  69.031  1.00  0.00    -0.210 C  
HETATM   21  O   UNL     1      -9.919  15.951  69.736  1.00  0.00    -0.267 OA 
HETATM   22  C   UNL     1      -8.125  14.473  69.528  1.00  0.00     0.185 C  
ENDBRANCH   4  20
BRANCH   4  23
HETATM   23  O   UNL     1      -9.272  15.802  66.950  1.00  0.00    -0.208 OA 
BRANCH  23  24
HETATM   24  C   UNL     1      -7.926  15.951  66.953  1.00  0.00    -0.252 C  
HETATM   25  O   UNL     1      -7.116  15.046  66.861  1.00  0.00    -0.115 OA 
BRANCH  24  26
HETATM   26  C   UNL     1      -7.609  17.434  66.897  1.00  0.00    -0.253 C  
BRANCH  26  27
HETATM   27  C   UNL     1      -7.725  18.112  68.245  1.00  0.00    -0.291 C  
BRANCH  27  28
HETATM   28  C   UNL     1      -8.146  19.569  68.102  1.00  0.00    -0.354 C  
BRANCH  28  29
HETATM   29  C   UNL     1      -9.578  19.673  67.597  1.00  0.00    -0.454 C  
HETATM   30  C   UNL     1     -10.536  19.904  68.752  1.00  0.00    -0.203 C  
ENDBRANCH  28  29
ENDBRANCH  27  28
ENDBRANCH  26  27
ENDBRANCH  24  26
ENDBRANCH  23  24
ENDBRANCH   4  23
TORSDOF 7
ENDMDL
MODEL       55
REMARK 921   NORMALIZED FREE ENERGY PREDICTED BY IDOCK:   -4.14 KCAL/MOL
REMARK 922        TOTAL FREE ENERGY PREDICTED BY IDOCK:   -5.91 KCAL/MOL
REMARK 923 INTER-LIGAND FREE ENERGY PREDICTED BY IDOCK:   -6.47 KCAL/MOL
REMARK 924 INTRA-LIGAND FREE ENERGY PREDICTED BY IDOCK:    0.56 KCAL/MOL
REMARK 927      BINDING AFFINITY PREDICTED BY RF-SCORE:    0.00 PKD
ROOT
HETATM    1  C   UNL     1     -10.216  13.277  68.807  1.00  0.00    -0.119 C  
HETATM    2  C   UNL     1     -11.161  13.615  69.811  1.00  0.00    -0.092 C  
HETATM    3  C   UNL     1     -11.518  13.965  68.413  1.00  0.00    -0.346 C  
HETATM    4  C   UNL     1     -10.290  13.115  66.984  1.00  0.00    -0.249 C  
HETATM    5  C   UNL     1      -8.856  18.932  68.240  1.00  0.00    -0.367 C  
HETATM    6  O   UNL     1      -9.913  20.906  67.570  1.00  0.00    -0.374 OA 
HETATM    7  C   UNL     1     -11.510  12.715  67.453  1.00  0.00    -0.397 C  
HETATM    8  C   UNL     1      -9.631  19.742  67.277  1.00  0.00    -0.359 C  
HETATM    9  C   UNL     1      -8.590  17.632  68.028  1.00  0.00    -0.248 C  
HETATM   10  C   UNL     1     -12.263  14.029  66.390  1.00  0.00    -0.492 C  
HETATM   11  C   UNL     1     -12.151  11.344  67.601  1.00  0.00     0.243 C  
HETATM   12  C   UNL     1     -10.107  19.121  65.990  1.00  0.00    -0.437 C  
HETATM   13  C   UNL     1      -7.874  16.790  69.064  1.00  0.00    -0.201 C  
HETATM   14  C   UNL     1     -11.227  15.364  66.197  1.00  0.00    -0.161 C  
HETATM   15  C   UNL     1      -9.457  17.795  65.634  1.00  0.00     0.460 C  
HETATM   16  C   UNL     1      -9.308  14.781  68.285  1.00  0.00    -0.199 C  
HETATM   17  C   UNL     1     -10.134  15.873  67.318  1.00  0.00    -0.260 C  
HETATM   18  C   UNL     1      -8.634  15.511  69.468  1.00  0.00    -0.218 C  
HETATM   19  C   UNL     1      -9.062  16.876  66.797  1.00  0.00    -0.266 C  
ENDROOT
BRANCH   4  20
HETATM   20  C   UNL     1     -10.367  12.681  65.426  1.00  0.00    -0.291 C  
HETATM   21  O   UNL     1      -9.845  13.311  64.494  1.00  0.00    -0.160 OA 
HETATM   22  C   UNL     1     -11.216  11.498  65.027  1.00  0.00    -0.226 C  
ENDBRANCH   4  20
BRANCH   4  23
HETATM   23  O   UNL     1      -9.551  11.770  67.273  1.00  0.00    -0.174 OA 
BRANCH  23  24
HETATM   24  C   UNL     1      -8.271  11.521  66.908  1.00  0.00    -0.167 C  
HETATM   25  O   UNL     1      -7.349  12.312  66.984  1.00  0.00    -0.132 OA 
BRANCH  24  26
HETATM   26  C   UNL     1      -8.147  10.045  66.574  1.00  0.00    -0.119 C  
BRANCH  26  27
HETATM   27  C   UNL     1      -9.094   9.180  67.377  1.00  0.00    -0.142 C  
BRANCH  27  28
HETATM   28  C   UNL     1     -10.001   8.357  66.471  1.00  0.00    -0.335 C  
BRANCH  28  29
HETATM   29  C   UNL     1      -9.853   6.870  66.761  1.00  0.00    -0.243 C  
HETATM   30  C   UNL     1     -10.807   6.443  67.861  1.00  0.00    -0.404 C  
ENDBRANCH  28  29
ENDBRANCH  27  28
ENDBRANCH  26  27
ENDBRANCH  24  26
ENDBRANCH  23  24
ENDBRANCH   4  23
TORSDOF 7
ENDMDL
MODEL       56
REMARK 921   NORMALIZED FREE ENERGY PREDICTED BY IDOCK:   -4.12 KCAL/MOL
REMARK 922        TOTAL FREE ENERGY PREDICTED BY IDOCK:   -5.88 KCAL/MOL
REMARK 923 INTER-LIGAND FREE ENERGY PREDICTED BY IDOCK:   -6.92 KCAL/MOL
REMARK 924 INTRA-LIGAND FREE ENERGY PREDICTED BY IDOCK:    1.03 KCAL/MOL
REMARK 927      BINDING AFFINITY PREDICTED BY RF-SCORE:    0.00 PKD
ROOT
HETATM    1  C   UNL     1      -8.852  14.082  68.250  1.00  0.00    -0.184 C  
HETATM    2  C   UNL     1      -7.696  14.788  67.824  1.00  0.00    -0.170 C  
HETATM    3  C   UNL     1      -8.557  14.212  66.761  1.00  0.00    -0.097 C  
HETATM    4  C   UNL     1     -10.395  13.539  67.426  1.00  0.00    -0.237 C  
HETATM    5  C   UNL     1      -6.287   9.051  66.748  1.00  0.00    -0.063 C  
HETATM    6  O   UNL     1      -5.517   8.018  64.797  1.00  0.00    -0.039 OA 
HETATM    7  C   UNL     1     -10.046  14.724  66.841  1.00  0.00    -0.246 C  
HETATM    8  C   UNL     1      -6.465   8.564  65.363  1.00  0.00    -0.056 C  
HETATM    9  C   UNL     1      -7.247   9.735  67.393  1.00  0.00    -0.086 C  
HETATM   10  C   UNL     1     -10.019  13.827  65.222  1.00  0.00    -0.245 C  
HETATM   11  C   UNL     1     -10.608  16.132  66.965  1.00  0.00    -0.292 C  
HETATM   12  C   UNL     1      -7.775   8.790  64.655  1.00  0.00    -0.119 C  
HETATM   13  C   UNL     1      -7.018  10.307  68.777  1.00  0.00    -0.067 C  
HETATM   14  C   UNL     1      -9.580  12.195  65.405  1.00  0.00    -0.112 C  
HETATM   15  C   UNL     1      -8.930   9.209  65.549  1.00  0.00    -0.252 C  
HETATM   16  C   UNL     1      -8.558  12.279  68.113  1.00  0.00    -0.181 C  
HETATM   17  C   UNL     1      -8.570  11.619  66.571  1.00  0.00    -0.164 C  
HETATM   18  C   UNL     1      -7.302  11.819  68.885  1.00  0.00    -0.093 C  
HETATM   19  C   UNL     1      -8.590  10.075  66.769  1.00  0.00    -0.129 C  
ENDROOT
BRANCH   4  20
HETATM   20  C   UNL     1     -11.880  13.292  66.832  1.00  0.00    -0.392 C  
HETATM   21  O   UNL     1     -12.408  12.178  66.698  1.00  0.00    -0.453 OA 
HETATM   22  C   UNL     1     -12.666  14.461  66.289  1.00  0.00     0.035 C  
ENDBRANCH   4  20
BRANCH   4  23
HETATM   23  O   UNL     1     -11.058  14.167  68.693  1.00  0.00    -0.241 OA 
BRANCH  23  24
HETATM   24  C   UNL     1     -11.729  13.450  69.626  1.00  0.00    -0.310 C  
HETATM   25  O   UNL     1     -11.534  12.277  69.888  1.00  0.00    -0.224 OA 
BRANCH  24  26
HETATM   26  C   UNL     1     -12.617  14.399  70.410  1.00  0.00    -0.405 C  
BRANCH  26  27
HETATM   27  C   UNL     1     -12.792  13.983  71.854  1.00  0.00    -0.421 C  
BRANCH  27  28
HETATM   28  C   UNL     1     -13.975  14.694  72.500  1.00  0.00    -0.518 C  
BRANCH  28  29
HETATM   29  C   UNL     1     -13.568  16.070  73.008  1.00  0.00    -0.530 C  
HETATM   30  C   UNL     1     -12.271  15.988  73.792  1.00  0.00    -0.627 C  
ENDBRANCH  28  29
ENDBRANCH  27  28
ENDBRANCH  26  27
ENDBRANCH  24  26
ENDBRANCH  23  24
ENDBRANCH   4  23
TORSDOF 7
ENDMDL
MODEL       57
REMARK 921   NORMALIZED FREE ENERGY PREDICTED BY IDOCK:   -4.10 KCAL/MOL
REMARK 922        TOTAL FREE ENERGY PREDICTED BY IDOCK:   -5.86 KCAL/MOL
REMARK 923 INTER-LIGAND FREE ENERGY PREDICTED BY IDOCK:   -5.90 KCAL/MOL
REMARK 924 INTRA-LIGAND FREE ENERGY PREDICTED BY IDOCK:    0.04 KCAL/MOL
REMARK 927      BINDING AFFINITY PREDICTED BY RF-SCORE:    0.00 PKD
ROOT
HETATM    1  C   UNL     1      -7.336   8.555  66.811  1.00  0.00    -0.082 C  
HETATM    2  C   UNL     1      -6.319   9.517  66.575  1.00  0.00    -0.066 C  
HETATM    3  C   UNL     1      -7.012   9.584  67.886  1.00  0.00    -0.079 C  
HETATM    4  C   UNL     1      -8.196   7.943  68.308  1.00  0.00    -0.124 C  
HETATM    5  C   UNL     1     -11.376  12.732  66.204  1.00  0.00    -0.371 C  
HETATM    6  O   UNL     1     -12.007  14.699  67.299  1.00  0.00    -0.391 OA 
HETATM    7  C   UNL     1      -6.917   8.234  68.694  1.00  0.00    -0.068 C  
HETATM    8  C   UNL     1     -11.778  13.493  67.406  1.00  0.00    -0.380 C  
HETATM    9  C   UNL     1     -11.024  11.436  66.264  1.00  0.00    -0.303 C  
HETATM   10  C   UNL     1      -7.639   9.395  69.941  1.00  0.00    -0.109 C  
HETATM   11  C   UNL     1      -5.721   7.353  69.021  1.00  0.00    -0.019 C  
HETATM   12  C   UNL     1     -11.847  12.799  68.742  1.00  0.00    -0.346 C  
HETATM   13  C   UNL     1     -10.527  10.694  65.041  1.00  0.00    -0.278 C  
HETATM   14  C   UNL     1      -9.109  10.066  69.411  1.00  0.00    -0.228 C  
HETATM   15  C   UNL     1     -11.820  11.281  68.683  1.00  0.00    -0.369 C  
HETATM   16  C   UNL     1      -8.981   9.336  66.612  1.00  0.00    -0.165 C  
HETATM   17  C   UNL     1      -9.492  10.361  67.836  1.00  0.00    -0.150 C  
HETATM   18  C   UNL     1      -9.157  10.013  65.235  1.00  0.00    -0.243 C  
HETATM   19  C   UNL     1     -10.998  10.640  67.558  1.00  0.00    -0.371 C  
ENDROOT
BRANCH   4  20
HETATM   20  C   UNL     1      -8.774   7.172  69.608  1.00  0.00    -0.141 C  
HETATM   21  O   UNL     1      -8.078   6.549  70.424  1.00  0.00    -0.113 OA 
HETATM   22  C   UNL     1     -10.267   7.087  69.818  1.00  0.00    -0.213 C  
ENDBRANCH   4  20
BRANCH   4  23
HETATM   23  O   UNL     1      -7.870   6.549  67.685  1.00  0.00    -0.107 OA 
BRANCH  23  24
HETATM   24  C   UNL     1      -8.809   5.704  67.197  1.00  0.00    -0.106 C  
HETATM   25  O   UNL     1      -9.768   6.030  66.521  1.00  0.00    -0.154 OA 
BRANCH  24  26
HETATM   26  C   UNL     1      -8.360   4.281  67.473  1.00  0.00    -0.099 C  
BRANCH  26  27
HETATM   27  C   UNL     1      -9.410   3.461  68.190  1.00  0.00    -0.240 C  
BRANCH  27  28
HETATM   28  C   UNL     1      -8.877   2.895  69.500  1.00  0.00    -0.151 C  
BRANCH  28  29
HETATM   29  C   UNL     1      -9.652   3.449  70.687  1.00  0.00    -0.238 C  
HETATM   30  C   UNL     1      -9.531   2.524  71.884  1.00  0.00    -0.195 C  
ENDBRANCH  28  29
ENDBRANCH  27  28
ENDBRANCH  26  27
ENDBRANCH  24  26
ENDBRANCH  23  24
ENDBRANCH   4  23
TORSDOF 7
ENDMDL
MODEL       58
REMARK 921   NORMALIZED FREE ENERGY PREDICTED BY IDOCK:   -4.10 KCAL/MOL
REMARK 922        TOTAL FREE ENERGY PREDICTED BY IDOCK:   -5.86 KCAL/MOL
REMARK 923 INTER-LIGAND FREE ENERGY PREDICTED BY IDOCK:   -6.56 KCAL/MOL
REMARK 924 INTRA-LIGAND FREE ENERGY PREDICTED BY IDOCK:    0.70 KCAL/MOL
REMARK 927      BINDING AFFINITY PREDICTED BY RF-SCORE:    0.00 PKD
ROOT
HETATM    1  C   UNL     1      -9.931   9.620  67.273  1.00  0.00    -0.250 C  
HETATM    2  C   UNL     1     -10.035   9.432  65.869  1.00  0.00    -0.327 C  
HETATM    3  C   UNL     1      -8.777  10.038  66.371  1.00  0.00    -0.140 C  
HETATM    4  C   UNL     1      -8.539   9.933  68.422  1.00  0.00    -0.116 C  
HETATM    5  C   UNL     1     -10.585  15.376  66.511  1.00  0.00    -0.306 C  
HETATM    6  O   UNL     1      -9.427  17.127  65.483  1.00  0.00    -0.465 OA 
HETATM    7  C   UNL     1      -8.045   9.130  67.432  1.00  0.00    -0.107 C  
HETATM    8  C   UNL     1      -9.374  16.192  66.283  1.00  0.00    -0.317 C  
HETATM    9  C   UNL     1     -10.577  14.288  67.299  1.00  0.00    -0.278 C  
HETATM   10  C   UNL     1      -6.788  10.447  67.099  1.00  0.00    -0.083 C  
HETATM   11  C   UNL     1      -7.683   7.654  67.395  1.00  0.00    -0.117 C  
HETATM   12  C   UNL     1      -8.090  15.834  66.986  1.00  0.00    -0.272 C  
HETATM   13  C   UNL     1     -11.801  13.410  67.451  1.00  0.00    -0.418 C  
HETATM   14  C   UNL     1      -7.384  12.000  67.450  1.00  0.00    -0.150 C  
HETATM   15  C   UNL     1      -8.236  14.856  68.140  1.00  0.00    -0.139 C  
HETATM   16  C   UNL     1     -10.204  11.386  67.679  1.00  0.00    -0.204 C  
HETATM   17  C   UNL     1      -8.962  12.452  67.318  1.00  0.00    -0.190 C  
HETATM   18  C   UNL     1     -11.548  11.921  67.138  1.00  0.00    -0.363 C  
HETATM   19  C   UNL     1      -9.333  13.792  68.019  1.00  0.00    -0.199 C  
ENDROOT
BRANCH   4  20
HETATM   20  C   UNL     1      -7.333   9.922  69.501  1.00  0.00    -0.102 C  
HETATM   21  O   UNL     1      -7.094  10.841  70.297  1.00  0.00    -0.210 OA 
HETATM   22  C   UNL     1      -6.341   8.783  69.494  1.00  0.00    -0.043 C  
ENDBRANCH   4  20
BRANCH   4  23
HETATM   23  O   UNL     1      -9.218   8.789  69.240  1.00  0.00    -0.147 OA 
BRANCH  23  24
HETATM   24  C   UNL     1      -9.872   8.986  70.410  1.00  0.00    -0.202 C  
HETATM   25  O   UNL     1     -10.517   9.977  70.699  1.00  0.00    -0.276 OA 
BRANCH  24  26
HETATM   26  C   UNL     1      -9.823   7.695  71.208  1.00  0.00    -0.187 C  
BRANCH  26  27
HETATM   27  C   UNL     1      -9.558   6.481  70.345  1.00  0.00    -0.173 C  
BRANCH  27  28
HETATM   28  C   UNL     1     -10.533   5.352  70.658  1.00  0.00    -0.329 C  
BRANCH  28  29
HETATM   29  C   UNL     1     -10.708   5.188  72.162  1.00  0.00    -0.252 C  
HETATM   30  C   UNL     1      -9.754   4.138  72.699  1.00  0.00    -0.196 C  
ENDBRANCH  28  29
ENDBRANCH  27  28
ENDBRANCH  26  27
ENDBRANCH  24  26
ENDBRANCH  23  24
ENDBRANCH   4  23
TORSDOF 7
ENDMDL
MODEL       59
REMARK 921   NORMALIZED FREE ENERGY PREDICTED BY IDOCK:   -4.08 KCAL/MOL
REMARK 922        TOTAL FREE ENERGY PREDICTED BY IDOCK:   -5.83 KCAL/MOL
REMARK 923 INTER-LIGAND FREE ENERGY PREDICTED BY IDOCK:   -6.29 KCAL/MOL
REMARK 924 INTRA-LIGAND FREE ENERGY PREDICTED BY IDOCK:    0.47 KCAL/MOL
REMARK 927      BINDING AFFINITY PREDICTED BY RF-SCORE:    0.00 PKD
ROOT
HETATM    1  C   UNL     1     -10.394   7.103  69.378  1.00  0.00    -0.206 C  
HETATM    2  C   UNL     1     -11.255   6.267  68.619  1.00  0.00    -0.328 C  
HETATM    3  C   UNL     1      -9.823   6.279  68.231  1.00  0.00    -0.134 C  
HETATM    4  C   UNL     1      -8.578   7.208  69.596  1.00  0.00    -0.137 C  
HETATM    5  C   UNL     1     -10.057  10.789  64.856  1.00  0.00    -0.387 C  
HETATM    6  O   UNL     1      -9.253  10.763  62.661  1.00  0.00    -0.269 OA 
HETATM    7  C   UNL     1      -8.866   5.883  69.420  1.00  0.00    -0.122 C  
HETATM    8  C   UNL     1      -8.998  10.563  63.850  1.00  0.00    -0.216 C  
HETATM    9  C   UNL     1      -9.878  10.505  66.157  1.00  0.00    -0.271 C  
HETATM   10  C   UNL     1      -7.714   5.904  67.972  1.00  0.00    -0.100 C  
HETATM   11  C   UNL     1      -8.915   4.709  70.386  1.00  0.00    -0.147 C  
HETATM   12  C   UNL     1      -7.653  10.042  64.285  1.00  0.00    -0.141 C  
HETATM   13  C   UNL     1     -11.001  10.655  67.162  1.00  0.00    -0.312 C  
HETATM   14  C   UNL     1      -7.677   7.422  67.209  1.00  0.00    -0.116 C  
HETATM   15  C   UNL     1      -7.386  10.111  65.779  1.00  0.00    -0.128 C  
HETATM   16  C   UNL     1     -10.015   8.622  68.425  1.00  0.00    -0.204 C  
HETATM   17  C   UNL     1      -8.946   8.471  67.143  1.00  0.00    -0.145 C  
HETATM   18  C   UNL     1     -11.286   9.379  67.980  1.00  0.00     0.160 C  
HETATM   19  C   UNL     1      -8.588   9.924  66.713  1.00  0.00    -0.133 C  
ENDROOT
BRANCH   4  20
HETATM   20  C   UNL     1      -7.023   7.160  70.042  1.00  0.00    -0.061 C  
HETATM   21  O   UNL     1      -6.509   6.243  70.700  1.00  0.00    -0.041 OA 
HETATM   22  C   UNL     1      -6.131   8.344  69.755  1.00  0.00    -0.028 C  
ENDBRANCH   4  20
BRANCH   4  23
HETATM   23  O   UNL     1      -8.962   7.264  71.108  1.00  0.00    -0.146 OA 
BRANCH  23  24
HETATM   24  C   UNL     1      -8.875   8.383  71.866  1.00  0.00    -0.203 C  
HETATM   25  O   UNL     1      -7.939   8.675  72.588  1.00  0.00    -0.354 OA 
BRANCH  24  26
HETATM   26  C   UNL     1     -10.041   9.289  71.515  1.00  0.00    -0.306 C  
BRANCH  26  27
HETATM   27  C   UNL     1     -11.346   8.833  72.129  1.00  0.00    -0.411 C  
BRANCH  27  28
HETATM   28  C   UNL     1     -12.513   9.697  71.664  1.00  0.00    -0.494 C  
BRANCH  28  29
HETATM   29  C   UNL     1     -13.823   8.926  71.743  1.00  0.00    -0.465 C  
HETATM   30  C   UNL     1     -13.574   7.434  71.618  1.00  0.00    -0.449 C  
ENDBRANCH  28  29
ENDBRANCH  27  28
ENDBRANCH  26  27
ENDBRANCH  24  26
ENDBRANCH  23  24
ENDBRANCH   4  23
TORSDOF 7
ENDMDL
MODEL       60
REMARK 921   NORMALIZED FREE ENERGY PREDICTED BY IDOCK:   -4.08 KCAL/MOL
REMARK 922        TOTAL FREE ENERGY PREDICTED BY IDOCK:   -5.83 KCAL/MOL
REMARK 923 INTER-LIGAND FREE ENERGY PREDICTED BY IDOCK:   -5.69 KCAL/MOL
REMARK 924 INTRA-LIGAND FREE ENERGY PREDICTED BY IDOCK:   -0.14 KCAL/MOL
REMARK 927      BINDING AFFINITY PREDICTED BY RF-SCORE:    0.00 PKD
ROOT
HETATM    1  C   UNL     1      -9.919   9.694  66.971  1.00  0.00    -0.263 C  
HETATM    2  C   UNL     1     -11.100  10.360  67.392  1.00  0.00    -0.297 C  
HETATM    3  C   UNL     1      -9.919  10.467  68.284  1.00  0.00    -0.168 C  
HETATM    4  C   UNL     1      -8.151   9.806  67.440  1.00  0.00    -0.114 C  
HETATM    5  C   UNL     1     -10.756   5.669  71.123  1.00  0.00    -0.310 C  
HETATM    6  O   UNL     1     -10.816   5.580  73.459  1.00  0.00    -0.267 OA 
HETATM    7  C   UNL     1      -8.658  11.070  67.555  1.00  0.00    -0.128 C  
HETATM    8  C   UNL     1     -10.176   5.915  72.460  1.00  0.00    -0.187 C  
HETATM    9  C   UNL     1     -10.157   6.088  69.996  1.00  0.00    -0.241 C  
HETATM   10  C   UNL     1      -8.119  11.042  69.325  1.00  0.00    -0.012 C  
HETATM   11  C   UNL     1      -8.509  12.316  66.694  1.00  0.00    -0.056 C  
HETATM   12  C   UNL     1      -8.847   6.615  72.580  1.00  0.00    -0.128 C  
HETATM   13  C   UNL     1     -10.807   5.910  68.640  1.00  0.00    -0.333 C  
HETATM   14  C   UNL     1      -8.159   9.473  69.978  1.00  0.00    -0.176 C  
HETATM   15  C   UNL     1      -8.049   6.712  71.291  1.00  0.00    -0.112 C  
HETATM   16  C   UNL     1      -9.712   8.144  67.927  1.00  0.00    -0.191 C  
HETATM   17  C   UNL     1      -9.212   8.292  69.520  1.00  0.00    -0.158 C  
HETATM   18  C   UNL     1     -10.944   7.217  67.833  1.00  0.00    -0.154 C  
HETATM   19  C   UNL     1      -8.844   6.853  69.987  1.00  0.00    -0.142 C  
ENDROOT
BRANCH   4  20
HETATM   20  C   UNL     1      -6.562  10.062  67.605  1.00  0.00    -0.067 C  
HETATM   21  O   UNL     1      -5.971  11.085  67.228  1.00  0.00    -0.049 OA 
HETATM   22  C   UNL     1      -5.685   8.961  68.151  1.00  0.00    -0.039 C  
ENDBRANCH   4  20
BRANCH   4  23
HETATM   23  O   UNL     1      -7.949   9.848  65.892  1.00  0.00    -0.109 OA 
BRANCH  23  24
HETATM   24  C   UNL     1      -7.802   8.743  65.122  1.00  0.00    -0.108 C  
HETATM   25  O   UNL     1      -7.463   7.644  65.522  1.00  0.00    -0.071 OA 
BRANCH  24  26
HETATM   26  C   UNL     1      -8.313   9.061  63.728  1.00  0.00    -0.178 C  
BRANCH  26  27
HETATM   27  C   UNL     1      -8.638  10.526  63.542  1.00  0.00    -0.165 C  
BRANCH  27  28
HETATM   28  C   UNL     1     -10.137  10.748  63.375  1.00  0.00    -0.345 C  
BRANCH  28  29
HETATM   29  C   UNL     1     -10.497  12.210  63.599  1.00  0.00    -0.495 C  
HETATM   30  C   UNL     1     -12.002  12.380  63.699  1.00  0.00    -0.626 C  
ENDBRANCH  28  29
ENDBRANCH  27  28
ENDBRANCH  26  27
ENDBRANCH  24  26
ENDBRANCH  23  24
ENDBRANCH   4  23
TORSDOF 7
ENDMDL
MODEL       61
REMARK 921   NORMALIZED FREE ENERGY PREDICTED BY IDOCK:   -4.03 KCAL/MOL
REMARK 922        TOTAL FREE ENERGY PREDICTED BY IDOCK:   -5.77 KCAL/MOL
REMARK 923 INTER-LIGAND FREE ENERGY PREDICTED BY IDOCK:   -6.05 KCAL/MOL
REMARK 924 INTRA-LIGAND FREE ENERGY PREDICTED BY IDOCK:    0.28 KCAL/MOL
REMARK 927      BINDING AFFINITY PREDICTED BY RF-SCORE:    0.00 PKD
ROOT
HETATM    1  C   UNL     1     -10.540   9.966  67.510  1.00  0.00    -0.333 C  
HETATM    2  C   UNL     1     -11.328  10.024  68.689  1.00  0.00    -0.115 C  
HETATM    3  C   UNL     1      -9.856   9.988  68.872  1.00  0.00    -0.187 C  
HETATM    4  C   UNL     1      -8.775  10.286  67.135  1.00  0.00    -0.129 C  
HETATM    5  C   UNL     1      -9.268   4.384  68.684  1.00  0.00    -0.189 C  
HETATM    6  O   UNL     1      -8.141   3.179  70.340  1.00  0.00    -0.045 OA 
HETATM    7  C   UNL     1      -9.122  11.165  68.123  1.00  0.00    -0.159 C  
HETATM    8  C   UNL     1      -8.085   4.100  69.524  1.00  0.00    -0.059 C  
HETATM    9  C   UNL     1      -9.310   5.428  67.838  1.00  0.00    -0.123 C  
HETATM   10  C   UNL     1      -7.763  10.433  69.143  1.00  0.00    -0.126 C  
HETATM   11  C   UNL     1      -9.396  12.661  68.112  1.00  0.00    -0.210 C  
HETATM   12  C   UNL     1      -6.860   4.970  69.408  1.00  0.00    -0.053 C  
HETATM   13  C   UNL     1     -10.560   5.761  67.052  1.00  0.00    -0.373 C  
HETATM   14  C   UNL     1      -7.508   8.791  68.782  1.00  0.00    -0.084 C  
HETATM   15  C   UNL     1      -6.821   5.871  68.185  1.00  0.00    -0.067 C  
HETATM   16  C   UNL     1      -9.918   8.259  67.269  1.00  0.00    -0.289 C  
HETATM   17  C   UNL     1      -8.678   7.749  68.275  1.00  0.00    -0.127 C  
HETATM   18  C   UNL     1     -11.052   7.210  67.239  1.00  0.00    -0.229 C  
HETATM   19  C   UNL     1      -8.162   6.410  67.671  1.00  0.00    -0.118 C  
ENDROOT
BRANCH   4  20
HETATM   20  C   UNL     1      -7.314  10.827  66.697  1.00  0.00    -0.134 C  
HETATM   21  O   UNL     1      -6.968  12.017  66.724  1.00  0.00    -0.079 OA 
HETATM   22  C   UNL     1      -6.313   9.864  66.106  1.00  0.00    -0.077 C  
ENDBRANCH   4  20
BRANCH   4  23
HETATM   23  O   UNL     1      -9.382  11.112  65.956  1.00  0.00    -0.192 OA 
BRANCH  23  24
HETATM   24  C   UNL     1      -9.625  10.601  64.726  1.00  0.00    -0.280 C  
HETATM   25  O   UNL     1      -9.095   9.611  64.256  1.00  0.00    -0.238 OA 
BRANCH  24  26
HETATM   26  C   UNL     1     -10.796  11.352  64.119  1.00  0.00    -0.431 C  
BRANCH  26  27
HETATM   27  C   UNL     1     -10.572  12.847  64.067  1.00  0.00    -0.418 C  
BRANCH  27  28
HETATM   28  C   UNL     1     -11.712  13.606  64.735  1.00  0.00    -0.399 C  
BRANCH  28  29
HETATM   29  C   UNL     1     -11.434  15.103  64.747  1.00  0.00    -0.383 C  
HETATM   30  C   UNL     1     -10.234  15.417  65.621  1.00  0.00    -0.403 C  
ENDBRANCH  28  29
ENDBRANCH  27  28
ENDBRANCH  26  27
ENDBRANCH  24  26
ENDBRANCH  23  24
ENDBRANCH   4  23
TORSDOF 7
ENDMDL
MODEL       62
REMARK 921   NORMALIZED FREE ENERGY PREDICTED BY IDOCK:   -4.01 KCAL/MOL
REMARK 922        TOTAL FREE ENERGY PREDICTED BY IDOCK:   -5.73 KCAL/MOL
REMARK 923 INTER-LIGAND FREE ENERGY PREDICTED BY IDOCK:   -6.18 KCAL/MOL
REMARK 924 INTRA-LIGAND FREE ENERGY PREDICTED BY IDOCK:    0.45 KCAL/MOL
REMARK 927      BINDING AFFINITY PREDICTED BY RF-SCORE:    0.00 PKD
ROOT
HETATM    1  C   UNL     1      -8.376   9.972  68.708  1.00  0.00    -0.121 C  
HETATM    2  C   UNL     1      -7.515  10.508  69.701  1.00  0.00    -0.145 C  
HETATM    3  C   UNL     1      -7.314   9.082  69.342  1.00  0.00    -0.075 C  
HETATM    4  C   UNL     1      -8.331   8.479  67.646  1.00  0.00    -0.129 C  
HETATM    5  C   UNL     1     -11.184   6.938  72.838  1.00  0.00    -0.254 C  
HETATM    6  O   UNL     1     -10.703   5.221  74.350  1.00  0.00    -0.304 OA 
HETATM    7  C   UNL     1      -7.032   8.875  67.805  1.00  0.00    -0.075 C  
HETATM    8  C   UNL     1     -10.683   5.589  73.174  1.00  0.00    -0.268 C  
HETATM    9  C   UNL     1     -11.109   7.439  71.593  1.00  0.00    -0.264 C  
HETATM   10  C   UNL     1      -6.688   7.196  68.504  1.00  0.00    -0.060 C  
HETATM   11  C   UNL     1      -6.051   9.568  66.873  1.00  0.00    -0.064 C  
HETATM   12  C   UNL     1     -10.110   4.714  72.090  1.00  0.00    -0.256 C  
HETATM   13  C   UNL     1     -11.541   8.856  71.282  1.00  0.00    -0.371 C  
HETATM   14  C   UNL     1      -8.043   6.548  69.301  1.00  0.00    -0.112 C  
HETATM   15  C   UNL     1     -10.405   5.167  70.670  1.00  0.00    -0.305 C  
HETATM   16  C   UNL     1      -9.664   8.938  69.503  1.00  0.00    -0.173 C  
HETATM   17  C   UNL     1      -9.188   7.438  70.080  1.00  0.00    -0.151 C  
HETATM   18  C   UNL     1     -10.459   9.704  70.583  1.00  0.00    -0.379 C  
HETATM   19  C   UNL     1     -10.503   6.678  70.426  1.00  0.00    -0.249 C  
ENDROOT
BRANCH   4  20
HETATM   20  C   UNL     1      -8.201   7.347  66.497  1.00  0.00    -0.120 C  
HETATM   21  O   UNL     1      -7.371   7.371  65.576  1.00  0.00    -0.070 OA 
HETATM   22  C   UNL     1      -9.212   6.226  66.442  1.00  0.00    -0.173 C  
ENDBRANCH   4  20
BRANCH   4  23
HETATM   23  O   UNL     1      -8.682   9.509  66.525  1.00  0.00    -0.131 OA 
BRANCH  23  24
HETATM   24  C   UNL     1      -9.945   9.763  66.106  1.00  0.00    -0.268 C  
HETATM   25  O   UNL     1     -10.944   9.178  66.481  1.00  0.00     0.118 OA 
BRANCH  24  26
HETATM   26  C   UNL     1      -9.919  11.014  65.246  1.00  0.00    -0.320 C  
BRANCH  26  27
HETATM   27  C   UNL     1     -11.174  11.848  65.385  1.00  0.00    -0.351 C  
BRANCH  27  28
HETATM   28  C   UNL     1     -11.195  12.607  66.706  1.00  0.00    -0.347 C  
BRANCH  28  29
HETATM   29  C   UNL     1     -11.811  13.988  66.529  1.00  0.00    -0.439 C  
HETATM   30  C   UNL     1     -10.987  15.037  67.252  1.00  0.00    -0.326 C  
ENDBRANCH  28  29
ENDBRANCH  27  28
ENDBRANCH  26  27
ENDBRANCH  24  26
ENDBRANCH  23  24
ENDBRANCH   4  23
TORSDOF 7
ENDMDL
MODEL       63
REMARK 921   NORMALIZED FREE ENERGY PREDICTED BY IDOCK:   -4.00 KCAL/MOL
REMARK 922        TOTAL FREE ENERGY PREDICTED BY IDOCK:   -5.72 KCAL/MOL
REMARK 923 INTER-LIGAND FREE ENERGY PREDICTED BY IDOCK:   -6.15 KCAL/MOL
REMARK 924 INTRA-LIGAND FREE ENERGY PREDICTED BY IDOCK:    0.43 KCAL/MOL
REMARK 927      BINDING AFFINITY PREDICTED BY RF-SCORE:    0.00 PKD
ROOT
HETATM    1  C   UNL     1      -8.128   7.555  69.917  1.00  0.00    -0.129 C  
HETATM    2  C   UNL     1      -6.967   8.235  70.370  1.00  0.00    -0.037 C  
HETATM    3  C   UNL     1      -8.241   8.554  71.061  1.00  0.00    -0.163 C  
HETATM    4  C   UNL     1      -9.798   7.269  70.615  1.00  0.00    -0.179 C  
HETATM    5  C   UNL     1     -10.014  12.506  67.453  1.00  0.00    -0.207 C  
HETATM    6  O   UNL     1     -10.676  14.639  68.145  1.00  0.00    -0.236 OA 
HETATM    7  C   UNL     1      -8.936   7.280  71.676  1.00  0.00    -0.131 C  
HETATM    8  C   UNL     1     -10.835  13.424  68.271  1.00  0.00    -0.256 C  
HETATM    9  C   UNL     1     -10.069  11.172  67.602  1.00  0.00    -0.203 C  
HETATM   10  C   UNL     1      -9.944   8.663  72.381  1.00  0.00    -0.320 C  
HETATM   11  C   UNL     1      -8.379   6.170  72.554  1.00  0.00    -0.115 C  
HETATM   12  C   UNL     1     -11.805  12.861  69.277  1.00  0.00    -0.363 C  
HETATM   13  C   UNL     1      -9.157  10.249  66.822  1.00  0.00    -0.161 C  
HETATM   14  C   UNL     1     -10.651   9.619  71.166  1.00  0.00    -0.327 C  
HETATM   15  C   UNL     1     -12.103  11.379  69.128  1.00  0.00    -0.331 C  
HETATM   16  C   UNL     1      -9.136   8.683  68.883  1.00  0.00    -0.145 C  
HETATM   17  C   UNL     1      -9.996   9.883  69.678  1.00  0.00    -0.255 C  
HETATM   18  C   UNL     1      -8.340   9.283  67.703  1.00  0.00    -0.116 C  
HETATM   19  C   UNL     1     -10.965  10.485  68.619  1.00  0.00    -0.294 C  
ENDROOT
BRANCH   4  20
HETATM   20  C   UNL     1     -11.169   6.749  71.298  1.00  0.00    -0.276 C  
HETATM   21  O   UNL     1     -12.296   7.202  71.047  1.00  0.00    -0.352 OA 
HETATM   22  C   UNL     1     -11.105   5.719  72.400  1.00  0.00    -0.332 C  
ENDBRANCH   4  20
BRANCH   4  23
HETATM   23  O   UNL     1      -9.510   5.797  70.181  1.00  0.00    -0.154 OA 
BRANCH  23  24
HETATM   24  C   UNL     1     -10.074   5.207  69.100  1.00  0.00    -0.204 C  
HETATM   25  O   UNL     1     -10.805   5.757  68.298  1.00  0.00    -0.241 OA 
BRANCH  24  26
HETATM   26  C   UNL     1      -9.489   3.813  68.958  1.00  0.00    -0.233 C  
BRANCH  26  27
HETATM   27  C   UNL     1      -8.293   3.583  69.854  1.00  0.00    -0.080 C  
BRANCH  27  28
HETATM   28  C   UNL     1      -8.453   2.314  70.683  1.00  0.00    -0.087 C  
BRANCH  28  29
HETATM   29  C   UNL     1      -9.086   2.624  72.032  1.00  0.00    -0.141 C  
HETATM   30  C   UNL     1     -10.480   2.030  72.117  1.00  0.00    -0.081 C  
ENDBRANCH  28  29
ENDBRANCH  27  28
ENDBRANCH  26  27
ENDBRANCH  24  26
ENDBRANCH  23  24
ENDBRANCH   4  23
TORSDOF 7
ENDMDL
MODEL       64
REMARK 921   NORMALIZED FREE ENERGY PREDICTED BY IDOCK:   -3.96 KCAL/MOL
REMARK 922        TOTAL FREE ENERGY PREDICTED BY IDOCK:   -5.67 KCAL/MOL
REMARK 923 INTER-LIGAND FREE ENERGY PREDICTED BY IDOCK:   -5.47 KCAL/MOL
REMARK 924 INTRA-LIGAND FREE ENERGY PREDICTED BY IDOCK:   -0.19 KCAL/MOL
REMARK 927      BINDING AFFINITY PREDICTED BY RF-SCORE:    0.00 PKD
ROOT
HETATM    1  C   UNL     1      -9.695   6.284  68.156  1.00  0.00    -0.123 C  
HETATM    2  C   UNL     1     -10.910   5.856  67.560  1.00  0.00    -0.335 C  
HETATM    3  C   UNL     1     -11.017   6.570  68.857  1.00  0.00    -0.376 C  
HETATM    4  C   UNL     1      -9.268   7.487  69.471  1.00  0.00    -0.146 C  
HETATM    5  C   UNL     1     -10.237   2.086  72.184  1.00  0.00    -0.214 C  
HETATM    6  O   UNL     1     -11.708   1.529  73.914  1.00  0.00    -0.172 OA 
HETATM    7  C   UNL     1     -10.355   8.001  68.820  1.00  0.00    -0.223 C  
HETATM    8  C   UNL     1     -10.986   2.397  73.419  1.00  0.00    -0.193 C  
HETATM    9  C   UNL     1      -9.504   3.010  71.540  1.00  0.00    -0.216 C  
HETATM   10  C   UNL     1     -11.230   8.008  70.451  1.00  0.00    -0.230 C  
HETATM   11  C   UNL     1     -10.509   9.142  67.827  1.00  0.00    -0.306 C  
HETATM   12  C   UNL     1     -10.899   3.777  74.017  1.00  0.00    -0.270 C  
HETATM   13  C   UNL     1      -8.817   2.702  70.227  1.00  0.00    -0.147 C  
HETATM   14  C   UNL     1     -10.694   6.756  71.468  1.00  0.00    -0.254 C  
HETATM   15  C   UNL     1      -9.773   4.644  73.481  1.00  0.00    -0.148 C  
HETATM   16  C   UNL     1      -9.253   5.156  69.531  1.00  0.00    -0.163 C  
HETATM   17  C   UNL     1     -10.142   5.294  70.946  1.00  0.00    -0.295 C  
HETATM   18  C   UNL     1      -9.172   3.679  69.088  1.00  0.00    -0.226 C  
HETATM   19  C   UNL     1      -9.381   4.449  72.010  1.00  0.00    -0.180 C  
ENDROOT
BRANCH   4  20
HETATM   20  C   UNL     1      -8.817   8.727  70.409  1.00  0.00    -0.168 C  
HETATM   21  O   UNL     1      -8.843   9.917  70.061  1.00  0.00    -0.207 OA 
HETATM   22  C   UNL     1      -8.214   8.450  71.765  1.00  0.00    -0.200 C  
ENDBRANCH   4  20
BRANCH   4  23
HETATM   23  O   UNL     1      -8.209   7.956  68.423  1.00  0.00    -0.121 OA 
BRANCH  23  24
HETATM   24  C   UNL     1      -6.935   7.499  68.384  1.00  0.00    -0.079 C  
HETATM   25  O   UNL     1      -6.326   7.027  69.327  1.00  0.00    -0.033 OA 
BRANCH  24  26
HETATM   26  C   UNL     1      -6.472   7.497  66.938  1.00  0.00    -0.056 C  
BRANCH  26  27
HETATM   27  C   UNL     1      -7.504   8.067  65.990  1.00  0.00    -0.077 C  
BRANCH  27  28
HETATM   28  C   UNL     1      -7.693   7.175  64.770  1.00  0.00    -0.115 C  
BRANCH  28  29
HETATM   29  C   UNL     1      -7.215   5.758  65.055  1.00  0.00    -0.066 C  
HETATM   30  C   UNL     1      -8.375   4.781  64.995  1.00  0.00    -0.132 C  
ENDBRANCH  28  29
ENDBRANCH  27  28
ENDBRANCH  26  27
ENDBRANCH  24  26
ENDBRANCH  23  24
ENDBRANCH   4  23
TORSDOF 7
ENDMDL
MODEL       65
REMARK 921   NORMALIZED FREE ENERGY PREDICTED BY IDOCK:   -3.95 KCAL/MOL
REMARK 922        TOTAL FREE ENERGY PREDICTED BY IDOCK:   -5.65 KCAL/MOL
REMARK 923 INTER-LIGAND FREE ENERGY PREDICTED BY IDOCK:   -6.44 KCAL/MOL
REMARK 924 INTRA-LIGAND FREE ENERGY PREDICTED BY IDOCK:    0.79 KCAL/MOL
REMARK 927      BINDING AFFINITY PREDICTED BY RF-SCORE:    0.00 PKD
ROOT
HETATM    1  C   UNL     1     -11.261  13.261  66.760  1.00  0.00    -0.331 C  
HETATM    2  C   UNL     1     -12.566  13.489  66.248  1.00  0.00    -0.298 C  
HETATM    3  C   UNL     1     -11.841  14.670  66.780  1.00  0.00    -0.334 C  
HETATM    4  C   UNL     1      -9.834  14.340  67.152  1.00  0.00    -0.252 C  
HETATM    5  C   UNL     1     -13.303  14.005  72.185  1.00  0.00    -0.545 C  
HETATM    6  O   UNL     1     -14.262  15.721  73.451  1.00  0.00     0.145 OA 
HETATM    7  C   UNL     1     -10.452  14.902  66.070  1.00  0.00    -0.326 C  
HETATM    8  C   UNL     1     -13.314  15.374  72.744  1.00  0.00    -0.518 C  
HETATM    9  C   UNL     1     -12.349  13.589  71.334  1.00  0.00    -0.263 C  
HETATM   10  C   UNL     1     -10.647  16.442  67.078  1.00  0.00    -0.260 C  
HETATM   11  C   UNL     1     -10.087  14.954  64.594  1.00  0.00     0.210 C  
HETATM   12  C   UNL     1     -12.204  16.332  72.397  1.00  0.00    -0.538 C  
HETATM   13  C   UNL     1     -12.400  12.216  70.698  1.00  0.00    -0.385 C  
HETATM   14  C   UNL     1     -10.804  16.102  68.736  1.00  0.00    -0.310 C  
HETATM   15  C   UNL     1     -10.977  15.697  71.764  1.00  0.00     0.012 C  
HETATM   16  C   UNL     1     -11.311  13.255  68.592  1.00  0.00    -0.324 C  
HETATM   17  C   UNL     1     -11.488  14.737  69.355  1.00  0.00    -0.330 C  
HETATM   18  C   UNL     1     -12.323  12.234  69.158  1.00  0.00     0.110 C  
HETATM   19  C   UNL     1     -11.208  14.476  70.864  1.00  0.00     0.037 C  
ENDROOT
BRANCH   4  20
HETATM   20  C   UNL     1      -8.464  15.198  67.241  1.00  0.00    -0.198 C  
HETATM   21  O   UNL     1      -7.999  15.879  66.315  1.00  0.00    -0.200 OA 
HETATM   22  C   UNL     1      -7.607  15.100  68.480  1.00  0.00    -0.120 C  
ENDBRANCH   4  20
BRANCH   4  23
HETATM   23  O   UNL     1      -9.047  13.256  66.350  1.00  0.00    -0.173 OA 
BRANCH  23  24
HETATM   24  C   UNL     1      -8.521  12.140  66.910  1.00  0.00    -0.173 C  
HETATM   25  O   UNL     1      -7.955  12.091  67.986  1.00  0.00    -0.130 OA 
BRANCH  24  26
HETATM   26  C   UNL     1      -8.924  10.946  66.064  1.00  0.00    -0.200 C  
BRANCH  26  27
HETATM   27  C   UNL     1      -9.137   9.691  66.881  1.00  0.00    -0.160 C  
BRANCH  27  28
HETATM   28  C   UNL     1     -10.339   8.898  66.382  1.00  0.00    -0.189 C  
BRANCH  28  29
HETATM   29  C   UNL     1     -10.003   7.417  66.273  1.00  0.00     0.012 C  
HETATM   30  C   UNL     1     -11.045   6.580  66.993  1.00  0.00    -0.411 C  
ENDBRANCH  28  29
ENDBRANCH  27  28
ENDBRANCH  26  27
ENDBRANCH  24  26
ENDBRANCH  23  24
ENDBRANCH   4  23
TORSDOF 7
ENDMDL
MODEL       66
REMARK 921   NORMALIZED FREE ENERGY PREDICTED BY IDOCK:   -3.94 KCAL/MOL
REMARK 922        TOTAL FREE ENERGY PREDICTED BY IDOCK:   -5.64 KCAL/MOL
REMARK 923 INTER-LIGAND FREE ENERGY PREDICTED BY IDOCK:   -5.35 KCAL/MOL
REMARK 924 INTRA-LIGAND FREE ENERGY PREDICTED BY IDOCK:   -0.29 KCAL/MOL
REMARK 927      BINDING AFFINITY PREDICTED BY RF-SCORE:    0.00 PKD
ROOT
HETATM    1  C   UNL     1      -9.744   6.438  68.007  1.00  0.00    -0.122 C  
HETATM    2  C   UNL     1     -10.954   6.013  67.398  1.00  0.00    -0.344 C  
HETATM    3  C   UNL     1     -11.070   6.689  68.714  1.00  0.00    -0.297 C  
HETATM    4  C   UNL     1      -9.333   7.608  69.355  1.00  0.00    -0.152 C  
HETATM    5  C   UNL     1     -10.243   2.123  71.915  1.00  0.00    -0.123 C  
HETATM    6  O   UNL     1     -11.708   1.502  73.627  1.00  0.00    -0.179 OA 
HETATM    7  C   UNL     1     -10.425   8.128  68.718  1.00  0.00    -0.198 C  
HETATM    8  C   UNL     1     -10.997   2.391  73.158  1.00  0.00    -0.131 C  
HETATM    9  C   UNL     1      -9.520   3.073  71.298  1.00  0.00    -0.220 C  
HETATM   10  C   UNL     1     -11.302   8.080  70.347  1.00  0.00    -0.190 C  
HETATM   11  C   UNL     1     -10.591   9.294  67.756  1.00  0.00    -0.307 C  
HETATM   12  C   UNL     1     -10.926   3.755  73.794  1.00  0.00    -0.312 C  
HETATM   13  C   UNL     1      -8.828   2.809  69.978  1.00  0.00    -0.145 C  
HETATM   14  C   UNL     1     -10.752   6.805  71.329  1.00  0.00    -0.257 C  
HETATM   15  C   UNL     1      -9.809   4.649  73.283  1.00  0.00    -0.170 C  
HETATM   16  C   UNL     1      -9.291   5.277  69.350  1.00  0.00    -0.172 C  
HETATM   17  C   UNL     1     -10.182   5.366  70.767  1.00  0.00    -0.313 C  
HETATM   18  C   UNL     1      -9.193   3.814  68.866  1.00  0.00    -0.220 C  
HETATM   19  C   UNL     1      -9.414   4.500  71.809  1.00  0.00    -0.206 C  
ENDROOT
BRANCH   4  20
HETATM   20  C   UNL     1      -8.897   8.826  70.327  1.00  0.00    -0.160 C  
HETATM   21  O   UNL     1      -9.067  10.027  70.069  1.00  0.00    -0.202 OA 
HETATM   22  C   UNL     1      -8.129   8.528  71.592  1.00  0.00    -0.195 C  
ENDBRANCH   4  20
BRANCH   4  23
HETATM   23  O   UNL     1      -8.278   8.118  68.322  1.00  0.00    -0.126 OA 
BRANCH  23  24
HETATM   24  C   UNL     1      -6.945   7.920  68.448  1.00  0.00    -0.075 C  
HETATM   25  O   UNL     1      -6.413   6.867  68.745  1.00  0.00    -0.033 OA 
BRANCH  24  26
HETATM   26  C   UNL     1      -6.229   9.172  67.971  1.00  0.00    -0.051 C  
BRANCH  26  27
HETATM   27  C   UNL     1      -7.043   9.971  66.977  1.00  0.00    -0.089 C  
BRANCH  27  28
HETATM   28  C   UNL     1      -6.446   9.892  65.577  1.00  0.00    -0.091 C  
BRANCH  28  29
HETATM   29  C   UNL     1      -7.078   8.758  64.782  1.00  0.00    -0.077 C  
HETATM   30  C   UNL     1      -8.593   8.845  64.839  1.00  0.00    -0.198 C  
ENDBRANCH  28  29
ENDBRANCH  27  28
ENDBRANCH  26  27
ENDBRANCH  24  26
ENDBRANCH  23  24
ENDBRANCH   4  23
TORSDOF 7
ENDMDL
MODEL       67
REMARK 921   NORMALIZED FREE ENERGY PREDICTED BY IDOCK:   -3.93 KCAL/MOL
REMARK 922        TOTAL FREE ENERGY PREDICTED BY IDOCK:   -5.63 KCAL/MOL
REMARK 923 INTER-LIGAND FREE ENERGY PREDICTED BY IDOCK:   -5.99 KCAL/MOL
REMARK 924 INTRA-LIGAND FREE ENERGY PREDICTED BY IDOCK:    0.36 KCAL/MOL
REMARK 927      BINDING AFFINITY PREDICTED BY RF-SCORE:    0.00 PKD
ROOT
HETATM    1  C   UNL     1      -8.135  10.827  69.166  1.00  0.00    -0.133 C  
HETATM    2  C   UNL     1      -7.058  10.642  70.073  1.00  0.00    -0.095 C  
HETATM    3  C   UNL     1      -7.054   9.801  68.850  1.00  0.00    -0.067 C  
HETATM    4  C   UNL     1      -8.421  10.383  67.412  1.00  0.00    -0.121 C  
HETATM    5  C   UNL     1     -10.363   5.685  70.823  1.00  0.00    -0.310 C  
HETATM    6  O   UNL     1      -9.756   3.430  70.737  1.00  0.00    -0.177 OA 
HETATM    7  C   UNL     1      -7.086  10.655  67.525  1.00  0.00    -0.089 C  
HETATM    8  C   UNL     1      -9.926   4.471  70.102  1.00  0.00    -0.208 C  
HETATM    9  C   UNL     1     -10.482   6.876  70.211  1.00  0.00    -0.227 C  
HETATM   10  C   UNL     1      -6.763   8.947  66.890  1.00  0.00    -0.069 C  
HETATM   11  C   UNL     1      -6.242  11.842  67.087  1.00  0.00    -0.154 C  
HETATM   12  C   UNL     1      -9.646   4.541  68.623  1.00  0.00    -0.222 C  
HETATM   13  C   UNL     1     -10.841   8.130  70.981  1.00  0.00    -0.265 C  
HETATM   14  C   UNL     1      -7.993   7.860  67.332  1.00  0.00    -0.122 C  
HETATM   15  C   UNL     1     -10.164   5.788  67.926  1.00  0.00    -0.231 C  
HETATM   16  C   UNL     1      -9.334   9.452  69.345  1.00  0.00    -0.172 C  
HETATM   17  C   UNL     1      -8.889   7.966  68.710  1.00  0.00    -0.138 C  
HETATM   18  C   UNL     1      -9.841   9.289  70.794  1.00  0.00    -0.350 C  
HETATM   19  C   UNL     1     -10.175   7.089  68.738  1.00  0.00    -0.181 C  
ENDROOT
BRANCH   4  20
HETATM   20  C   UNL     1      -8.609  10.273  65.808  1.00  0.00    -0.154 C  
HETATM   21  O   UNL     1      -7.822  10.744  64.974  1.00  0.00    -0.041 OA 
HETATM   22  C   UNL     1      -9.871   9.662  65.249  1.00  0.00    -0.269 C  
ENDBRANCH   4  20
BRANCH   4  23
HETATM   23  O   UNL     1      -8.887  11.870  67.318  1.00  0.00    -0.166 OA 
BRANCH  23  24
HETATM   24  C   UNL     1     -10.186  12.249  67.254  1.00  0.00    -0.210 C  
HETATM   25  O   UNL     1     -11.138  11.559  67.568  1.00  0.00    -0.237 OA 
BRANCH  24  26
HETATM   26  C   UNL     1     -10.235  13.727  66.912  1.00  0.00    -0.261 C  
BRANCH  26  27
HETATM   27  C   UNL     1     -11.469  14.415  67.454  1.00  0.00    -0.377 C  
BRANCH  27  28
HETATM   28  C   UNL     1     -11.161  15.189  68.730  1.00  0.00    -0.272 C  
BRANCH  28  29
HETATM   29  C   UNL     1     -12.199  14.900  69.804  1.00  0.00    -0.328 C  
HETATM   30  C   UNL     1     -11.913  13.571  70.479  1.00  0.00    -0.344 C  
ENDBRANCH  28  29
ENDBRANCH  27  28
ENDBRANCH  26  27
ENDBRANCH  24  26
ENDBRANCH  23  24
ENDBRANCH   4  23
TORSDOF 7
ENDMDL
MODEL       68
REMARK 921   NORMALIZED FREE ENERGY PREDICTED BY IDOCK:   -3.91 KCAL/MOL
REMARK 922        TOTAL FREE ENERGY PREDICTED BY IDOCK:   -5.59 KCAL/MOL
REMARK 923 INTER-LIGAND FREE ENERGY PREDICTED BY IDOCK:   -5.36 KCAL/MOL
REMARK 924 INTRA-LIGAND FREE ENERGY PREDICTED BY IDOCK:   -0.22 KCAL/MOL
REMARK 927      BINDING AFFINITY PREDICTED BY RF-SCORE:    0.00 PKD
ROOT
HETATM    1  C   UNL     1      -9.289  11.229  65.120  1.00  0.00    -0.211 C  
HETATM    2  C   UNL     1     -10.166  10.862  64.066  1.00  0.00    -0.422 C  
HETATM    3  C   UNL     1     -10.233  10.048  65.306  1.00  0.00    -0.196 C  
HETATM    4  C   UNL     1      -9.219  10.861  66.914  1.00  0.00    -0.161 C  
HETATM    5  C   UNL     1      -6.051   6.489  64.027  1.00  0.00    -0.034 C  
HETATM    6  O   UNL     1      -6.305   4.167  64.105  1.00  0.00    -0.031 OA 
HETATM    7  C   UNL     1     -10.545  10.914  66.586  1.00  0.00    -0.305 C  
HETATM    8  C   UNL     1      -6.402   5.231  64.719  1.00  0.00    -0.034 C  
HETATM    9  C   UNL     1      -6.219   7.692  64.603  1.00  0.00    -0.044 C  
HETATM   10  C   UNL     1     -10.694   9.185  67.228  1.00  0.00    -0.224 C  
HETATM   11  C   UNL     1     -11.622  11.956  66.842  1.00  0.00    -0.358 C  
HETATM   12  C   UNL     1      -6.920   5.275  66.133  1.00  0.00    -0.063 C  
HETATM   13  C   UNL     1      -5.942   8.976  63.850  1.00  0.00    -0.072 C  
HETATM   14  C   UNL     1      -9.255   8.303  67.024  1.00  0.00    -0.187 C  
HETATM   15  C   UNL     1      -6.720   6.598  66.853  1.00  0.00    -0.056 C  
HETATM   16  C   UNL     1      -7.877  10.063  65.182  1.00  0.00    -0.136 C  
HETATM   17  C   UNL     1      -8.179   8.533  65.798  1.00  0.00    -0.125 C  
HETATM   18  C   UNL     1      -7.127   9.963  63.836  1.00  0.00    -0.127 C  
HETATM   19  C   UNL     1      -6.784   7.873  66.002  1.00  0.00    -0.053 C  
ENDROOT
BRANCH   4  20
HETATM   20  C   UNL     1      -9.272  10.804  68.530  1.00  0.00    -0.174 C  
HETATM   21  O   UNL     1     -10.206  11.242  69.219  1.00  0.00    -0.154 OA 
HETATM   22  C   UNL     1      -8.075  10.294  69.295  1.00  0.00    -0.156 C  
ENDBRANCH   4  20
BRANCH   4  23
HETATM   23  O   UNL     1      -9.011  12.405  67.021  1.00  0.00    -0.196 OA 
BRANCH  23  24
HETATM   24  C   UNL     1      -7.856  12.982  67.429  1.00  0.00    -0.164 C  
HETATM   25  O   UNL     1      -6.738  12.638  67.093  1.00  0.00    -0.138 OA 
BRANCH  24  26
HETATM   26  C   UNL     1      -8.200  14.236  68.213  1.00  0.00    -0.148 C  
BRANCH  26  27
HETATM   27  C   UNL     1      -9.354  15.007  67.611  1.00  0.00    -0.194 C  
BRANCH  27  28
HETATM   28  C   UNL     1      -8.955  15.674  66.300  1.00  0.00    -0.377 C  
BRANCH  28  29
HETATM   29  C   UNL     1     -10.185  16.059  65.490  1.00  0.00    -0.389 C  
HETATM   30  C   UNL     1     -10.835  14.827  64.887  1.00  0.00    -0.433 C  
ENDBRANCH  28  29
ENDBRANCH  27  28
ENDBRANCH  26  27
ENDBRANCH  24  26
ENDBRANCH  23  24
ENDBRANCH   4  23
TORSDOF 7
ENDMDL
MODEL       69
REMARK 921   NORMALIZED FREE ENERGY PREDICTED BY IDOCK:   -3.90 KCAL/MOL
REMARK 922        TOTAL FREE ENERGY PREDICTED BY IDOCK:   -5.59 KCAL/MOL
REMARK 923 INTER-LIGAND FREE ENERGY PREDICTED BY IDOCK:   -5.71 KCAL/MOL
REMARK 924 INTRA-LIGAND FREE ENERGY PREDICTED BY IDOCK:    0.12 KCAL/MOL
REMARK 927      BINDING AFFINITY PREDICTED BY RF-SCORE:    0.00 PKD
ROOT
HETATM    1  C   UNL     1     -12.285  13.176  66.670  1.00  0.00    -0.331 C  
HETATM    2  C   UNL     1     -13.230  13.906  65.902  1.00  0.00     0.276 C  
HETATM    3  C   UNL     1     -11.815  13.971  65.457  1.00  0.00    -0.370 C  
HETATM    4  C   UNL     1     -10.571  12.600  66.377  1.00  0.00    -0.251 C  
HETATM    5  C   UNL     1     -10.220  18.197  68.830  1.00  0.00    -0.353 C  
HETATM    6  O   UNL     1      -9.142  20.111  68.029  1.00  0.00    -0.294 OA 
HETATM    7  C   UNL     1     -11.204  12.547  65.167  1.00  0.00    -0.342 C  
HETATM    8  C   UNL     1      -9.136  18.880  68.093  1.00  0.00    -0.313 C  
HETATM    9  C   UNL     1     -10.327  16.858  68.864  1.00  0.00    -0.333 C  
HETATM   10  C   UNL     1      -9.894  13.683  64.519  1.00  0.00     0.270 C  
HETATM   11  C   UNL     1     -11.735  11.387  64.338  1.00  0.00     0.002 C  
HETATM   12  C   UNL     1      -8.081  18.065  67.390  1.00  0.00    -0.227 C  
HETATM   13  C   UNL     1     -11.493  16.174  69.546  1.00  0.00    -0.292 C  
HETATM   14  C   UNL     1      -9.303  14.726  65.725  1.00  0.00    -0.097 C  
HETATM   15  C   UNL     1      -8.031  16.598  67.783  1.00  0.00    -0.182 C  
HETATM   16  C   UNL     1     -11.342  14.326  67.741  1.00  0.00    -0.329 C  
HETATM   17  C   UNL     1     -10.186  15.285  66.998  1.00  0.00    -0.260 C  
HETATM   18  C   UNL     1     -12.256  15.185  68.643  1.00  0.00    -0.067 C  
HETATM   19  C   UNL     1      -9.360  15.928  68.151  1.00  0.00    -0.198 C  
ENDROOT
BRANCH   4  20
HETATM   20  C   UNL     1      -9.182  11.829  66.067  1.00  0.00    -0.194 C  
HETATM   21  O   UNL     1      -9.034  10.976  65.178  1.00  0.00    -0.197 OA 
HETATM   22  C   UNL     1      -7.992  12.052  66.968  1.00  0.00    -0.150 C  
ENDBRANCH   4  20
BRANCH   4  23
HETATM   23  O   UNL     1     -11.142  11.253  66.923  1.00  0.00    -0.289 OA 
BRANCH  23  24
HETATM   24  C   UNL     1     -10.864  10.762  68.154  1.00  0.00    -0.236 C  
HETATM   25  O   UNL     1     -10.746  11.425  69.168  1.00  0.00    -0.216 OA 
BRANCH  24  26
HETATM   26  C   UNL     1     -10.917   9.246  68.086  1.00  0.00    -0.060 C  
BRANCH  26  27
HETATM   27  C   UNL     1      -9.568   8.623  67.801  1.00  0.00    -0.178 C  
BRANCH  27  28
HETATM   28  C   UNL     1      -9.635   7.666  66.617  1.00  0.00    -0.271 C  
BRANCH  28  29
HETATM   29  C   UNL     1      -8.246   7.169  66.241  1.00  0.00    -0.124 C  
HETATM   30  C   UNL     1      -7.675   7.993  65.102  1.00  0.00    -0.105 C  
ENDBRANCH  28  29
ENDBRANCH  27  28
ENDBRANCH  26  27
ENDBRANCH  24  26
ENDBRANCH  23  24
ENDBRANCH   4  23
TORSDOF 7
ENDMDL
MODEL       70
REMARK 921   NORMALIZED FREE ENERGY PREDICTED BY IDOCK:   -3.86 KCAL/MOL
REMARK 922        TOTAL FREE ENERGY PREDICTED BY IDOCK:   -5.53 KCAL/MOL
REMARK 923 INTER-LIGAND FREE ENERGY PREDICTED BY IDOCK:   -5.74 KCAL/MOL
REMARK 924 INTRA-LIGAND FREE ENERGY PREDICTED BY IDOCK:    0.21 KCAL/MOL
REMARK 927      BINDING AFFINITY PREDICTED BY RF-SCORE:    0.00 PKD
ROOT
HETATM    1  C   UNL     1     -10.720   7.160  68.843  1.00  0.00    -0.199 C  
HETATM    2  C   UNL     1     -11.142   6.160  69.757  1.00  0.00    -0.486 C  
HETATM    3  C   UNL     1      -9.713   6.555  69.812  1.00  0.00    -0.170 C  
HETATM    4  C   UNL     1      -9.258   8.259  68.733  1.00  0.00    -0.143 C  
HETATM    5  C   UNL     1      -7.881   3.089  65.760  1.00  0.00    -0.085 C  
HETATM    6  O   UNL     1      -6.086   1.623  66.071  1.00  0.00    -0.021 OA 
HETATM    7  C   UNL     1      -9.517   8.098  70.066  1.00  0.00    -0.167 C  
HETATM    8  C   UNL     1      -6.480   2.790  66.124  1.00  0.00    -0.028 C  
HETATM    9  C   UNL     1      -8.403   4.321  65.880  1.00  0.00    -0.109 C  
HETATM   10  C   UNL     1      -7.795   7.444  70.242  1.00  0.00    -0.095 C  
HETATM   11  C   UNL     1     -10.132   9.020  71.108  1.00  0.00    -0.365 C  
HETATM   12  C   UNL     1      -5.579   3.899  66.602  1.00  0.00    -0.018 C  
HETATM   13  C   UNL     1      -9.864   4.595  65.591  1.00  0.00    -0.217 C  
HETATM   14  C   UNL     1      -7.266   6.655  68.832  1.00  0.00    -0.091 C  
HETATM   15  C   UNL     1      -6.096   5.305  66.348  1.00  0.00    -0.030 C  
HETATM   16  C   UNL     1      -9.802   6.383  67.460  1.00  0.00    -0.146 C  
HETATM   17  C   UNL     1      -8.247   5.846  67.785  1.00  0.00    -0.105 C  
HETATM   18  C   UNL     1     -10.616   5.279  66.750  1.00  0.00    -0.309 C  
HETATM   19  C   UNL     1      -7.615   5.511  66.402  1.00  0.00    -0.091 C  
ENDROOT
BRANCH   4  20
HETATM   20  C   UNL     1      -8.148   9.437  68.744  1.00  0.00    -0.103 C  
HETATM   21  O   UNL     1      -8.102  10.352  69.579  1.00  0.00    -0.161 OA 
HETATM   22  C   UNL     1      -7.151   9.527  67.614  1.00  0.00    -0.081 C  
ENDBRANCH   4  20
BRANCH   4  23
HETATM   23  O   UNL     1     -10.346   9.352  68.483  1.00  0.00    -0.196 OA 
BRANCH  23  24
HETATM   24  C   UNL     1     -10.501  10.003  67.306  1.00  0.00    -0.254 C  
HETATM   25  O   UNL     1     -10.286   9.532  66.205  1.00  0.00    -0.273 OA 
BRANCH  24  26
HETATM   26  C   UNL     1     -11.166  11.340  67.584  1.00  0.00    -0.357 C  
BRANCH  26  27
HETATM   27  C   UNL     1     -10.200  12.502  67.517  1.00  0.00    -0.219 C  
BRANCH  27  28
HETATM   28  C   UNL     1     -10.658  13.551  66.511  1.00  0.00    -0.281 C  
BRANCH  28  29
HETATM   29  C   UNL     1     -12.024  13.195  65.941  1.00  0.00    -0.479 C  
HETATM   30  C   UNL     1     -12.139  13.659  64.501  1.00  0.00    -0.459 C  
ENDBRANCH  28  29
ENDBRANCH  27  28
ENDBRANCH  26  27
ENDBRANCH  24  26
ENDBRANCH  23  24
ENDBRANCH   4  23
TORSDOF 7
ENDMDL
MODEL       71
REMARK 921   NORMALIZED FREE ENERGY PREDICTED BY IDOCK:   -3.86 KCAL/MOL
REMARK 922        TOTAL FREE ENERGY PREDICTED BY IDOCK:   -5.52 KCAL/MOL
REMARK 923 INTER-LIGAND FREE ENERGY PREDICTED BY IDOCK:   -5.57 KCAL/MOL
REMARK 924 INTRA-LIGAND FREE ENERGY PREDICTED BY IDOCK:    0.04 KCAL/MOL
REMARK 927      BINDING AFFINITY PREDICTED BY RF-SCORE:    0.00 PKD
ROOT
HETATM    1  C   UNL     1      -7.484   8.826  69.510  1.00  0.00    -0.075 C  
HETATM    2  C   UNL     1      -7.057   9.449  70.712  1.00  0.00    -0.119 C  
HETATM    3  C   UNL     1      -8.518   9.247  70.547  1.00  0.00    -0.251 C  
HETATM    4  C   UNL     1      -9.034   8.009  68.973  1.00  0.00    -0.145 C  
HETATM    5  C   UNL     1      -9.546  13.959  67.628  1.00  0.00    -0.215 C  
HETATM    6  O   UNL     1     -11.200  15.490  68.248  1.00  0.00    -0.311 OA 
HETATM    7  C   UNL     1      -8.899   7.736  70.306  1.00  0.00    -0.144 C  
HETATM    8  C   UNL     1     -10.938  14.319  67.970  1.00  0.00    -0.249 C  
HETATM    9  C   UNL     1      -9.171  12.688  67.402  1.00  0.00    -0.191 C  
HETATM   10  C   UNL     1     -10.552   8.530  70.556  1.00  0.00    -0.238 C  
HETATM   11  C   UNL     1      -8.496   6.477  71.058  1.00  0.00    -0.127 C  
HETATM   12  C   UNL     1     -11.995  13.246  68.026  1.00  0.00    -0.351 C  
HETATM   13  C   UNL     1      -7.725  12.323  67.143  1.00  0.00    -0.134 C  
HETATM   14  C   UNL     1     -10.846   9.761  69.421  1.00  0.00    -0.256 C  
HETATM   15  C   UNL     1     -11.605  11.921  67.392  1.00  0.00    -0.367 C  
HETATM   16  C   UNL     1      -8.168  10.088  68.371  1.00  0.00    -0.106 C  
HETATM   17  C   UNL     1      -9.683  10.705  68.738  1.00  0.00    -0.193 C  
HETATM   18  C   UNL     1      -7.173  11.235  68.087  1.00  0.00    -0.081 C  
HETATM   19  C   UNL     1     -10.129  11.511  67.483  1.00  0.00    -0.203 C  
ENDROOT
BRANCH   4  20
HETATM   20  C   UNL     1     -10.256   7.037  68.550  1.00  0.00    -0.172 C  
HETATM   21  O   UNL     1     -10.582   6.010  69.164  1.00  0.00    -0.230 OA 
HETATM   22  C   UNL     1     -11.005   7.301  67.266  1.00  0.00    -0.284 C  
ENDBRANCH   4  20
BRANCH   4  23
HETATM   23  O   UNL     1      -8.046   6.906  68.477  1.00  0.00    -0.118 OA 
BRANCH  23  24
HETATM   24  C   UNL     1      -7.822   6.630  67.170  1.00  0.00    -0.105 C  
HETATM   25  O   UNL     1      -7.829   7.445  66.266  1.00  0.00    -0.100 OA 
BRANCH  24  26
HETATM   26  C   UNL     1      -7.373   5.184  67.057  1.00  0.00    -0.082 C  
BRANCH  26  27
HETATM   27  C   UNL     1      -8.165   4.401  66.033  1.00  0.00    -0.109 C  
BRANCH  27  28
HETATM   28  C   UNL     1      -9.513   3.960  66.589  1.00  0.00    -0.217 C  
BRANCH  28  29
HETATM   29  C   UNL     1      -9.330   3.047  67.793  1.00  0.00    -0.251 C  
HETATM   30  C   UNL     1      -8.808   1.689  67.360  1.00  0.00    -0.142 C  
ENDBRANCH  28  29
ENDBRANCH  27  28
ENDBRANCH  26  27
ENDBRANCH  24  26
ENDBRANCH  23  24
ENDBRANCH   4  23
TORSDOF 7
ENDMDL
MODEL       72
REMARK 921   NORMALIZED FREE ENERGY PREDICTED BY IDOCK:   -3.85 KCAL/MOL
REMARK 922        TOTAL FREE ENERGY PREDICTED BY IDOCK:   -5.51 KCAL/MOL
REMARK 923 INTER-LIGAND FREE ENERGY PREDICTED BY IDOCK:   -5.43 KCAL/MOL
REMARK 924 INTRA-LIGAND FREE ENERGY PREDICTED BY IDOCK:   -0.08 KCAL/MOL
REMARK 927      BINDING AFFINITY PREDICTED BY RF-SCORE:    0.00 PKD
ROOT
HETATM    1  C   UNL     1      -9.295   7.474  68.309  1.00  0.00    -0.141 C  
HETATM    2  C   UNL     1     -10.511   6.744  68.241  1.00  0.00    -0.243 C  
HETATM    3  C   UNL     1      -9.764   6.918  66.970  1.00  0.00    -0.210 C  
HETATM    4  C   UNL     1      -7.843   7.647  67.204  1.00  0.00    -0.117 C  
HETATM    5  C   UNL     1     -11.880  11.962  65.605  1.00  0.00    -0.117 C  
HETATM    6  O   UNL     1     -12.844  12.402  63.521  1.00  0.00    -0.749 OA 
HETATM    7  C   UNL     1      -8.290   6.365  67.050  1.00  0.00    -0.112 C  
HETATM    8  C   UNL     1     -11.851  11.997  64.128  1.00  0.00    -0.373 C  
HETATM    9  C   UNL     1     -10.870  11.449  66.328  1.00  0.00    -0.318 C  
HETATM   10  C   UNL     1      -8.481   6.730  65.246  1.00  0.00    -0.067 C  
HETATM   11  C   UNL     1      -7.755   5.028  67.542  1.00  0.00    -0.091 C  
HETATM   12  C   UNL     1     -10.639  11.487  63.392  1.00  0.00    -0.460 C  
HETATM   13  C   UNL     1     -10.952  11.336  67.836  1.00  0.00    -0.302 C  
HETATM   14  C   UNL     1      -8.851   8.365  64.963  1.00  0.00    -0.028 C  
HETATM   15  C   UNL     1      -9.400  11.288  64.249  1.00  0.00    -0.133 C  
HETATM   16  C   UNL     1      -9.554   9.166  67.655  1.00  0.00    -0.181 C  
HETATM   17  C   UNL     1      -9.703   9.326  65.993  1.00  0.00    -0.359 C  
HETATM   18  C   UNL     1     -10.699   9.914  68.373  1.00  0.00    -0.271 C  
HETATM   19  C   UNL     1      -9.619  10.854  65.704  1.00  0.00    -0.268 C  
ENDROOT
BRANCH   4  20
HETATM   20  C   UNL     1      -6.431   7.612  66.414  1.00  0.00    -0.049 C  
HETATM   21  O   UNL     1      -5.678   6.628  66.366  1.00  0.00    -0.017 OA 
HETATM   22  C   UNL     1      -5.908   8.874  65.773  1.00  0.00    -0.051 C  
ENDBRANCH   4  20
BRANCH   4  23
HETATM   23  O   UNL     1      -7.055   7.392  68.528  1.00  0.00    -0.079 OA 
BRANCH  23  24
HETATM   24  C   UNL     1      -6.657   8.376  69.369  1.00  0.00    -0.041 C  
HETATM   25  O   UNL     1      -6.489   9.542  69.061  1.00  0.00    -0.045 OA 
BRANCH  24  26
HETATM   26  C   UNL     1      -6.644   7.821  70.782  1.00  0.00    -0.038 C  
BRANCH  26  27
HETATM   27  C   UNL     1      -6.755   6.313  70.822  1.00  0.00    -0.061 C  
BRANCH  27  28
HETATM   28  C   UNL     1      -7.722   5.854  71.907  1.00  0.00    -0.102 C  
BRANCH  28  29
HETATM   29  C   UNL     1      -9.165   6.063  71.471  1.00  0.00    -0.151 C  
HETATM   30  C   UNL     1      -9.952   4.771  71.595  1.00  0.00    -0.257 C  
ENDBRANCH  28  29
ENDBRANCH  27  28
ENDBRANCH  26  27
ENDBRANCH  24  26
ENDBRANCH  23  24
ENDBRANCH   4  23
TORSDOF 7
ENDMDL
MODEL       73
REMARK 921   NORMALIZED FREE ENERGY PREDICTED BY IDOCK:   -3.84 KCAL/MOL
REMARK 922        TOTAL FREE ENERGY PREDICTED BY IDOCK:   -5.49 KCAL/MOL
REMARK 923 INTER-LIGAND FREE ENERGY PREDICTED BY IDOCK:   -5.45 KCAL/MOL
REMARK 924 INTRA-LIGAND FREE ENERGY PREDICTED BY IDOCK:   -0.04 KCAL/MOL
REMARK 927      BINDING AFFINITY PREDICTED BY RF-SCORE:    0.00 PKD
ROOT
HETATM    1  C   UNL     1      -9.787   7.953  68.484  1.00  0.00    -0.186 C  
HETATM    2  C   UNL     1     -10.932   7.257  68.016  1.00  0.00    -0.081 C  
HETATM    3  C   UNL     1     -10.024   7.818  66.985  1.00  0.00    -0.314 C  
HETATM    4  C   UNL     1      -8.207   8.477  67.718  1.00  0.00    -0.122 C  
HETATM    5  C   UNL     1     -12.240  13.000  66.853  1.00  0.00    -0.233 C  
HETATM    6  O   UNL     1     -12.924  14.028  64.868  1.00  0.00    -0.707 OA 
HETATM    7  C   UNL     1      -8.544   7.292  67.126  1.00  0.00    -0.121 C  
HETATM    8  C   UNL     1     -12.004  13.477  65.475  1.00  0.00    -0.390 C  
HETATM    9  C   UNL     1     -11.313  12.311  67.541  1.00  0.00    -0.388 C  
HETATM   10  C   UNL     1      -8.498   8.179  65.503  1.00  0.00    -0.174 C  
HETATM   11  C   UNL     1      -8.001   5.880  67.280  1.00  0.00    -0.102 C  
HETATM   12  C   UNL     1     -10.669  13.234  64.819  1.00  0.00    -0.393 C  
HETATM   13  C   UNL     1     -11.602  11.749  68.917  1.00  0.00    -0.370 C  
HETATM   14  C   UNL     1      -8.928   9.817  65.659  1.00  0.00    -0.199 C  
HETATM   15  C   UNL     1      -9.555  12.809  65.761  1.00  0.00    -0.102 C  
HETATM   16  C   UNL     1     -10.057   9.759  68.325  1.00  0.00    -0.189 C  
HETATM   17  C   UNL     1      -9.978  10.409  66.782  1.00  0.00    -0.256 C  
HETATM   18  C   UNL     1     -11.338  10.235  69.045  1.00  0.00    -0.237 C  
HETATM   19  C   UNL     1      -9.951  11.954  66.971  1.00  0.00    -0.219 C  
ENDROOT
BRANCH   4  20
HETATM   20  C   UNL     1      -6.697   8.706  67.181  1.00  0.00    -0.063 C  
HETATM   21  O   UNL     1      -5.910   7.795  66.885  1.00  0.00    -0.040 OA 
HETATM   22  C   UNL     1      -6.132  10.105  67.129  1.00  0.00    -0.051 C  
ENDBRANCH   4  20
BRANCH   4  23
HETATM   23  O   UNL     1      -7.600   7.850  69.014  1.00  0.00    -0.095 OA 
BRANCH  23  24
HETATM   24  C   UNL     1      -6.851   8.542  69.905  1.00  0.00    -0.042 C  
HETATM   25  O   UNL     1      -7.147   9.619  70.389  1.00  0.00    -0.105 OA 
BRANCH  24  26
HETATM   26  C   UNL     1      -5.691   7.663  70.337  1.00  0.00    -0.023 C  
BRANCH  26  27
HETATM   27  C   UNL     1      -6.081   6.648  71.387  1.00  0.00    -0.037 C  
BRANCH  27  28
HETATM   28  C   UNL     1      -6.119   5.237  70.812  1.00  0.00    -0.022 C  
BRANCH  28  29
HETATM   29  C   UNL     1      -7.495   4.612  70.997  1.00  0.00    -0.067 C  
HETATM   30  C   UNL     1      -8.381   5.513  71.838  1.00  0.00    -0.119 C  
ENDBRANCH  28  29
ENDBRANCH  27  28
ENDBRANCH  26  27
ENDBRANCH  24  26
ENDBRANCH  23  24
ENDBRANCH   4  23
TORSDOF 7
ENDMDL
MODEL       74
REMARK 921   NORMALIZED FREE ENERGY PREDICTED BY IDOCK:   -3.83 KCAL/MOL
REMARK 922        TOTAL FREE ENERGY PREDICTED BY IDOCK:   -5.48 KCAL/MOL
REMARK 923 INTER-LIGAND FREE ENERGY PREDICTED BY IDOCK:   -5.40 KCAL/MOL
REMARK 924 INTRA-LIGAND FREE ENERGY PREDICTED BY IDOCK:   -0.09 KCAL/MOL
REMARK 927      BINDING AFFINITY PREDICTED BY RF-SCORE:    0.00 PKD
ROOT
HETATM    1  C   UNL     1      -8.715  11.050  67.961  1.00  0.00    -0.138 C  
HETATM    2  C   UNL     1      -9.310  10.958  69.246  1.00  0.00    -0.027 C  
HETATM    3  C   UNL     1     -10.138  11.554  68.169  1.00  0.00    -0.201 C  
HETATM    4  C   UNL     1      -9.364  11.312  66.267  1.00  0.00    -0.207 C  
HETATM    5  C   UNL     1      -8.213  16.831  68.653  1.00  0.00    -0.252 C  
HETATM    6  O   UNL     1      -9.632  18.672  68.902  1.00  0.00    -0.340 OA 
HETATM    7  C   UNL     1     -10.315  10.591  66.933  1.00  0.00    -0.293 C  
HETATM    8  C   UNL     1      -9.341  17.685  68.224  1.00  0.00    -0.290 C  
HETATM    9  C   UNL     1      -7.897  15.691  68.014  1.00  0.00    -0.135 C  
HETATM   10  C   UNL     1     -11.507  11.953  66.550  1.00  0.00    -0.381 C  
HETATM   11  C   UNL     1     -10.725   9.128  66.865  1.00  0.00    -0.149 C  
HETATM   12  C   UNL     1     -10.144  17.307  67.007  1.00  0.00    -0.303 C  
HETATM   13  C   UNL     1      -6.798  14.779  68.518  1.00  0.00    -0.107 C  
HETATM   14  C   UNL     1     -10.736  13.465  66.453  1.00  0.00    -0.289 C  
HETATM   15  C   UNL     1      -9.511  16.249  66.119  1.00  0.00    -0.373 C  
HETATM   16  C   UNL     1      -8.190  12.778  67.648  1.00  0.00    -0.175 C  
HETATM   17  C   UNL     1      -9.396  13.892  67.310  1.00  0.00    -0.231 C  
HETATM   18  C   UNL     1      -7.247  13.322  68.744  1.00  0.00    -0.088 C  
HETATM   19  C   UNL     1      -8.664  15.173  66.809  1.00  0.00    -0.307 C  
ENDROOT
BRANCH   4  20
HETATM   20  C   UNL     1      -9.901  11.252  64.741  1.00  0.00    -0.266 C  
HETATM   21  O   UNL     1     -10.384  10.244  64.206  1.00  0.00    -0.198 OA 
HETATM   22  C   UNL     1      -9.716  12.450  63.842  1.00  0.00    -0.011 C  
ENDBRANCH   4  20
BRANCH   4  23
HETATM   23  O   UNL     1      -8.435  10.100  65.938  1.00  0.00    -0.132 OA 
BRANCH  23  24
HETATM   24  C   UNL     1      -7.281  10.206  65.238  1.00  0.00    -0.141 C  
HETATM   25  O   UNL     1      -6.422  11.050  65.415  1.00  0.00     0.042 OA 
BRANCH  24  26
HETATM   26  C   UNL     1      -7.157   8.990  64.337  1.00  0.00    -0.090 C  
BRANCH  26  27
HETATM   27  C   UNL     1      -7.709   7.731  64.970  1.00  0.00    -0.107 C  
BRANCH  27  28
HETATM   28  C   UNL     1      -6.592   6.779  65.382  1.00  0.00    -0.050 C  
BRANCH  28  29
HETATM   29  C   UNL     1      -6.453   6.730  66.897  1.00  0.00    -0.043 C  
HETATM   30  C   UNL     1      -7.781   7.032  67.565  1.00  0.00    -0.111 C  
ENDBRANCH  28  29
ENDBRANCH  27  28
ENDBRANCH  26  27
ENDBRANCH  24  26
ENDBRANCH  23  24
ENDBRANCH   4  23
TORSDOF 7
ENDMDL
MODEL       75
REMARK 921   NORMALIZED FREE ENERGY PREDICTED BY IDOCK:   -3.82 KCAL/MOL
REMARK 922        TOTAL FREE ENERGY PREDICTED BY IDOCK:   -5.46 KCAL/MOL
REMARK 923 INTER-LIGAND FREE ENERGY PREDICTED BY IDOCK:   -5.46 KCAL/MOL
REMARK 924 INTRA-LIGAND FREE ENERGY PREDICTED BY IDOCK:   -0.00 KCAL/MOL
REMARK 927      BINDING AFFINITY PREDICTED BY RF-SCORE:    0.00 PKD
ROOT
HETATM    1  C   UNL     1      -9.803  10.352  66.106  1.00  0.00    -0.278 C  
HETATM    2  C   UNL     1     -11.119  10.502  65.596  1.00  0.00     0.369 C  
HETATM    3  C   UNL     1     -10.835  11.138  66.906  1.00  0.00    -0.333 C  
HETATM    4  C   UNL     1      -8.829  11.205  67.402  1.00  0.00    -0.139 C  
HETATM    5  C   UNL     1     -11.825   6.602  70.106  1.00  0.00    -0.347 C  
HETATM    6  O   UNL     1     -13.284   6.642  71.932  1.00  0.00    -0.258 OA 
HETATM    7  C   UNL     1      -9.634  12.157  66.840  1.00  0.00    -0.210 C  
HETATM    8  C   UNL     1     -12.295   7.147  71.397  1.00  0.00    -0.377 C  
HETATM    9  C   UNL     1     -10.810   7.159  69.422  1.00  0.00    -0.225 C  
HETATM   10  C   UNL     1     -10.322  12.461  68.531  1.00  0.00    -0.232 C  
HETATM   11  C   UNL     1      -9.350  13.298  65.876  1.00  0.00     0.059 C  
HETATM   12  C   UNL     1     -11.596   8.334  72.006  1.00  0.00    -0.403 C  
HETATM   13  C   UNL     1     -10.399   6.647  68.058  1.00  0.00    -0.226 C  
HETATM   14  C   UNL     1     -10.305  11.057  69.488  1.00  0.00    -0.077 C  
HETATM   15  C   UNL     1     -10.243   8.668  71.399  1.00  0.00    -0.324 C  
HETATM   16  C   UNL     1      -9.797   9.085  67.430  1.00  0.00    -0.244 C  
HETATM   17  C   UNL     1     -10.456   9.523  68.908  1.00  0.00    -0.235 C  
HETATM   18  C   UNL     1     -10.376   7.732  66.962  1.00  0.00    -0.405 C  
HETATM   19  C   UNL     1     -10.061   8.391  69.902  1.00  0.00    -0.195 C  
ENDROOT
BRANCH   4  20
HETATM   20  C   UNL     1      -7.839  12.098  68.321  1.00  0.00    -0.153 C  
HETATM   21  O   UNL     1      -7.532  13.276  68.084  1.00  0.00    -0.103 OA 
HETATM   22  C   UNL     1      -7.135  11.457  69.492  1.00  0.00    -0.020 C  
ENDBRANCH   4  20
BRANCH   4  23
HETATM   23  O   UNL     1      -7.737  11.230  66.285  1.00  0.00    -0.139 OA 
BRANCH  23  24
HETATM   24  C   UNL     1      -6.769  10.291  66.159  1.00  0.00    -0.110 C  
HETATM   25  O   UNL     1      -6.575   9.369  66.930  1.00  0.00    -0.066 OA 
BRANCH  24  26
HETATM   26  C   UNL     1      -6.102  10.472  64.807  1.00  0.00    -0.057 C  
BRANCH  26  27
HETATM   27  C   UNL     1      -6.642   9.529  63.754  1.00  0.00    -0.105 C  
BRANCH  27  28
HETATM   28  C   UNL     1      -6.902  10.252  62.438  1.00  0.00    -0.142 C  
BRANCH  28  29
HETATM   29  C   UNL     1      -8.261  10.938  62.456  1.00  0.00    -0.216 C  
HETATM   30  C   UNL     1      -9.378   9.910  62.421  1.00  0.00    -0.270 C  
ENDBRANCH  28  29
ENDBRANCH  27  28
ENDBRANCH  26  27
ENDBRANCH  24  26
ENDBRANCH  23  24
ENDBRANCH   4  23
TORSDOF 7
ENDMDL
MODEL       76
REMARK 921   NORMALIZED FREE ENERGY PREDICTED BY IDOCK:   -3.81 KCAL/MOL
REMARK 922        TOTAL FREE ENERGY PREDICTED BY IDOCK:   -5.45 KCAL/MOL
REMARK 923 INTER-LIGAND FREE ENERGY PREDICTED BY IDOCK:   -5.15 KCAL/MOL
REMARK 924 INTRA-LIGAND FREE ENERGY PREDICTED BY IDOCK:   -0.30 KCAL/MOL
REMARK 927      BINDING AFFINITY PREDICTED BY RF-SCORE:    0.00 PKD
ROOT
HETATM    1  C   UNL     1     -10.319   9.378  71.186  1.00  0.00    -0.377 C  
HETATM    2  C   UNL     1     -11.180  10.280  70.509  1.00  0.00    -0.408 C  
HETATM    3  C   UNL     1     -11.367   8.836  70.223  1.00  0.00    -0.162 C  
HETATM    4  C   UNL     1     -10.353   7.575  71.510  1.00  0.00    -0.196 C  
HETATM    5  C   UNL     1      -7.455   8.416  66.184  1.00  0.00    -0.088 C  
HETATM    6  O   UNL     1      -7.909   7.504  64.080  1.00  0.00    -0.129 OA 
HETATM    7  C   UNL     1     -11.655   7.991  71.522  1.00  0.00    -0.313 C  
HETATM    8  C   UNL     1      -7.939   7.335  65.300  1.00  0.00    -0.127 C  
HETATM    9  C   UNL     1      -7.542   8.338  67.523  1.00  0.00    -0.098 C  
HETATM   10  C   UNL     1     -11.977   6.767  70.171  1.00  0.00    -0.244 C  
HETATM   11  C   UNL     1     -12.649   8.213  72.652  1.00  0.00    -0.119 C  
HETATM   12  C   UNL     1      -8.509   6.077  65.903  1.00  0.00    -0.143 C  
HETATM   13  C   UNL     1      -7.127   9.491  68.413  1.00  0.00    -0.071 C  
HETATM   14  C   UNL     1     -10.611   6.531  69.187  1.00  0.00    -0.286 C  
HETATM   15  C   UNL     1      -8.227   5.884  67.383  1.00  0.00    -0.105 C  
HETATM   16  C   UNL     1      -9.015   8.792  70.039  1.00  0.00    -0.162 C  
HETATM   17  C   UNL     1      -9.471   7.678  68.873  1.00  0.00    -0.149 C  
HETATM   18  C   UNL     1      -8.222   9.951  69.396  1.00  0.00    -0.147 C  
HETATM   19  C   UNL     1      -8.147   7.148  68.249  1.00  0.00    -0.124 C  
ENDROOT
BRANCH   4  20
HETATM   20  C   UNL     1     -10.477   6.060  72.066  1.00  0.00    -0.209 C  
HETATM   21  O   UNL     1     -11.305   5.686  72.909  1.00  0.00    -0.289 OA 
HETATM   22  C   UNL     1      -9.463   5.027  71.636  1.00  0.00    -0.198 C  
ENDBRANCH   4  20
BRANCH   4  23
HETATM   23  O   UNL     1     -10.019   8.031  72.966  1.00  0.00    -0.278 OA 
BRANCH  23  24
HETATM   24  C   UNL     1      -8.909   7.646  73.639  1.00  0.00    -0.243 C  
HETATM   25  O   UNL     1      -8.883   6.852  74.562  1.00  0.00    -0.175 OA 
BRANCH  24  26
HETATM   26  C   UNL     1      -7.697   8.219  72.928  1.00  0.00    -0.171 C  
BRANCH  26  27
HETATM   27  C   UNL     1      -6.585   7.208  72.754  1.00  0.00    -0.063 C  
BRANCH  27  28
HETATM   28  C   UNL     1      -6.064   7.193  71.321  1.00  0.00    -0.036 C  
BRANCH  28  29
HETATM   29  C   UNL     1      -5.954   5.768  70.799  1.00  0.00    -0.029 C  
HETATM   30  C   UNL     1      -5.741   4.794  71.944  1.00  0.00    -0.012 C  
ENDBRANCH  28  29
ENDBRANCH  27  28
ENDBRANCH  26  27
ENDBRANCH  24  26
ENDBRANCH  23  24
ENDBRANCH   4  23
TORSDOF 7
ENDMDL
MODEL       77
REMARK 921   NORMALIZED FREE ENERGY PREDICTED BY IDOCK:   -3.78 KCAL/MOL
REMARK 922        TOTAL FREE ENERGY PREDICTED BY IDOCK:   -5.41 KCAL/MOL
REMARK 923 INTER-LIGAND FREE ENERGY PREDICTED BY IDOCK:   -6.54 KCAL/MOL
REMARK 924 INTRA-LIGAND FREE ENERGY PREDICTED BY IDOCK:    1.13 KCAL/MOL
REMARK 927      BINDING AFFINITY PREDICTED BY RF-SCORE:    0.00 PKD
ROOT
HETATM    1  C   UNL     1     -11.186   7.160  71.343  1.00  0.00    -0.278 C  
HETATM    2  C   UNL     1     -12.515   6.765  71.038  1.00  0.00    -0.318 C  
HETATM    3  C   UNL     1     -11.509   6.614  69.957  1.00  0.00    -0.434 C  
HETATM    4  C   UNL     1      -9.551   6.846  70.579  1.00  0.00    -0.169 C  
HETATM    5  C   UNL     1     -11.854  11.871  67.951  1.00  0.00    -0.308 C  
HETATM    6  O   UNL     1     -12.223  12.335  65.689  1.00  0.00    -0.605 OA 
HETATM    7  C   UNL     1     -10.289   5.711  70.384  1.00  0.00    -0.330 C  
HETATM    8  C   UNL     1     -11.521  11.751  66.516  1.00  0.00    -0.255 C  
HETATM    9  C   UNL     1     -11.189  11.190  68.899  1.00  0.00    -0.317 C  
HETATM   10  C   UNL     1     -10.006   5.933  68.568  1.00  0.00    -0.185 C  
HETATM   11  C   UNL     1     -10.248   4.338  71.036  1.00  0.00    -0.070 C  
HETATM   12  C   UNL     1     -10.370  10.877  66.088  1.00  0.00    -0.305 C  
HETATM   13  C   UNL     1     -11.601  11.252  70.355  1.00  0.00    -0.319 C  
HETATM   14  C   UNL     1      -9.853   7.572  68.142  1.00  0.00    -0.179 C  
HETATM   15  C   UNL     1      -9.431  10.453  67.204  1.00  0.00    -0.183 C  
HETATM   16  C   UNL     1     -10.838   8.789  70.578  1.00  0.00    -0.268 C  
HETATM   17  C   UNL     1     -10.601   8.817  68.918  1.00  0.00    -0.178 C  
HETATM   18  C   UNL     1     -11.857   9.873  70.994  1.00  0.00    -0.463 C  
HETATM   19  C   UNL     1     -10.048  10.235  68.591  1.00  0.00    -0.187 C  
ENDROOT
BRANCH   4  20
HETATM   20  C   UNL     1      -8.073   6.371  70.121  1.00  0.00    -0.120 C  
HETATM   21  O   UNL     1      -7.393   6.930  69.248  1.00  0.00    -0.087 OA 
HETATM   22  C   UNL     1      -7.492   5.100  70.693  1.00  0.00    -0.070 C  
ENDBRANCH   4  20
BRANCH   4  23
HETATM   23  O   UNL     1      -9.145   6.529  72.053  1.00  0.00    -0.141 OA 
BRANCH  23  24
HETATM   24  C   UNL     1      -8.768   7.472  72.949  1.00  0.00    -0.137 C  
HETATM   25  O   UNL     1      -8.845   7.366  74.159  1.00  0.00    -0.205 OA 
BRANCH  24  26
HETATM   26  C   UNL     1      -8.063   8.588  72.199  1.00  0.00    -0.162 C  
BRANCH  26  27
HETATM   27  C   UNL     1      -6.603   8.716  72.572  1.00  0.00    -0.056 C  
BRANCH  27  28
HETATM   28  C   UNL     1      -5.811   9.437  71.488  1.00  0.00    -0.068 C  
BRANCH  28  29
HETATM   29  C   UNL     1      -6.743  10.163  70.528  1.00  0.00    -0.100 C  
HETATM   30  C   UNL     1      -5.976  10.675  69.323  1.00  0.00    -0.042 C  
ENDBRANCH  28  29
ENDBRANCH  27  28
ENDBRANCH  26  27
ENDBRANCH  24  26
ENDBRANCH  23  24
ENDBRANCH   4  23
TORSDOF 7
ENDMDL
MODEL       78
REMARK 921   NORMALIZED FREE ENERGY PREDICTED BY IDOCK:   -3.76 KCAL/MOL
REMARK 922        TOTAL FREE ENERGY PREDICTED BY IDOCK:   -5.39 KCAL/MOL
REMARK 923 INTER-LIGAND FREE ENERGY PREDICTED BY IDOCK:   -5.53 KCAL/MOL
REMARK 924 INTRA-LIGAND FREE ENERGY PREDICTED BY IDOCK:    0.14 KCAL/MOL
REMARK 927      BINDING AFFINITY PREDICTED BY RF-SCORE:    0.00 PKD
ROOT
HETATM    1  C   UNL     1      -8.056  10.641  66.055  1.00  0.00    -0.159 C  
HETATM    2  C   UNL     1      -7.728   9.850  64.922  1.00  0.00    -0.134 C  
HETATM    3  C   UNL     1      -8.888   9.406  65.734  1.00  0.00    -0.204 C  
HETATM    4  C   UNL     1      -9.537  10.792  67.124  1.00  0.00    -0.161 C  
HETATM    5  C   UNL     1      -5.976   6.439  69.543  1.00  0.00    -0.021 C  
HETATM    6  O   UNL     1      -6.485   4.219  70.068  1.00  0.00    -0.030 OA 
HETATM    7  C   UNL     1      -9.999  10.517  65.867  1.00  0.00    -0.313 C  
HETATM    8  C   UNL     1      -6.903   5.375  69.981  1.00  0.00    -0.059 C  
HETATM    9  C   UNL     1      -6.385   7.703  69.339  1.00  0.00    -0.035 C  
HETATM   10  C   UNL     1     -10.835   9.029  66.584  1.00  0.00     0.151 C  
HETATM   11  C   UNL     1     -10.673  11.380  64.812  1.00  0.00    -0.362 C  
HETATM   12  C   UNL     1      -8.346   5.708  70.259  1.00  0.00    -0.112 C  
HETATM   13  C   UNL     1      -5.446   8.763  68.802  1.00  0.00    -0.040 C  
HETATM   14  C   UNL     1      -9.981   8.397  67.912  1.00  0.00    -0.228 C  
HETATM   15  C   UNL     1      -8.653   7.191  70.389  1.00  0.00    -0.142 C  
HETATM   16  C   UNL     1      -7.474   9.806  67.579  1.00  0.00    -0.091 C  
HETATM   17  C   UNL     1      -8.347   8.473  68.099  1.00  0.00    -0.127 C  
HETATM   18  C   UNL     1      -5.964   9.480  67.539  1.00  0.00    -0.052 C  
HETATM   19  C   UNL     1      -7.824   8.154  69.530  1.00  0.00    -0.104 C  
ENDROOT
BRANCH   4  20
HETATM   20  C   UNL     1     -10.900  11.169  67.911  1.00  0.00    -0.235 C  
HETATM   21  O   UNL     1     -11.873  11.741  67.398  1.00  0.00    -0.590 OA 
HETATM   22  C   UNL     1     -10.990  10.924  69.398  1.00  0.00    -0.304 C  
ENDBRANCH   4  20
BRANCH   4  23
HETATM   23  O   UNL     1      -9.307  12.319  66.886  1.00  0.00    -0.197 OA 
BRANCH  23  24
HETATM   24  C   UNL     1      -8.794  13.156  67.819  1.00  0.00    -0.191 C  
HETATM   25  O   UNL     1      -7.820  12.928  68.512  1.00  0.00    -0.134 OA 
BRANCH  24  26
HETATM   26  C   UNL     1      -9.517  14.487  67.714  1.00  0.00    -0.210 C  
BRANCH  26  27
HETATM   27  C   UNL     1     -10.175  14.903  69.011  1.00  0.00    -0.243 C  
BRANCH  27  28
HETATM   28  C   UNL     1     -11.681  15.068  68.844  1.00  0.00    -0.354 C  
BRANCH  28  29
HETATM   29  C   UNL     1     -12.415  14.668  70.115  1.00  0.00    -0.369 C  
HETATM   30  C   UNL     1     -12.342  15.779  71.147  1.00  0.00    -0.480 C  
ENDBRANCH  28  29
ENDBRANCH  27  28
ENDBRANCH  26  27
ENDBRANCH  24  26
ENDBRANCH  23  24
ENDBRANCH   4  23
TORSDOF 7
ENDMDL
MODEL       79
REMARK 921   NORMALIZED FREE ENERGY PREDICTED BY IDOCK:   -3.75 KCAL/MOL
REMARK 922        TOTAL FREE ENERGY PREDICTED BY IDOCK:   -5.37 KCAL/MOL
REMARK 923 INTER-LIGAND FREE ENERGY PREDICTED BY IDOCK:   -5.04 KCAL/MOL
REMARK 924 INTRA-LIGAND FREE ENERGY PREDICTED BY IDOCK:   -0.33 KCAL/MOL
REMARK 927      BINDING AFFINITY PREDICTED BY RF-SCORE:    0.00 PKD
ROOT
HETATM    1  C   UNL     1      -9.571   6.108  68.039  1.00  0.00    -0.115 C  
HETATM    2  C   UNL     1     -10.703   5.580  67.365  1.00  0.00    -0.224 C  
HETATM    3  C   UNL     1     -10.963   6.345  68.610  1.00  0.00    -0.404 C  
HETATM    4  C   UNL     1      -9.330   7.394  69.322  1.00  0.00    -0.154 C  
HETATM    5  C   UNL     1     -10.223   2.073  72.215  1.00  0.00    -0.226 C  
HETATM    6  O   UNL     1     -11.805   1.508  73.840  1.00  0.00    -0.166 OA 
HETATM    7  C   UNL     1     -10.384   7.810  68.557  1.00  0.00    -0.226 C  
HETATM    8  C   UNL     1     -11.094   2.395  73.365  1.00  0.00    -0.188 C  
HETATM    9  C   UNL     1      -9.491   3.010  71.589  1.00  0.00    -0.211 C  
HETATM   10  C   UNL     1     -11.397   7.838  70.105  1.00  0.00    -0.121 C  
HETATM   11  C   UNL     1     -10.515   8.892  67.496  1.00  0.00    -0.337 C  
HETATM   12  C   UNL     1     -11.139   3.804  73.897  1.00  0.00    -0.231 C  
HETATM   13  C   UNL     1      -8.675   2.685  70.356  1.00  0.00    -0.131 C  
HETATM   14  C   UNL     1     -10.881   6.669  71.226  1.00  0.00    -0.279 C  
HETATM   15  C   UNL     1     -10.021   4.712  73.414  1.00  0.00    -0.183 C  
HETATM   16  C   UNL     1      -9.187   5.074  69.502  1.00  0.00    -0.167 C  
HETATM   17  C   UNL     1     -10.203   5.222  70.828  1.00  0.00    -0.317 C  
HETATM   18  C   UNL     1      -8.984   3.585  69.143  1.00  0.00    -0.179 C  
HETATM   19  C   UNL     1      -9.492   4.475  71.994  1.00  0.00    -0.196 C  
ENDROOT
BRANCH   4  20
HETATM   20  C   UNL     1      -9.035   8.700  70.230  1.00  0.00    -0.154 C  
HETATM   21  O   UNL     1      -9.210   9.870  69.857  1.00  0.00    -0.219 OA 
HETATM   22  C   UNL     1      -8.396   8.532  71.588  1.00  0.00    -0.218 C  
ENDBRANCH   4  20
BRANCH   4  23
HETATM   23  O   UNL     1      -8.213   7.878  68.345  1.00  0.00    -0.121 OA 
BRANCH  23  24
HETATM   24  C   UNL     1      -6.899   7.931  68.671  1.00  0.00    -0.063 C  
HETATM   25  O   UNL     1      -6.250   8.950  68.820  1.00  0.00    -0.044 OA 
BRANCH  24  26
HETATM   26  C   UNL     1      -6.433   6.525  69.004  1.00  0.00    -0.043 C  
BRANCH  26  27
HETATM   27  C   UNL     1      -5.588   6.467  70.257  1.00  0.00    -0.018 C  
BRANCH  27  28
HETATM   28  C   UNL     1      -5.981   5.289  71.140  1.00  0.00    -0.021 C  
BRANCH  28  29
HETATM   29  C   UNL     1      -6.267   5.748  72.563  1.00  0.00    -0.048 C  
HETATM   30  C   UNL     1      -5.257   6.794  72.999  1.00  0.00    -0.037 C  
ENDBRANCH  28  29
ENDBRANCH  27  28
ENDBRANCH  26  27
ENDBRANCH  24  26
ENDBRANCH  23  24
ENDBRANCH   4  23
TORSDOF 7
ENDMDL
MODEL       80
REMARK 921   NORMALIZED FREE ENERGY PREDICTED BY IDOCK:   -3.72 KCAL/MOL
REMARK 922        TOTAL FREE ENERGY PREDICTED BY IDOCK:   -5.33 KCAL/MOL
REMARK 923 INTER-LIGAND FREE ENERGY PREDICTED BY IDOCK:   -5.10 KCAL/MOL
REMARK 924 INTRA-LIGAND FREE ENERGY PREDICTED BY IDOCK:   -0.23 KCAL/MOL
REMARK 927      BINDING AFFINITY PREDICTED BY RF-SCORE:    0.00 PKD
ROOT
HETATM    1  C   UNL     1      -9.223   8.822  69.937  1.00  0.00    -0.160 C  
HETATM    2  C   UNL     1      -9.769   9.407  68.764  1.00  0.00    -0.161 C  
HETATM    3  C   UNL     1     -10.505   8.255  69.342  1.00  0.00    -0.224 C  
HETATM    4  C   UNL     1      -9.877   7.703  71.232  1.00  0.00    -0.171 C  
HETATM    5  C   UNL     1      -7.542   4.190  66.796  1.00  0.00    -0.088 C  
HETATM    6  O   UNL     1      -8.551   2.479  65.564  1.00  0.00    -0.102 OA 
HETATM    7  C   UNL     1     -10.924   8.491  70.843  1.00  0.00    -0.292 C  
HETATM    8  C   UNL     1      -8.492   3.069  66.644  1.00  0.00    -0.103 C  
HETATM    9  C   UNL     1      -7.489   4.936  67.913  1.00  0.00    -0.078 C  
HETATM   10  C   UNL     1     -11.833   6.938  70.416  1.00  0.00    -0.351 C  
HETATM   11  C   UNL     1     -11.622   9.668  71.507  1.00  0.00    -0.451 C  
HETATM   12  C   UNL     1      -9.406   2.704  67.786  1.00  0.00    -0.229 C  
HETATM   13  C   UNL     1      -6.574   6.138  68.020  1.00  0.00    -0.062 C  
HETATM   14  C   UNL     1     -10.780   5.698  69.923  1.00  0.00    -0.399 C  
HETATM   15  C   UNL     1      -9.037   3.312  69.128  1.00  0.00    -0.207 C  
HETATM   16  C   UNL     1      -8.375   7.256  69.506  1.00  0.00    -0.133 C  
HETATM   17  C   UNL     1      -9.346   5.937  69.148  1.00  0.00    -0.137 C  
HETATM   18  C   UNL     1      -7.296   7.442  68.416  1.00  0.00    -0.103 C  
HETATM   19  C   UNL     1      -8.394   4.705  69.111  1.00  0.00    -0.085 C  
ENDROOT
BRANCH   4  20
HETATM   20  C   UNL     1     -10.479   6.961  72.538  1.00  0.00    -0.214 C  
HETATM   21  O   UNL     1     -11.326   7.452  73.298  1.00  0.00    -0.264 OA 
HETATM   22  C   UNL     1      -9.916   5.624  72.957  1.00  0.00    -0.191 C  
ENDBRANCH   4  20
BRANCH   4  23
HETATM   23  O   UNL     1      -9.225   8.753  72.188  1.00  0.00    -0.305 OA 
BRANCH  23  24
HETATM   24  C   UNL     1      -8.232   8.460  73.061  1.00  0.00    -0.113 C  
HETATM   25  O   UNL     1      -8.331   8.477  74.274  1.00  0.00    -0.264 OA 
BRANCH  24  26
HETATM   26  C   UNL     1      -7.047   7.926  72.276  1.00  0.00    -0.088 C  
BRANCH  26  27
HETATM   27  C   UNL     1      -5.862   7.592  73.154  1.00  0.00    -0.048 C  
BRANCH  27  28
HETATM   28  C   UNL     1      -5.350   6.181  72.888  1.00  0.00    -0.032 C  
BRANCH  28  29
HETATM   29  C   UNL     1      -6.275   5.441  71.932  1.00  0.00    -0.034 C  
HETATM   30  C   UNL     1      -5.597   4.195  71.392  1.00  0.00    -0.008 C  
ENDBRANCH  28  29
ENDBRANCH  27  28
ENDBRANCH  26  27
ENDBRANCH  24  26
ENDBRANCH  23  24
ENDBRANCH   4  23
TORSDOF 7
ENDMDL
MODEL       81
REMARK 921   NORMALIZED FREE ENERGY PREDICTED BY IDOCK:   -3.72 KCAL/MOL
REMARK 922        TOTAL FREE ENERGY PREDICTED BY IDOCK:   -5.33 KCAL/MOL
REMARK 923 INTER-LIGAND FREE ENERGY PREDICTED BY IDOCK:   -5.17 KCAL/MOL
REMARK 924 INTRA-LIGAND FREE ENERGY PREDICTED BY IDOCK:   -0.16 KCAL/MOL
REMARK 927      BINDING AFFINITY PREDICTED BY RF-SCORE:    0.00 PKD
ROOT
HETATM    1  C   UNL     1      -7.468   8.409  68.253  1.00  0.00    -0.096 C  
HETATM    2  C   UNL     1      -6.924   9.208  67.213  1.00  0.00    -0.078 C  
HETATM    3  C   UNL     1      -8.365   8.869  67.111  1.00  0.00    -0.103 C  
HETATM    4  C   UNL     1      -9.168   8.039  68.826  1.00  0.00    -0.143 C  
HETATM    5  C   UNL     1      -7.725   3.871  64.581  1.00  0.00    -0.081 C  
HETATM    6  O   UNL     1      -8.842   3.306  62.607  1.00  0.00    -0.087 OA 
HETATM    7  C   UNL     1      -9.189   9.329  68.374  1.00  0.00    -0.132 C  
HETATM    8  C   UNL     1      -8.949   3.699  63.770  1.00  0.00    -0.098 C  
HETATM    9  C   UNL     1      -7.757   4.381  65.824  1.00  0.00    -0.090 C  
HETATM   10  C   UNL     1     -10.520   8.812  67.196  1.00  0.00    -0.354 C  
HETATM   11  C   UNL     1      -9.238  10.666  69.096  1.00  0.00    -0.162 C  
HETATM   12  C   UNL     1     -10.290   4.057  64.356  1.00  0.00    -0.216 C  
HETATM   13  C   UNL     1      -6.488   4.638  66.608  1.00  0.00    -0.041 C  
HETATM   14  C   UNL     1     -10.359   7.186  66.726  1.00  0.00    -0.297 C  
HETATM   15  C   UNL     1     -10.305   4.252  65.863  1.00  0.00    -0.152 C  
HETATM   16  C   UNL     1      -7.666   6.685  67.666  1.00  0.00    -0.107 C  
HETATM   17  C   UNL     1      -8.927   6.382  66.603  1.00  0.00    -0.145 C  
HETATM   18  C   UNL     1      -6.350   6.084  67.125  1.00  0.00    -0.041 C  
HETATM   19  C   UNL     1      -9.039   4.832  66.505  1.00  0.00    -0.121 C  
ENDROOT
BRANCH   4  20
HETATM   20  C   UNL     1     -10.613   7.908  69.545  1.00  0.00    -0.219 C  
HETATM   21  O   UNL     1     -11.217   8.847  70.085  1.00  0.00    -0.238 OA 
HETATM   22  C   UNL     1     -11.251   6.547  69.686  1.00  0.00    -0.446 C  
ENDBRANCH   4  20
BRANCH   4  23
HETATM   23  O   UNL     1      -8.554   8.362  70.225  1.00  0.00    -0.121 OA 
BRANCH  23  24
HETATM   24  C   UNL     1      -8.359   7.436  71.194  1.00  0.00    -0.114 C  
HETATM   25  O   UNL     1      -7.914   6.317  71.020  1.00  0.00    -0.112 OA 
BRANCH  24  26
HETATM   26  C   UNL     1      -8.605   8.094  72.540  1.00  0.00    -0.255 C  
BRANCH  26  27
HETATM   27  C   UNL     1      -9.213   7.149  73.553  1.00  0.00    -0.220 C  
BRANCH  27  28
HETATM   28  C   UNL     1     -10.721   7.032  73.371  1.00  0.00    -0.379 C  
BRANCH  28  29
HETATM   29  C   UNL     1     -11.127   5.586  73.120  1.00  0.00    -0.337 C  
HETATM   30  C   UNL     1      -9.998   4.643  73.493  1.00  0.00    -0.181 C  
ENDBRANCH  28  29
ENDBRANCH  27  28
ENDBRANCH  26  27
ENDBRANCH  24  26
ENDBRANCH  23  24
ENDBRANCH   4  23
TORSDOF 7
ENDMDL
MODEL       82
REMARK 921   NORMALIZED FREE ENERGY PREDICTED BY IDOCK:   -3.72 KCAL/MOL
REMARK 922        TOTAL FREE ENERGY PREDICTED BY IDOCK:   -5.32 KCAL/MOL
REMARK 923 INTER-LIGAND FREE ENERGY PREDICTED BY IDOCK:   -6.23 KCAL/MOL
REMARK 924 INTRA-LIGAND FREE ENERGY PREDICTED BY IDOCK:    0.91 KCAL/MOL
REMARK 927      BINDING AFFINITY PREDICTED BY RF-SCORE:    0.00 PKD
ROOT
HETATM    1  C   UNL     1     -10.145  13.060  68.770  1.00  0.00    -0.066 C  
HETATM    2  C   UNL     1     -11.129  13.287  69.768  1.00  0.00     0.083 C  
HETATM    3  C   UNL     1     -11.492  13.652  68.377  1.00  0.00    -0.346 C  
HETATM    4  C   UNL     1     -10.179  12.952  66.942  1.00  0.00    -0.242 C  
HETATM    5  C   UNL     1      -9.242  18.821  68.405  1.00  0.00    -0.376 C  
HETATM    6  O   UNL     1     -10.448  20.724  67.780  1.00  0.00    -0.011 OA 
HETATM    7  C   UNL     1     -11.369  12.439  67.377  1.00  0.00    -0.381 C  
HETATM    8  C   UNL     1     -10.068  19.598  67.456  1.00  0.00    -0.409 C  
HETATM    9  C   UNL     1      -8.869  17.555  68.157  1.00  0.00    -0.263 C  
HETATM   10  C   UNL     1     -12.211  13.722  66.344  1.00  0.00    -0.480 C  
HETATM   11  C   UNL     1     -11.898  11.016  67.471  1.00  0.00     0.180 C  
HETATM   12  C   UNL     1     -10.473  18.982  66.142  1.00  0.00    -0.541 C  
HETATM   13  C   UNL     1      -8.101  16.741  69.178  1.00  0.00    -0.109 C  
HETATM   14  C   UNL     1     -11.285  15.142  66.210  1.00  0.00    -0.273 C  
HETATM   15  C   UNL     1      -9.712  17.725  65.755  1.00  0.00     0.122 C  
HETATM   16  C   UNL     1      -9.355  14.648  68.312  1.00  0.00    -0.199 C  
HETATM   17  C   UNL     1     -10.253  15.701  67.366  1.00  0.00    -0.264 C  
HETATM   18  C   UNL     1      -8.760  15.392  69.528  1.00  0.00    -0.210 C  
HETATM   19  C   UNL     1      -9.260  16.804  66.895  1.00  0.00    -0.249 C  
ENDROOT
BRANCH   4  20
HETATM   20  C   UNL     1     -10.198  12.565  65.370  1.00  0.00    -0.283 C  
HETATM   21  O   UNL     1      -9.934  13.352  64.449  1.00  0.00    -0.258 OA 
HETATM   22  C   UNL     1     -10.672  11.195  64.949  1.00  0.00    -0.318 C  
ENDBRANCH   4  20
BRANCH   4  23
HETATM   23  O   UNL     1      -9.337  11.662  67.201  1.00  0.00    -0.170 OA 
BRANCH  23  24
HETATM   24  C   UNL     1      -7.991  11.603  67.065  1.00  0.00    -0.164 C  
HETATM   25  O   UNL     1      -7.247  12.563  66.982  1.00  0.00    -0.098 OA 
BRANCH  24  26
HETATM   26  C   UNL     1      -7.558  10.157  67.228  1.00  0.00    -0.095 C  
BRANCH  26  27
HETATM   27  C   UNL     1      -7.188   9.811  68.654  1.00  0.00    -0.073 C  
BRANCH  27  28
HETATM   28  C   UNL     1      -8.204  10.369  69.644  1.00  0.00    -0.099 C  
BRANCH  28  29
HETATM   29  C   UNL     1      -8.855   9.248  70.442  1.00  0.00    -0.271 C  
HETATM   30  C   UNL     1     -10.331   9.529  70.652  1.00  0.00    -0.369 C  
ENDBRANCH  28  29
ENDBRANCH  27  28
ENDBRANCH  26  27
ENDBRANCH  24  26
ENDBRANCH  23  24
ENDBRANCH   4  23
TORSDOF 7
ENDMDL
MODEL       83
REMARK 921   NORMALIZED FREE ENERGY PREDICTED BY IDOCK:   -3.71 KCAL/MOL
REMARK 922        TOTAL FREE ENERGY PREDICTED BY IDOCK:   -5.31 KCAL/MOL
REMARK 923 INTER-LIGAND FREE ENERGY PREDICTED BY IDOCK:   -6.47 KCAL/MOL
REMARK 924 INTRA-LIGAND FREE ENERGY PREDICTED BY IDOCK:    1.17 KCAL/MOL
REMARK 927      BINDING AFFINITY PREDICTED BY RF-SCORE:    0.00 PKD
ROOT
HETATM    1  C   UNL     1      -9.164  13.722  68.044  1.00  0.00    -0.195 C  
HETATM    2  C   UNL     1      -7.885  14.275  67.771  1.00  0.00    -0.173 C  
HETATM    3  C   UNL     1      -8.617  13.685  66.622  1.00  0.00     0.053 C  
HETATM    4  C   UNL     1     -10.601  13.250  67.010  1.00  0.00    -0.259 C  
HETATM    5  C   UNL     1      -6.941   8.358  67.392  1.00  0.00    -0.071 C  
HETATM    6  O   UNL     1      -5.977   7.081  65.687  1.00  0.00    -0.034 OA 
HETATM    7  C   UNL     1     -10.036  14.338  66.406  1.00  0.00    -0.302 C  
HETATM    8  C   UNL     1      -6.941   7.763  66.039  1.00  0.00    -0.061 C  
HETATM    9  C   UNL     1      -7.915   9.184  67.809  1.00  0.00    -0.101 C  
HETATM   10  C   UNL     1      -9.840  13.297  64.888  1.00  0.00    -0.044 C  
HETATM   11  C   UNL     1     -10.456  15.797  66.324  1.00  0.00    -0.315 C  
HETATM   12  C   UNL     1      -8.086   8.043  65.100  1.00  0.00    -0.143 C  
HETATM   13  C   UNL     1      -7.856   9.859  69.163  1.00  0.00    -0.105 C  
HETATM   14  C   UNL     1      -9.615  11.655  65.268  1.00  0.00    -0.220 C  
HETATM   15  C   UNL     1      -9.320   8.648  65.748  1.00  0.00    -0.227 C  
HETATM   16  C   UNL     1      -9.046  11.894  68.097  1.00  0.00    -0.190 C  
HETATM   17  C   UNL     1      -8.876  11.099  66.631  1.00  0.00    -0.168 C  
HETATM   18  C   UNL     1      -7.990  11.394  69.106  1.00  0.00     0.049 C  
HETATM   19  C   UNL     1      -9.093   9.588  66.938  1.00  0.00    -0.158 C  
ENDROOT
BRANCH   4  20
HETATM   20  C   UNL     1     -11.986  13.088  66.190  1.00  0.00    -0.427 C  
HETATM   21  O   UNL     1     -12.363  12.038  65.647  1.00  0.00    -0.470 OA 
HETATM   22  C   UNL     1     -12.853  14.300  65.950  1.00  0.00    -0.214 C  
ENDBRANCH   4  20
BRANCH   4  23
HETATM   23  O   UNL     1     -11.391  14.052  68.093  1.00  0.00    -0.264 OA 
BRANCH  23  24
HETATM   24  C   UNL     1     -11.669  13.574  69.329  1.00  0.00    -0.330 C  
HETATM   25  O   UNL     1     -11.681  14.231  70.353  1.00  0.00    -0.286 OA 
BRANCH  24  26
HETATM   26  C   UNL     1     -12.148  12.140  69.190  1.00  0.00    -0.224 C  
BRANCH  26  27
HETATM   27  C   UNL     1     -12.076  11.368  70.488  1.00  0.00    -0.487 C  
BRANCH  27  28
HETATM   28  C   UNL     1     -11.326  10.052  70.314  1.00  0.00    -0.376 C  
BRANCH  28  29
HETATM   29  C   UNL     1     -11.332   9.249  71.607  1.00  0.00    -0.467 C  
HETATM   30  C   UNL     1     -10.931   7.809  71.343  1.00  0.00    -0.264 C  
ENDBRANCH  28  29
ENDBRANCH  27  28
ENDBRANCH  26  27
ENDBRANCH  24  26
ENDBRANCH  23  24
ENDBRANCH   4  23
TORSDOF 7
ENDMDL
MODEL       84
REMARK 921   NORMALIZED FREE ENERGY PREDICTED BY IDOCK:   -3.70 KCAL/MOL
REMARK 922        TOTAL FREE ENERGY PREDICTED BY IDOCK:   -5.30 KCAL/MOL
REMARK 923 INTER-LIGAND FREE ENERGY PREDICTED BY IDOCK:   -5.11 KCAL/MOL
REMARK 924 INTRA-LIGAND FREE ENERGY PREDICTED BY IDOCK:   -0.19 KCAL/MOL
REMARK 927      BINDING AFFINITY PREDICTED BY RF-SCORE:    0.00 PKD
ROOT
HETATM    1  C   UNL     1      -9.840  10.677  65.983  1.00  0.00    -0.280 C  
HETATM    2  C   UNL     1     -11.147  10.739  65.432  1.00  0.00     0.178 C  
HETATM    3  C   UNL     1     -10.949  11.379  66.756  1.00  0.00    -0.347 C  
HETATM    4  C   UNL     1      -8.969  11.583  67.316  1.00  0.00    -0.162 C  
HETATM    5  C   UNL     1     -11.715   6.753  69.885  1.00  0.00    -0.279 C  
HETATM    6  O   UNL     1     -13.229   6.671  71.664  1.00  0.00    -0.245 OA 
HETATM    7  C   UNL     1      -9.821  12.481  66.737  1.00  0.00    -0.232 C  
HETATM    8  C   UNL     1     -12.262   7.249  71.166  1.00  0.00    -0.340 C  
HETATM    9  C   UNL     1     -10.721   7.386  69.239  1.00  0.00    -0.197 C  
HETATM   10  C   UNL     1     -10.582  12.719  68.407  1.00  0.00    -0.262 C  
HETATM   11  C   UNL     1      -9.590  13.650  65.791  1.00  0.00    -0.086 C  
HETATM   12  C   UNL     1     -11.668   8.476  71.806  1.00  0.00    -0.392 C  
HETATM   13  C   UNL     1     -10.233   6.919  67.884  1.00  0.00    -0.212 C  
HETATM   14  C   UNL     1     -10.495  11.309  69.353  1.00  0.00    -0.089 C  
HETATM   15  C   UNL     1     -10.324   8.911  71.245  1.00  0.00    -0.355 C  
HETATM   16  C   UNL     1      -9.786   9.399  67.295  1.00  0.00    -0.215 C  
HETATM   17  C   UNL     1     -10.519   9.774  68.755  1.00  0.00    -0.240 C  
HETATM   18  C   UNL     1     -10.253   8.014  66.798  1.00  0.00    -0.367 C  
HETATM   19  C   UNL     1     -10.077   8.663  69.752  1.00  0.00    -0.199 C  
ENDROOT
BRANCH   4  20
HETATM   20  C   UNL     1      -8.074  12.533  68.273  1.00  0.00    -0.165 C  
HETATM   21  O   UNL     1      -7.940  13.757  68.121  1.00  0.00    -0.128 OA 
HETATM   22  C   UNL     1      -7.243  11.912  69.368  1.00  0.00     0.114 C  
ENDBRANCH   4  20
BRANCH   4  23
HETATM   23  O   UNL     1      -7.848  11.696  66.234  1.00  0.00    -0.039 OA 
BRANCH  23  24
HETATM   24  C   UNL     1      -6.591  11.220  66.401  1.00  0.00    -0.069 C  
HETATM   25  O   UNL     1      -5.612  11.891  66.670  1.00  0.00    -0.261 OA 
BRANCH  24  26
HETATM   26  C   UNL     1      -6.650   9.703  66.388  1.00  0.00    -0.071 C  
BRANCH  26  27
HETATM   27  C   UNL     1      -5.942   9.077  67.570  1.00  0.00    -0.050 C  
BRANCH  27  28
HETATM   28  C   UNL     1      -6.260   7.591  67.686  1.00  0.00    -0.048 C  
BRANCH  28  29
HETATM   29  C   UNL     1      -6.464   7.192  69.141  1.00  0.00    -0.036 C  
HETATM   30  C   UNL     1      -6.473   8.419  70.034  1.00  0.00    -0.038 C  
ENDBRANCH  28  29
ENDBRANCH  27  28
ENDBRANCH  26  27
ENDBRANCH  24  26
ENDBRANCH  23  24
ENDBRANCH   4  23
TORSDOF 7
ENDMDL
MODEL       85
REMARK 921   NORMALIZED FREE ENERGY PREDICTED BY IDOCK:   -3.60 KCAL/MOL
REMARK 922        TOTAL FREE ENERGY PREDICTED BY IDOCK:   -5.16 KCAL/MOL
REMARK 923 INTER-LIGAND FREE ENERGY PREDICTED BY IDOCK:   -5.23 KCAL/MOL
REMARK 924 INTRA-LIGAND FREE ENERGY PREDICTED BY IDOCK:    0.07 KCAL/MOL
REMARK 927      BINDING AFFINITY PREDICTED BY RF-SCORE:    0.00 PKD
ROOT
HETATM    1  C   UNL     1     -10.237   7.646  66.847  1.00  0.00    -0.365 C  
HETATM    2  C   UNL     1     -11.221   6.960  67.605  1.00  0.00    -0.153 C  
HETATM    3  C   UNL     1     -10.197   7.715  68.369  1.00  0.00    -0.226 C  
HETATM    4  C   UNL     1      -9.040   8.984  67.217  1.00  0.00    -0.133 C  
HETATM    5  C   UNL     1      -6.274   3.667  68.464  1.00  0.00    -0.032 C  
HETATM    6  O   UNL     1      -5.257   2.944  70.440  1.00  0.00    -0.004 OA 
HETATM    7  C   UNL     1     -10.148   9.241  67.975  1.00  0.00    -0.234 C  
HETATM    8  C   UNL     1      -5.519   3.903  69.712  1.00  0.00    -0.016 C  
HETATM    9  C   UNL     1      -6.672   4.675  67.668  1.00  0.00    -0.051 C  
HETATM   10  C   UNL     1      -9.049   9.178  69.463  1.00  0.00    -0.155 C  
HETATM   11  C   UNL     1     -11.260  10.271  67.848  1.00  0.00    -0.290 C  
HETATM   12  C   UNL     1      -5.132   5.307  70.098  1.00  0.00    -0.004 C  
HETATM   13  C   UNL     1      -7.524   4.427  66.441  1.00  0.00    -0.082 C  
HETATM   14  C   UNL     1      -7.742   8.113  69.244  1.00  0.00    -0.104 C  
HETATM   15  C   UNL     1      -5.262   6.340  68.991  1.00  0.00    -0.004 C  
HETATM   16  C   UNL     1      -8.664   6.707  66.887  1.00  0.00    -0.116 C  
HETATM   17  C   UNL     1      -7.782   6.756  68.312  1.00  0.00    -0.106 C  
HETATM   18  C   UNL     1      -8.828   5.249  66.405  1.00  0.00    -0.123 C  
HETATM   19  C   UNL     1      -6.394   6.137  67.975  1.00  0.00    -0.036 C  
ENDROOT
BRANCH   4  20
HETATM   20  C   UNL     1      -8.178  10.340  67.406  1.00  0.00    -0.114 C  
HETATM   21  O   UNL     1      -8.661  11.448  67.684  1.00  0.00    -0.132 OA 
HETATM   22  C   UNL     1      -6.695  10.322  67.124  1.00  0.00    -0.078 C  
ENDBRANCH   4  20
BRANCH   4  23
HETATM   23  O   UNL     1      -9.604   9.584  65.890  1.00  0.00    -0.221 OA 
BRANCH  23  24
HETATM   24  C   UNL     1      -8.943   9.549  64.708  1.00  0.00    -0.218 C  
HETATM   25  O   UNL     1      -8.204   8.655  64.339  1.00  0.00    -0.157 OA 
BRANCH  24  26
HETATM   26  C   UNL     1      -9.429  10.708  63.855  1.00  0.00    -0.325 C  
BRANCH  26  27
HETATM   27  C   UNL     1     -10.485  11.543  64.545  1.00  0.00    -0.369 C  
BRANCH  27  28
HETATM   28  C   UNL     1     -11.756  11.635  63.709  1.00  0.00    -0.403 C  
BRANCH  28  29
HETATM   29  C   UNL     1     -12.250  13.073  63.629  1.00  0.00    -0.568 C  
HETATM   30  C   UNL     1     -11.959  13.810  64.924  1.00  0.00    -0.412 C  
ENDBRANCH  28  29
ENDBRANCH  27  28
ENDBRANCH  26  27
ENDBRANCH  24  26
ENDBRANCH  23  24
ENDBRANCH   4  23
TORSDOF 7
ENDMDL
MODEL       86
REMARK 921   NORMALIZED FREE ENERGY PREDICTED BY IDOCK:   -3.59 KCAL/MOL
REMARK 922        TOTAL FREE ENERGY PREDICTED BY IDOCK:   -5.14 KCAL/MOL
REMARK 923 INTER-LIGAND FREE ENERGY PREDICTED BY IDOCK:   -5.46 KCAL/MOL
REMARK 924 INTRA-LIGAND FREE ENERGY PREDICTED BY IDOCK:    0.32 KCAL/MOL
REMARK 927      BINDING AFFINITY PREDICTED BY RF-SCORE:    0.00 PKD
ROOT
HETATM    1  C   UNL     1     -10.116  13.123  68.969  1.00  0.00     0.145 C  
HETATM    2  C   UNL     1     -11.000  13.441  70.033  1.00  0.00     0.442 C  
HETATM    3  C   UNL     1     -11.457  13.778  68.661  1.00  0.00    -0.336 C  
HETATM    4  C   UNL     1     -10.307  12.953  67.154  1.00  0.00    -0.238 C  
HETATM    5  C   UNL     1      -8.932  18.806  68.304  1.00  0.00    -0.355 C  
HETATM    6  O   UNL     1     -10.079  20.752  67.703  1.00  0.00    -0.330 OA 
HETATM    7  C   UNL     1     -11.483  12.525  67.704  1.00  0.00    -0.392 C  
HETATM    8  C   UNL     1      -9.789  19.595  67.394  1.00  0.00    -0.368 C  
HETATM    9  C   UNL     1      -8.650  17.512  68.077  1.00  0.00    -0.250 C  
HETATM   10  C   UNL     1     -12.337  13.818  66.692  1.00  0.00    -0.403 C  
HETATM   11  C   UNL     1     -12.080  11.140  67.897  1.00  0.00     0.231 C  
HETATM   12  C   UNL     1     -10.335  18.958  66.142  1.00  0.00    -0.517 C  
HETATM   13  C   UNL     1      -7.847  16.691  69.064  1.00  0.00    -0.215 C  
HETATM   14  C   UNL     1     -11.348  15.176  66.428  1.00  0.00    -0.225 C  
HETATM   15  C   UNL     1      -9.678  17.647  65.746  1.00  0.00     0.086 C  
HETATM   16  C   UNL     1      -9.281  14.646  68.385  1.00  0.00    -0.197 C  
HETATM   17  C   UNL     1     -10.195  15.715  67.473  1.00  0.00    -0.263 C  
HETATM   18  C   UNL     1      -8.548  15.395  69.520  1.00  0.00    -0.212 C  
HETATM   19  C   UNL     1      -9.185  16.741  66.881  1.00  0.00    -0.249 C  
ENDROOT
BRANCH   4  20
HETATM   20  C   UNL     1     -10.477  12.513  65.606  1.00  0.00    -0.273 C  
HETATM   21  O   UNL     1     -10.934  11.422  65.231  1.00  0.00    -0.262 OA 
HETATM   22  C   UNL     1      -9.955  13.417  64.516  1.00  0.00    -0.080 C  
ENDBRANCH   4  20
BRANCH   4  23
HETATM   23  O   UNL     1      -9.519  11.626  67.395  1.00  0.00    -0.166 OA 
BRANCH  23  24
HETATM   24  C   UNL     1      -8.231  11.438  67.021  1.00  0.00    -0.160 C  
HETATM   25  O   UNL     1      -7.316  12.216  67.223  1.00  0.00    -0.140 OA 
BRANCH  24  26
HETATM   26  C   UNL     1      -8.091  10.024  66.487  1.00  0.00    -0.119 C  
BRANCH  26  27
HETATM   27  C   UNL     1      -7.454   9.974  65.115  1.00  0.00    -0.139 C  
BRANCH  27  28
HETATM   28  C   UNL     1      -7.869   8.720  64.354  1.00  0.00    -0.132 C  
BRANCH  28  29
HETATM   29  C   UNL     1      -7.985   9.005  62.863  1.00  0.00    -0.147 C  
HETATM   30  C   UNL     1      -8.436  10.435  62.627  1.00  0.00    -0.201 C  
ENDBRANCH  28  29
ENDBRANCH  27  28
ENDBRANCH  26  27
ENDBRANCH  24  26
ENDBRANCH  23  24
ENDBRANCH   4  23
TORSDOF 7
ENDMDL
MODEL       87
REMARK 921   NORMALIZED FREE ENERGY PREDICTED BY IDOCK:   -3.54 KCAL/MOL
REMARK 922        TOTAL FREE ENERGY PREDICTED BY IDOCK:   -5.08 KCAL/MOL
REMARK 923 INTER-LIGAND FREE ENERGY PREDICTED BY IDOCK:   -5.58 KCAL/MOL
REMARK 924 INTRA-LIGAND FREE ENERGY PREDICTED BY IDOCK:    0.50 KCAL/MOL
REMARK 927      BINDING AFFINITY PREDICTED BY RF-SCORE:    0.00 PKD
ROOT
HETATM    1  C   UNL     1     -10.841   7.035  70.739  1.00  0.00    -0.272 C  
HETATM    2  C   UNL     1     -11.507   5.843  71.127  1.00  0.00    -0.152 C  
HETATM    3  C   UNL     1     -10.029   5.855  71.257  1.00  0.00    -0.232 C  
HETATM    4  C   UNL     1      -9.170   7.723  71.040  1.00  0.00    -0.151 C  
HETATM    5  C   UNL     1      -8.854   4.323  65.960  1.00  0.00    -0.119 C  
HETATM    6  O   UNL     1      -7.439   2.533  65.450  1.00  0.00    -0.068 OA 
HETATM    7  C   UNL     1      -9.508   7.030  72.169  1.00  0.00    -0.150 C  
HETATM    8  C   UNL     1      -7.568   3.601  66.052  1.00  0.00    -0.081 C  
HETATM    9  C   UNL     1      -9.096   5.444  66.661  1.00  0.00    -0.124 C  
HETATM   10  C   UNL     1      -7.980   6.019  71.912  1.00  0.00    -0.107 C  
HETATM   11  C   UNL     1      -9.943   7.481  73.555  1.00  0.00    -0.371 C  
HETATM   12  C   UNL     1      -6.464   4.149  66.918  1.00  0.00    -0.041 C  
HETATM   13  C   UNL     1     -10.449   6.122  66.627  1.00  0.00    -0.267 C  
HETATM   14  C   UNL     1      -7.585   5.868  70.265  1.00  0.00    -0.094 C  
HETATM   15  C   UNL     1      -6.648   5.589  67.366  1.00  0.00    -0.053 C  
HETATM   16  C   UNL     1     -10.065   6.800  69.095  1.00  0.00    -0.180 C  
HETATM   17  C   UNL     1      -8.680   5.857  69.034  1.00  0.00    -0.114 C  
HETATM   18  C   UNL     1     -11.075   6.344  68.019  1.00  0.00    -0.365 C  
HETATM   19  C   UNL     1      -8.086   6.066  67.610  1.00  0.00    -0.106 C  
ENDROOT
BRANCH   4  20
HETATM   20  C   UNL     1      -7.829   8.500  71.507  1.00  0.00    -0.125 C  
HETATM   21  O   UNL     1      -7.657   8.991  72.633  1.00  0.00    -0.336 OA 
HETATM   22  C   UNL     1      -6.735   8.762  70.501  1.00  0.00    -0.044 C  
ENDBRANCH   4  20
BRANCH   4  23
HETATM   23  O   UNL     1      -9.981   9.013  71.387  1.00  0.00    -0.276 OA 
BRANCH  23  24
HETATM   24  C   UNL     1     -10.766   9.669  70.500  1.00  0.00    -0.311 C  
HETATM   25  O   UNL     1     -11.975   9.788  70.582  1.00  0.00    -0.277 OA 
BRANCH  24  26
HETATM   26  C   UNL     1      -9.869  10.384  69.506  1.00  0.00    -0.211 C  
BRANCH  26  27
HETATM   27  C   UNL     1     -10.356  10.259  68.079  1.00  0.00    -0.215 C  
BRANCH  27  28
HETATM   28  C   UNL     1      -9.286   9.659  67.176  1.00  0.00    -0.156 C  
BRANCH  28  29
HETATM   29  C   UNL     1      -9.798   9.514  65.750  1.00  0.00    -0.363 C  
HETATM   30  C   UNL     1      -8.669   9.705  64.754  1.00  0.00    -0.219 C  
ENDBRANCH  28  29
ENDBRANCH  27  28
ENDBRANCH  26  27
ENDBRANCH  24  26
ENDBRANCH  23  24
ENDBRANCH   4  23
TORSDOF 7
ENDMDL
MODEL       88
REMARK 921   NORMALIZED FREE ENERGY PREDICTED BY IDOCK:   -3.53 KCAL/MOL
REMARK 922        TOTAL FREE ENERGY PREDICTED BY IDOCK:   -5.06 KCAL/MOL
REMARK 923 INTER-LIGAND FREE ENERGY PREDICTED BY IDOCK:   -4.83 KCAL/MOL
REMARK 924 INTRA-LIGAND FREE ENERGY PREDICTED BY IDOCK:   -0.23 KCAL/MOL
REMARK 927      BINDING AFFINITY PREDICTED BY RF-SCORE:    0.00 PKD
ROOT
HETATM    1  C   UNL     1      -9.463   9.239  67.972  1.00  0.00    -0.152 C  
HETATM    2  C   UNL     1     -10.544   9.343  67.058  1.00  0.00    -0.272 C  
HETATM    3  C   UNL     1     -10.723   8.412  68.200  1.00  0.00    -0.094 C  
HETATM    4  C   UNL     1      -9.288   8.592  69.677  1.00  0.00    -0.161 C  
HETATM    5  C   UNL     1      -8.229   3.938  65.845  1.00  0.00    -0.105 C  
HETATM    6  O   UNL     1      -9.254   1.840  65.729  1.00  0.00    -0.092 OA 
HETATM    7  C   UNL     1     -10.545   9.122  69.597  1.00  0.00    -0.237 C  
HETATM    8  C   UNL     1      -8.897   2.769  66.455  1.00  0.00    -0.146 C  
HETATM    9  C   UNL     1      -7.895   5.024  66.561  1.00  0.00    -0.100 C  
HETATM   10  C   UNL     1     -11.194   7.456  70.075  1.00  0.00    -0.200 C  
HETATM   11  C   UNL     1     -11.154  10.404  70.145  1.00  0.00    -0.383 C  
HETATM   12  C   UNL     1      -9.176   2.757  67.936  1.00  0.00    -0.251 C  
HETATM   13  C   UNL     1      -7.295   6.251  65.906  1.00  0.00    -0.080 C  
HETATM   14  C   UNL     1     -10.187   6.200  69.530  1.00  0.00    -0.250 C  
HETATM   15  C   UNL     1      -8.440   3.815  68.740  1.00  0.00    -0.104 C  
HETATM   16  C   UNL     1      -8.544   7.683  67.663  1.00  0.00    -0.116 C  
HETATM   17  C   UNL     1      -9.270   6.257  68.163  1.00  0.00    -0.110 C  
HETATM   18  C   UNL     1      -8.059   7.557  66.202  1.00  0.00    -0.116 C  
HETATM   19  C   UNL     1      -8.173   5.158  68.049  1.00  0.00    -0.098 C  
ENDROOT
BRANCH   4  20
HETATM   20  C   UNL     1      -9.142   8.305  71.264  1.00  0.00    -0.160 C  
HETATM   21  O   UNL     1      -9.658   8.998  72.153  1.00  0.00    -0.312 OA 
HETATM   22  C   UNL     1      -8.236   7.194  71.737  1.00  0.00    -0.105 C  
ENDBRANCH   4  20
BRANCH   4  23
HETATM   23  O   UNL     1      -8.549   9.950  69.903  1.00  0.00    -0.194 OA 
BRANCH  23  24
HETATM   24  C   UNL     1      -7.216  10.118  69.736  1.00  0.00    -0.141 C  
HETATM   25  O   UNL     1      -6.384   9.229  69.761  1.00  0.00    -0.038 OA 
BRANCH  24  26
HETATM   26  C   UNL     1      -6.964  11.557  69.324  1.00  0.00    -0.098 C  
BRANCH  26  27
HETATM   27  C   UNL     1      -7.000  11.754  67.824  1.00  0.00    -0.094 C  
BRANCH  27  28
HETATM   28  C   UNL     1      -7.817  12.983  67.444  1.00  0.00    -0.166 C  
BRANCH  28  29
HETATM   29  C   UNL     1      -9.182  12.958  68.117  1.00  0.00    -0.212 C  
HETATM   30  C   UNL     1     -10.289  13.068  67.085  1.00  0.00    -0.243 C  
ENDBRANCH  28  29
ENDBRANCH  27  28
ENDBRANCH  26  27
ENDBRANCH  24  26
ENDBRANCH  23  24
ENDBRANCH   4  23
TORSDOF 7
ENDMDL
MODEL       89
REMARK 921   NORMALIZED FREE ENERGY PREDICTED BY IDOCK:   -3.50 KCAL/MOL
REMARK 922        TOTAL FREE ENERGY PREDICTED BY IDOCK:   -5.02 KCAL/MOL
REMARK 923 INTER-LIGAND FREE ENERGY PREDICTED BY IDOCK:   -5.89 KCAL/MOL
REMARK 924 INTRA-LIGAND FREE ENERGY PREDICTED BY IDOCK:    0.87 KCAL/MOL
REMARK 927      BINDING AFFINITY PREDICTED BY RF-SCORE:    0.00 PKD
ROOT
HETATM    1  C   UNL     1      -8.936  15.549  67.575  1.00  0.00    -0.196 C  
HETATM    2  C   UNL     1      -7.943  16.082  66.712  1.00  0.00    -0.302 C  
HETATM    3  C   UNL     1      -8.816  15.021  66.151  1.00  0.00    -0.047 C  
HETATM    4  C   UNL     1     -10.461  14.567  67.318  1.00  0.00    -0.266 C  
HETATM    5  C   UNL     1      -5.843  10.612  68.024  1.00  0.00    -0.042 C  
HETATM    6  O   UNL     1      -5.135   8.882  66.620  1.00  0.00    -0.033 OA 
HETATM    7  C   UNL     1     -10.347  15.388  66.231  1.00  0.00    -0.304 C  
HETATM    8  C   UNL     1      -6.089   9.543  67.034  1.00  0.00    -0.063 C  
HETATM    9  C   UNL     1      -6.820  11.430  68.450  1.00  0.00    -0.068 C  
HETATM   10  C   UNL     1     -10.357  13.867  65.178  1.00  0.00    -0.403 C  
HETATM   11  C   UNL     1     -11.090  16.650  65.818  1.00  0.00     0.168 C  
HETATM   12  C   UNL     1      -7.483   9.317  66.509  1.00  0.00    -0.093 C  
HETATM   13  C   UNL     1      -6.536  12.579  69.395  1.00  0.00    -0.073 C  
HETATM   14  C   UNL     1      -9.672  12.533  65.980  1.00  0.00    -0.247 C  
HETATM   15  C   UNL     1      -8.589   9.995  67.301  1.00  0.00    -0.125 C  
HETATM   16  C   UNL     1      -8.402  13.907  68.189  1.00  0.00    -0.163 C  
HETATM   17  C   UNL     1      -8.476  12.628  67.108  1.00  0.00    -0.186 C  
HETATM   18  C   UNL     1      -7.021  13.949  68.880  1.00  0.00    -0.110 C  
HETATM   19  C   UNL     1      -8.255  11.341  67.956  1.00  0.00    -0.134 C  
ENDROOT
BRANCH   4  20
HETATM   20  C   UNL     1     -11.948  13.957  67.127  1.00  0.00    -0.420 C  
HETATM   21  O   UNL     1     -12.898  14.567  66.613  1.00  0.00     0.142 OA 
HETATM   22  C   UNL     1     -12.273  12.599  67.700  1.00  0.00     0.054 C  
ENDBRANCH   4  20
BRANCH   4  23
HETATM   23  O   UNL     1     -11.075  15.640  68.273  1.00  0.00    -0.304 OA 
BRANCH  23  24
HETATM   24  C   UNL     1     -11.087  15.527  69.623  1.00  0.00    -0.279 C  
HETATM   25  O   UNL     1     -10.103  15.529  70.340  1.00  0.00    -0.206 OA 
BRANCH  24  26
HETATM   26  C   UNL     1     -12.528  15.592  70.095  1.00  0.00    -0.351 C  
BRANCH  26  27
HETATM   27  C   UNL     1     -12.654  15.584  71.602  1.00  0.00    -0.486 C  
BRANCH  27  28
HETATM   28  C   UNL     1     -13.293  14.294  72.102  1.00  0.00    -0.506 C  
BRANCH  28  29
HETATM   29  C   UNL     1     -12.721  13.087  71.372  1.00  0.00    -0.375 C  
HETATM   30  C   UNL     1     -13.284  11.799  71.945  1.00  0.00    -0.468 C  
ENDBRANCH  28  29
ENDBRANCH  27  28
ENDBRANCH  26  27
ENDBRANCH  24  26
ENDBRANCH  23  24
ENDBRANCH   4  23
TORSDOF 7
ENDMDL
MODEL       90
REMARK 921   NORMALIZED FREE ENERGY PREDICTED BY IDOCK:   -3.44 KCAL/MOL
REMARK 922        TOTAL FREE ENERGY PREDICTED BY IDOCK:   -4.93 KCAL/MOL
REMARK 923 INTER-LIGAND FREE ENERGY PREDICTED BY IDOCK:   -5.31 KCAL/MOL
REMARK 924 INTRA-LIGAND FREE ENERGY PREDICTED BY IDOCK:    0.37 KCAL/MOL
REMARK 927      BINDING AFFINITY PREDICTED BY RF-SCORE:    0.00 PKD
ROOT
HETATM    1  C   UNL     1      -9.503  14.426  69.428  1.00  0.00     0.242 C  
HETATM    2  C   UNL     1      -9.804  15.061  70.662  1.00  0.00     0.808 C  
HETATM    3  C   UNL     1     -10.415  15.646  69.443  1.00  0.00    -0.253 C  
HETATM    4  C   UNL     1     -10.248  14.464  67.754  1.00  0.00    -0.230 C  
HETATM    5  C   UNL     1      -6.067  18.929  67.993  1.00  0.00    -0.218 C  
HETATM    6  O   UNL     1      -6.302  21.215  67.565  1.00  0.00    -0.318 OA 
HETATM    7  C   UNL     1     -11.282  14.604  68.637  1.00  0.00    -0.293 C  
HETATM    8  C   UNL     1      -6.678  20.075  67.288  1.00  0.00    -0.218 C  
HETATM    9  C   UNL     1      -6.491  17.667  67.808  1.00  0.00    -0.181 C  
HETATM   10  C   UNL     1     -11.686  16.199  67.790  1.00  0.00     0.208 C  
HETATM   11  C   UNL     1     -12.371  13.648  69.099  1.00  0.00    -0.115 C  
HETATM   12  C   UNL     1      -7.781  19.836  66.289  1.00  0.00    -0.331 C  
HETATM   13  C   UNL     1      -5.918  16.514  68.605  1.00  0.00    -0.132 C  
HETATM   14  C   UNL     1     -10.300  16.952  67.155  1.00  0.00    -0.304 C  
HETATM   15  C   UNL     1      -7.944  18.393  65.840  1.00  0.00    -0.040 C  
HETATM   16  C   UNL     1      -8.259  15.413  68.515  1.00  0.00    -0.145 C  
HETATM   17  C   UNL     1      -8.789  16.834  67.799  1.00  0.00    -0.208 C  
HETATM   18  C   UNL     1      -6.979  15.672  69.341  1.00  0.00    -0.196 C  
HETATM   19  C   UNL     1      -7.630  17.302  66.871  1.00  0.00    -0.248 C  
ENDROOT
BRANCH   4  20
HETATM   20  C   UNL     1     -11.026  14.239  66.353  1.00  0.00    -0.311 C  
HETATM   21  O   UNL     1     -12.126  13.679  66.242  1.00  0.00    -0.395 OA 
HETATM   22  C   UNL     1     -10.350  14.624  65.059  1.00  0.00    -0.432 C  
ENDBRANCH   4  20
BRANCH   4  23
HETATM   23  O   UNL     1     -10.129  12.912  67.883  1.00  0.00    -0.219 OA 
BRANCH  23  24
HETATM   24  C   UNL     1      -9.007  12.216  67.581  1.00  0.00    -0.178 C  
HETATM   25  O   UNL     1      -8.261  12.450  66.648  1.00  0.00    -0.085 OA 
BRANCH  24  26
HETATM   26  C   UNL     1      -8.740  11.231  68.705  1.00  0.00    -0.136 C  
BRANCH  26  27
HETATM   27  C   UNL     1      -9.994  10.535  69.187  1.00  0.00    -0.236 C  
BRANCH  27  28
HETATM   28  C   UNL     1      -9.707   9.635  70.383  1.00  0.00    -0.304 C  
BRANCH  28  29
HETATM   29  C   UNL     1     -10.924   9.537  71.292  1.00  0.00    -0.440 C  
HETATM   30  C   UNL     1     -11.856  10.714  71.066  1.00  0.00    -0.396 C  
ENDBRANCH  28  29
ENDBRANCH  27  28
ENDBRANCH  26  27
ENDBRANCH  24  26
ENDBRANCH  23  24
ENDBRANCH   4  23
TORSDOF 7
ENDMDL
MODEL       91
REMARK 921   NORMALIZED FREE ENERGY PREDICTED BY IDOCK:   -3.43 KCAL/MOL
REMARK 922        TOTAL FREE ENERGY PREDICTED BY IDOCK:   -4.91 KCAL/MOL
REMARK 923 INTER-LIGAND FREE ENERGY PREDICTED BY IDOCK:   -4.80 KCAL/MOL
REMARK 924 INTRA-LIGAND FREE ENERGY PREDICTED BY IDOCK:   -0.11 KCAL/MOL
REMARK 927      BINDING AFFINITY PREDICTED BY RF-SCORE:    0.00 PKD
ROOT
HETATM    1  C   UNL     1      -9.697   6.628  67.035  1.00  0.00    -0.197 C  
HETATM    2  C   UNL     1     -11.097   6.442  66.890  1.00  0.00    -0.346 C  
HETATM    3  C   UNL     1     -10.658   7.516  67.816  1.00  0.00    -0.274 C  
HETATM    4  C   UNL     1      -8.647   7.980  67.689  1.00  0.00    -0.130 C  
HETATM    5  C   UNL     1      -9.973   4.270  72.374  1.00  0.00    -0.229 C  
HETATM    6  O   UNL     1     -10.961   4.765  74.434  1.00  0.00    -0.321 OA 
HETATM    7  C   UNL     1      -9.731   8.582  67.114  1.00  0.00    -0.251 C  
HETATM    8  C   UNL     1     -10.239   5.165  73.519  1.00  0.00    -0.198 C  
HETATM    9  C   UNL     1      -9.271   4.671  71.300  1.00  0.00    -0.191 C  
HETATM   10  C   UNL     1     -10.069   9.366  68.756  1.00  0.00    -0.208 C  
HETATM   11  C   UNL     1      -9.907   9.348  65.812  1.00  0.00    -0.345 C  
HETATM   12  C   UNL     1      -9.674   6.562  73.522  1.00  0.00    -0.197 C  
HETATM   13  C   UNL     1      -9.083   3.774  70.095  1.00  0.00    -0.195 C  
HETATM   14  C   UNL     1      -9.555   8.386  70.048  1.00  0.00    -0.168 C  
HETATM   15  C   UNL     1      -8.588   6.821  72.492  1.00  0.00    -0.127 C  
HETATM   16  C   UNL     1      -9.139   5.901  68.621  1.00  0.00    -0.115 C  
HETATM   17  C   UNL     1      -9.522   6.739  70.021  1.00  0.00    -0.158 C  
HETATM   18  C   UNL     1      -9.525   4.412  68.763  1.00  0.00    -0.227 C  
HETATM   19  C   UNL     1      -8.696   6.070  71.159  1.00  0.00    -0.132 C  
ENDROOT
BRANCH   4  20
HETATM   20  C   UNL     1      -7.676   9.241  67.983  1.00  0.00    -0.088 C  
HETATM   21  O   UNL     1      -7.630  10.269  67.291  1.00  0.00    -0.094 OA 
HETATM   22  C   UNL     1      -6.663   9.153  69.099  1.00  0.00    -0.050 C  
ENDBRANCH   4  20
BRANCH   4  23
HETATM   23  O   UNL     1      -7.862   7.746  66.359  1.00  0.00    -0.090 OA 
BRANCH  23  24
HETATM   24  C   UNL     1      -6.835   6.872  66.235  1.00  0.00    -0.064 C  
HETATM   25  O   UNL     1      -6.187   6.410  67.157  1.00  0.00    -0.033 OA 
BRANCH  24  26
HETATM   26  C   UNL     1      -6.758   6.426  64.786  1.00  0.00    -0.039 C  
BRANCH  26  27
HETATM   27  C   UNL     1      -6.651   4.925  64.638  1.00  0.00    -0.043 C  
BRANCH  27  28
HETATM   28  C   UNL     1      -7.944   4.230  65.047  1.00  0.00    -0.093 C  
BRANCH  28  29
HETATM   29  C   UNL     1      -7.656   3.020  65.924  1.00  0.00    -0.073 C  
HETATM   30  C   UNL     1      -8.728   1.961  65.742  1.00  0.00    -0.119 C  
ENDBRANCH  28  29
ENDBRANCH  27  28
ENDBRANCH  26  27
ENDBRANCH  24  26
ENDBRANCH  23  24
ENDBRANCH   4  23
TORSDOF 7
ENDMDL
MODEL       92
REMARK 921   NORMALIZED FREE ENERGY PREDICTED BY IDOCK:   -3.41 KCAL/MOL
REMARK 922        TOTAL FREE ENERGY PREDICTED BY IDOCK:   -4.89 KCAL/MOL
REMARK 923 INTER-LIGAND FREE ENERGY PREDICTED BY IDOCK:   -5.14 KCAL/MOL
REMARK 924 INTRA-LIGAND FREE ENERGY PREDICTED BY IDOCK:    0.25 KCAL/MOL
REMARK 927      BINDING AFFINITY PREDICTED BY RF-SCORE:    0.00 PKD
ROOT
HETATM    1  C   UNL     1      -7.371  10.028  68.787  1.00  0.00    -0.078 C  
HETATM    2  C   UNL     1      -7.262   9.877  70.195  1.00  0.00    -0.159 C  
HETATM    3  C   UNL     1      -8.633   9.861  69.625  1.00  0.00    -0.207 C  
HETATM    4  C   UNL     1      -8.697   9.704  67.564  1.00  0.00    -0.125 C  
HETATM    5  C   UNL     1      -9.427  15.442  69.568  1.00  0.00    -0.250 C  
HETATM    6  O   UNL     1     -11.300  16.458  70.529  1.00  0.00    -0.363 OA 
HETATM    7  C   UNL     1      -8.823   8.744  68.529  1.00  0.00    -0.138 C  
HETATM    8  C   UNL     1     -10.885  15.618  69.729  1.00  0.00    -0.308 C  
HETATM    9  C   UNL     1      -8.904  14.485  68.783  1.00  0.00    -0.153 C  
HETATM   10  C   UNL     1     -10.554   9.344  68.791  1.00  0.00    -0.234 C  
HETATM   11  C   UNL     1      -8.480   7.262  68.550  1.00  0.00    -0.125 C  
HETATM   12  C   UNL     1     -11.833  14.735  68.960  1.00  0.00    -0.337 C  
HETATM   13  C   UNL     1      -7.410  14.257  68.699  1.00  0.00    -0.125 C  
HETATM   14  C   UNL     1     -10.707  11.006  68.468  1.00  0.00    -0.236 C  
HETATM   15  C   UNL     1     -11.205  13.954  67.818  1.00  0.00    -0.316 C  
HETATM   16  C   UNL     1      -7.906  11.736  68.391  1.00  0.00    -0.141 C  
HETATM   17  C   UNL     1      -9.512  12.119  68.683  1.00  0.00    -0.052 C  
HETATM   18  C   UNL     1      -6.977  12.808  69.002  1.00  0.00    -0.059 C  
HETATM   19  C   UNL     1      -9.752  13.497  68.000  1.00  0.00    -0.228 C  
ENDROOT
BRANCH   4  20
HETATM   20  C   UNL     1      -9.714   9.174  66.423  1.00  0.00    -0.262 C  
HETATM   21  O   UNL     1     -10.126   8.007  66.336  1.00  0.00    -0.227 OA 
HETATM   22  C   UNL     1     -10.125  10.102  65.306  1.00  0.00    -0.344 C  
ENDBRANCH   4  20
BRANCH   4  23
HETATM   23  O   UNL     1      -7.535   9.008  66.787  1.00  0.00    -0.085 OA 
BRANCH  23  24
HETATM   24  C   UNL     1      -6.963   9.521  65.671  1.00  0.00    -0.092 C  
HETATM   25  O   UNL     1      -6.693  10.694  65.493  1.00  0.00    -0.120 OA 
BRANCH  24  26
HETATM   26  C   UNL     1      -6.544   8.368  64.776  1.00  0.00    -0.068 C  
BRANCH  26  27
HETATM   27  C   UNL     1      -7.674   7.859  63.907  1.00  0.00    -0.138 C  
BRANCH  27  28
HETATM   28  C   UNL     1      -7.919   6.371  64.128  1.00  0.00    -0.096 C  
BRANCH  28  29
HETATM   29  C   UNL     1      -7.117   5.537  63.138  1.00  0.00    -0.039 C  
HETATM   30  C   UNL     1      -6.418   4.392  63.848  1.00  0.00    -0.034 C  
ENDBRANCH  28  29
ENDBRANCH  27  28
ENDBRANCH  26  27
ENDBRANCH  24  26
ENDBRANCH  23  24
ENDBRANCH   4  23
TORSDOF 7
ENDMDL
MODEL       93
REMARK 921   NORMALIZED FREE ENERGY PREDICTED BY IDOCK:   -3.34 KCAL/MOL
REMARK 922        TOTAL FREE ENERGY PREDICTED BY IDOCK:   -4.79 KCAL/MOL
REMARK 923 INTER-LIGAND FREE ENERGY PREDICTED BY IDOCK:   -5.46 KCAL/MOL
REMARK 924 INTRA-LIGAND FREE ENERGY PREDICTED BY IDOCK:    0.67 KCAL/MOL
REMARK 927      BINDING AFFINITY PREDICTED BY RF-SCORE:    0.00 PKD
ROOT
HETATM    1  C   UNL     1      -7.600   8.758  69.613  1.00  0.00    -0.076 C  
HETATM    2  C   UNL     1      -7.209   9.376  70.830  1.00  0.00    -0.123 C  
HETATM    3  C   UNL     1      -8.666   9.217  70.600  1.00  0.00    -0.282 C  
HETATM    4  C   UNL     1      -9.149   7.986  69.011  1.00  0.00    -0.144 C  
HETATM    5  C   UNL     1      -9.415  13.939  67.613  1.00  0.00    -0.212 C  
HETATM    6  O   UNL     1     -11.047  15.525  68.150  1.00  0.00    -0.298 OA 
HETATM    7  C   UNL     1      -9.083   7.717  70.349  1.00  0.00    -0.155 C  
HETATM    8  C   UNL     1     -10.810  14.344  67.889  1.00  0.00    -0.251 C  
HETATM    9  C   UNL     1      -9.070  12.656  67.411  1.00  0.00    -0.191 C  
HETATM   10  C   UNL     1     -10.720   8.563  70.520  1.00  0.00    -0.246 C  
HETATM   11  C   UNL     1      -8.754   6.451  71.125  1.00  0.00    -0.135 C  
HETATM   12  C   UNL     1     -11.900  13.305  67.903  1.00  0.00    -0.388 C  
HETATM   13  C   UNL     1      -7.626  12.245  67.219  1.00  0.00    -0.152 C  
HETATM   14  C   UNL     1     -10.925   9.795  69.367  1.00  0.00    -0.241 C  
HETATM   15  C   UNL     1     -11.523  11.965  67.295  1.00  0.00    -0.385 C  
HETATM   16  C   UNL     1      -8.192  10.033  68.438  1.00  0.00    -0.106 C  
HETATM   17  C   UNL     1      -9.703  10.699  68.732  1.00  0.00    -0.193 C  
HETATM   18  C   UNL     1      -7.151  11.147  68.193  1.00  0.00    -0.071 C  
HETATM   19  C   UNL     1     -10.067  11.510  67.454  1.00  0.00    -0.213 C  
ENDROOT
BRANCH   4  20
HETATM   20  C   UNL     1     -10.381   7.049  68.537  1.00  0.00    -0.186 C  
HETATM   21  O   UNL     1     -10.790   6.058  69.161  1.00  0.00    -0.292 OA 
HETATM   22  C   UNL     1     -11.030   7.297  67.197  1.00  0.00    -0.285 C  
ENDBRANCH   4  20
BRANCH   4  23
HETATM   23  O   UNL     1      -8.175   6.849  68.565  1.00  0.00    -0.119 OA 
BRANCH  23  24
HETATM   24  C   UNL     1      -7.892   6.565  67.271  1.00  0.00    -0.105 C  
HETATM   25  O   UNL     1      -7.888   5.452  66.778  1.00  0.00    -0.099 OA 
BRANCH  24  26
HETATM   26  C   UNL     1      -7.775   7.873  66.510  1.00  0.00    -0.097 C  
BRANCH  26  27
HETATM   27  C   UNL     1      -7.483   7.673  65.039  1.00  0.00    -0.090 C  
BRANCH  27  28
HETATM   28  C   UNL     1      -6.163   8.322  64.639  1.00  0.00    -0.064 C  
BRANCH  28  29
HETATM   29  C   UNL     1      -6.373   9.775  64.236  1.00  0.00    -0.117 C  
HETATM   30  C   UNL     1      -7.803  10.000  63.778  1.00  0.00    -0.152 C  
ENDBRANCH  28  29
ENDBRANCH  27  28
ENDBRANCH  26  27
ENDBRANCH  24  26
ENDBRANCH  23  24
ENDBRANCH   4  23
TORSDOF 7
ENDMDL
MODEL       94
REMARK 921   NORMALIZED FREE ENERGY PREDICTED BY IDOCK:   -3.33 KCAL/MOL
REMARK 922        TOTAL FREE ENERGY PREDICTED BY IDOCK:   -4.77 KCAL/MOL
REMARK 923 INTER-LIGAND FREE ENERGY PREDICTED BY IDOCK:   -5.42 KCAL/MOL
REMARK 924 INTRA-LIGAND FREE ENERGY PREDICTED BY IDOCK:    0.65 KCAL/MOL
REMARK 927      BINDING AFFINITY PREDICTED BY RF-SCORE:    0.00 PKD
ROOT
HETATM    1  C   UNL     1     -10.149  13.454  65.776  1.00  0.00    -0.297 C  
HETATM    2  C   UNL     1     -11.086  12.864  64.888  1.00  0.00    -0.326 C  
HETATM    3  C   UNL     1     -11.634  13.748  65.947  1.00  0.00    -0.346 C  
HETATM    4  C   UNL     1     -10.209  14.859  66.950  1.00  0.00    -0.254 C  
HETATM    5  C   UNL     1     -11.949   9.850  70.008  1.00  0.00    -0.076 C  
HETATM    6  O   UNL     1     -13.907   9.450  71.222  1.00  0.00    -0.314 OA 
HETATM    7  C   UNL     1     -11.021  15.200  65.905  1.00  0.00    -0.339 C  
HETATM    8  C   UNL     1     -13.075  10.284  70.862  1.00  0.00    -0.344 C  
HETATM    9  C   UNL     1     -11.057  10.720  69.505  1.00  0.00    -0.334 C  
HETATM   10  C   UNL     1     -12.394  15.382  67.133  1.00  0.00     0.965 C  
HETATM   11  C   UNL     1     -10.850  16.173  64.749  1.00  0.00    -0.282 C  
HETATM   12  C   UNL     1     -13.216  11.739  71.229  1.00  0.00    -0.079 C  
HETATM   13  C   UNL     1      -9.963  10.274  68.558  1.00  0.00    -0.177 C  
HETATM   14  C   UNL     1     -12.211  14.327  68.454  1.00  0.00    -0.197 C  
HETATM   15  C   UNL     1     -11.988  12.594  70.965  1.00  0.00     0.215 C  
HETATM   16  C   UNL     1     -10.178  12.568  67.379  1.00  0.00    -0.217 C  
HETATM   17  C   UNL     1     -11.493  12.847  68.381  1.00  0.00    -0.347 C  
HETATM   18  C   UNL     1      -9.930  11.051  67.227  1.00  0.00    -0.210 C  
HETATM   19  C   UNL     1     -11.122  12.217  69.756  1.00  0.00     0.078 C  
ENDROOT
BRANCH   4  20
HETATM   20  C   UNL     1     -10.119  16.248  67.776  1.00  0.00    -0.252 C  
HETATM   21  O   UNL     1     -10.472  17.352  67.335  1.00  0.00    -0.337 OA 
HETATM   22  C   UNL     1      -9.465  16.262  69.136  1.00  0.00    -0.246 C  
ENDBRANCH   4  20
BRANCH   4  23
HETATM   23  O   UNL     1      -8.867  15.244  66.250  1.00  0.00    -0.297 OA 
BRANCH  23  24
HETATM   24  C   UNL     1      -7.692  15.393  66.906  1.00  0.00    -0.124 C  
HETATM   25  O   UNL     1      -7.181  14.565  67.637  1.00  0.00    -0.159 OA 
BRANCH  24  26
HETATM   26  C   UNL     1      -7.037  16.676  66.426  1.00  0.00    -0.117 C  
BRANCH  26  27
HETATM   27  C   UNL     1      -6.572  17.560  67.562  1.00  0.00    -0.172 C  
BRANCH  27  28
HETATM   28  C   UNL     1      -6.083  18.911  67.053  1.00  0.00    -0.173 C  
BRANCH  28  29
HETATM   29  C   UNL     1      -6.691  20.048  67.863  1.00  0.00    -0.295 C  
HETATM   30  C   UNL     1      -7.098  19.563  69.242  1.00  0.00    -0.372 C  
ENDBRANCH  28  29
ENDBRANCH  27  28
ENDBRANCH  26  27
ENDBRANCH  24  26
ENDBRANCH  23  24
ENDBRANCH   4  23
TORSDOF 7
ENDMDL
MODEL       95
REMARK 921   NORMALIZED FREE ENERGY PREDICTED BY IDOCK:   -3.31 KCAL/MOL
REMARK 922        TOTAL FREE ENERGY PREDICTED BY IDOCK:   -4.74 KCAL/MOL
REMARK 923 INTER-LIGAND FREE ENERGY PREDICTED BY IDOCK:   -5.91 KCAL/MOL
REMARK 924 INTRA-LIGAND FREE ENERGY PREDICTED BY IDOCK:    1.17 KCAL/MOL
REMARK 927      BINDING AFFINITY PREDICTED BY RF-SCORE:    0.00 PKD
ROOT
HETATM    1  C   UNL     1      -7.475   9.270  67.676  1.00  0.00    -0.088 C  
HETATM    2  C   UNL     1      -6.903   7.989  67.456  1.00  0.00    -0.070 C  
HETATM    3  C   UNL     1      -8.382   8.081  67.382  1.00  0.00    -0.123 C  
HETATM    4  C   UNL     1      -9.114  10.014  67.333  1.00  0.00    -0.134 C  
HETATM    5  C   UNL     1      -9.391   7.475  72.896  1.00  0.00    -0.232 C  
HETATM    6  O   UNL     1     -10.887   5.886  73.736  1.00  0.00    -0.245 OA 
HETATM    7  C   UNL     1      -8.874   9.133  66.316  1.00  0.00    -0.176 C  
HETATM    8  C   UNL     1     -10.722   6.836  72.968  1.00  0.00    -0.285 C  
HETATM    9  C   UNL     1      -9.116   8.454  72.018  1.00  0.00    -0.296 C  
HETATM   10  C   UNL     1     -10.447   8.279  66.788  1.00  0.00    -0.313 C  
HETATM   11  C   UNL     1      -8.479   9.331  64.861  1.00  0.00    -0.182 C  
HETATM   12  C   UNL     1     -11.831   7.316  72.069  1.00  0.00    -0.332 C  
HETATM   13  C   UNL     1      -7.724   9.036  71.892  1.00  0.00     0.144 C  
HETATM   14  C   UNL     1     -10.770   8.414  68.452  1.00  0.00    -0.076 C  
HETATM   15  C   UNL     1     -11.581   8.653  71.392  1.00  0.00    -0.354 C  
HETATM   16  C   UNL     1      -8.184   9.346  69.364  1.00  0.00    -0.119 C  
HETATM   17  C   UNL     1      -9.619   8.520  69.626  1.00  0.00    -0.170 C  
HETATM   18  C   UNL     1      -7.153   8.996  70.460  1.00  0.00    -0.073 C  
HETATM   19  C   UNL     1     -10.131   8.987  71.021  1.00  0.00    -0.352 C  
ENDROOT
BRANCH   4  20
HETATM   20  C   UNL     1     -10.426  10.797  66.800  1.00  0.00    -0.251 C  
HETATM   21  O   UNL     1     -10.577  11.207  65.639  1.00  0.00    -0.259 OA 
HETATM   22  C   UNL     1     -11.515  11.172  67.776  1.00  0.00    -0.349 C  
ENDBRANCH   4  20
BRANCH   4  23
HETATM   23  O   UNL     1      -8.244  11.176  66.756  1.00  0.00    -0.142 OA 
BRANCH  23  24
HETATM   24  C   UNL     1      -7.690  12.150  67.516  1.00  0.00    -0.159 C  
HETATM   25  O   UNL     1      -6.568  12.602  67.376  1.00  0.00    -0.146 OA 
BRANCH  24  26
HETATM   26  C   UNL     1      -8.763  12.707  68.434  1.00  0.00    -0.118 C  
BRANCH  26  27
HETATM   27  C   UNL     1      -8.960  14.198  68.271  1.00  0.00    -0.188 C  
BRANCH  27  28
HETATM   28  C   UNL     1      -9.739  14.521  67.001  1.00  0.00    -0.247 C  
BRANCH  28  29
HETATM   29  C   UNL     1      -9.180  15.765  66.324  1.00  0.00    -0.368 C  
HETATM   30  C   UNL     1      -8.802  16.810  67.357  1.00  0.00    -0.209 C  
ENDBRANCH  28  29
ENDBRANCH  27  28
ENDBRANCH  26  27
ENDBRANCH  24  26
ENDBRANCH  23  24
ENDBRANCH   4  23
TORSDOF 7
ENDMDL
MODEL       96
REMARK 921   NORMALIZED FREE ENERGY PREDICTED BY IDOCK:   -3.30 KCAL/MOL
REMARK 922        TOTAL FREE ENERGY PREDICTED BY IDOCK:   -4.74 KCAL/MOL
REMARK 923 INTER-LIGAND FREE ENERGY PREDICTED BY IDOCK:   -4.56 KCAL/MOL
REMARK 924 INTRA-LIGAND FREE ENERGY PREDICTED BY IDOCK:   -0.18 KCAL/MOL
REMARK 927      BINDING AFFINITY PREDICTED BY RF-SCORE:    0.00 PKD
ROOT
HETATM    1  C   UNL     1     -10.400   9.443  68.491  1.00  0.00    -0.236 C  
HETATM    2  C   UNL     1     -11.160  10.197  69.423  1.00  0.00    -0.288 C  
HETATM    3  C   UNL     1      -9.703  10.085  69.684  1.00  0.00    -0.255 C  
HETATM    4  C   UNL     1      -8.613   9.308  68.108  1.00  0.00    -0.125 C  
HETATM    5  C   UNL     1      -9.868   5.170  72.442  1.00  0.00    -0.208 C  
HETATM    6  O   UNL     1      -8.893   4.872  74.545  1.00  0.00    -0.111 OA 
HETATM    7  C   UNL     1      -8.828  10.606  68.481  1.00  0.00    -0.148 C  
HETATM    8  C   UNL     1      -8.724   5.223  73.376  1.00  0.00    -0.115 C  
HETATM    9  C   UNL     1      -9.781   5.622  71.179  1.00  0.00    -0.218 C  
HETATM   10  C   UNL     1      -7.566  10.351  69.811  1.00  0.00    -0.141 C  
HETATM   11  C   UNL     1      -8.900  11.900  67.686  1.00  0.00    -0.169 C  
HETATM   12  C   UNL     1      -7.396   5.753  72.901  1.00  0.00    -0.091 C  
HETATM   13  C   UNL     1     -10.985   5.646  70.261  1.00  0.00    -0.287 C  
HETATM   14  C   UNL     1      -7.537   8.743  70.362  1.00  0.00    -0.082 C  
HETATM   15  C   UNL     1      -7.252   5.878  71.394  1.00  0.00    -0.079 C  
HETATM   16  C   UNL     1     -10.014   7.797  69.199  1.00  0.00    -0.182 C  
HETATM   17  C   UNL     1      -8.841   7.738  70.395  1.00  0.00    -0.146 C  
HETATM   18  C   UNL     1     -11.278   7.029  69.646  1.00  0.00    -0.222 C  
HETATM   19  C   UNL     1      -8.515   6.229  70.598  1.00  0.00    -0.134 C  
ENDROOT
BRANCH   4  20
HETATM   20  C   UNL     1      -7.098   9.364  67.542  1.00  0.00    -0.078 C  
HETATM   21  O   UNL     1      -6.591  10.351  66.989  1.00  0.00    -0.071 OA 
HETATM   22  C   UNL     1      -6.248   8.117  67.570  1.00  0.00    -0.052 C  
ENDBRANCH   4  20
BRANCH   4  23
HETATM   23  O   UNL     1      -9.118   9.470  66.639  1.00  0.00    -0.142 OA 
BRANCH  23  24
HETATM   24  C   UNL     1      -8.902   8.555  65.664  1.00  0.00    -0.173 C  
HETATM   25  O   UNL     1      -8.250   8.742  64.654  1.00  0.00    -0.149 OA 
BRANCH  24  26
HETATM   26  C   UNL     1      -9.444   7.218  66.137  1.00  0.00    -0.064 C  
BRANCH  26  27
HETATM   27  C   UNL     1      -8.614   6.046  65.659  1.00  0.00    -0.154 C  
BRANCH  27  28
HETATM   28  C   UNL     1      -9.362   4.729  65.827  1.00  0.00    -0.163 C  
BRANCH  28  29
HETATM   29  C   UNL     1      -9.376   4.294  67.285  1.00  0.00    -0.186 C  
HETATM   30  C   UNL     1      -7.960   4.164  67.817  1.00  0.00    -0.090 C  
ENDBRANCH  28  29
ENDBRANCH  27  28
ENDBRANCH  26  27
ENDBRANCH  24  26
ENDBRANCH  23  24
ENDBRANCH   4  23
TORSDOF 7
ENDMDL
MODEL       97
REMARK 921   NORMALIZED FREE ENERGY PREDICTED BY IDOCK:   -3.29 KCAL/MOL
REMARK 922        TOTAL FREE ENERGY PREDICTED BY IDOCK:   -4.72 KCAL/MOL
REMARK 923 INTER-LIGAND FREE ENERGY PREDICTED BY IDOCK:   -4.30 KCAL/MOL
REMARK 924 INTRA-LIGAND FREE ENERGY PREDICTED BY IDOCK:   -0.43 KCAL/MOL
REMARK 927      BINDING AFFINITY PREDICTED BY RF-SCORE:    0.00 PKD
ROOT
HETATM    1  C   UNL     1      -7.443   9.568  67.100  1.00  0.00    -0.091 C  
HETATM    2  C   UNL     1      -7.364  10.167  65.815  1.00  0.00    -0.128 C  
HETATM    3  C   UNL     1      -8.706   9.716  66.260  1.00  0.00    -0.156 C  
HETATM    4  C   UNL     1      -8.814   9.209  68.261  1.00  0.00    -0.129 C  
HETATM    5  C   UNL     1      -8.229   4.356  64.577  1.00  0.00    -0.103 C  
HETATM    6  O   UNL     1      -9.822   3.315  63.219  1.00  0.00    -0.108 OA 
HETATM    7  C   UNL     1      -9.147  10.372  67.624  1.00  0.00    -0.143 C  
HETATM    8  C   UNL     1      -9.611   3.935  64.263  1.00  0.00    -0.168 C  
HETATM    9  C   UNL     1      -7.939   5.111  65.650  1.00  0.00    -0.108 C  
HETATM   10  C   UNL     1     -10.698   9.531  67.066  1.00  0.00    -0.220 C  
HETATM   11  C   UNL     1      -9.145  11.824  68.075  1.00  0.00    -0.180 C  
HETATM   12  C   UNL     1     -10.737   4.315  65.190  1.00  0.00    -0.134 C  
HETATM   13  C   UNL     1      -6.534   5.612  65.909  1.00  0.00    -0.040 C  
HETATM   14  C   UNL     1     -10.477   7.857  66.862  1.00  0.00    -0.388 C  
HETATM   15  C   UNL     1     -10.306   4.818  66.557  1.00  0.00    -0.284 C  
HETATM   16  C   UNL     1      -7.584   7.749  66.923  1.00  0.00    -0.099 C  
HETATM   17  C   UNL     1      -9.062   7.145  66.411  1.00  0.00    -0.189 C  
HETATM   18  C   UNL     1      -6.436   7.140  66.089  1.00  0.00    -0.051 C  
HETATM   19  C   UNL     1      -8.991   5.605  66.629  1.00  0.00    -0.120 C  
ENDROOT
BRANCH   4  20
HETATM   20  C   UNL     1      -9.930   9.133  69.431  1.00  0.00    -0.191 C  
HETATM   21  O   UNL     1     -10.459  10.120  69.963  1.00  0.00    -0.264 OA 
HETATM   22  C   UNL     1     -10.298   7.792  70.019  1.00  0.00    -0.221 C  
ENDBRANCH   4  20
BRANCH   4  23
HETATM   23  O   UNL     1      -7.842   9.860  69.297  1.00  0.00    -0.095 OA 
BRANCH  23  24
HETATM   24  C   UNL     1      -7.302   9.192  70.344  1.00  0.00    -0.100 C  
HETATM   25  O   UNL     1      -7.497   9.446  71.518  1.00  0.00    -0.337 OA 
BRANCH  24  26
HETATM   26  C   UNL     1      -6.578   7.970  69.809  1.00  0.00    -0.037 C  
BRANCH  26  27
HETATM   27  C   UNL     1      -6.788   6.741  70.665  1.00  0.00    -0.058 C  
BRANCH  27  28
HETATM   28  C   UNL     1      -7.459   5.622  69.878  1.00  0.00    -0.071 C  
BRANCH  28  29
HETATM   29  C   UNL     1      -6.422   4.743  69.192  1.00  0.00    -0.039 C  
HETATM   30  C   UNL     1      -6.973   3.348  68.960  1.00  0.00    -0.045 C  
ENDBRANCH  28  29
ENDBRANCH  27  28
ENDBRANCH  26  27
ENDBRANCH  24  26
ENDBRANCH  23  24
ENDBRANCH   4  23
TORSDOF 7
ENDMDL
MODEL       98
REMARK 921   NORMALIZED FREE ENERGY PREDICTED BY IDOCK:   -3.22 KCAL/MOL
REMARK 922        TOTAL FREE ENERGY PREDICTED BY IDOCK:   -4.62 KCAL/MOL
REMARK 923 INTER-LIGAND FREE ENERGY PREDICTED BY IDOCK:   -4.98 KCAL/MOL
REMARK 924 INTRA-LIGAND FREE ENERGY PREDICTED BY IDOCK:    0.36 KCAL/MOL
REMARK 927      BINDING AFFINITY PREDICTED BY RF-SCORE:    0.00 PKD
ROOT
HETATM    1  C   UNL     1      -9.632   6.246  68.015  1.00  0.00    -0.115 C  
HETATM    2  C   UNL     1     -10.827   5.797  67.395  1.00  0.00    -0.279 C  
HETATM    3  C   UNL     1     -10.975   6.537  68.673  1.00  0.00    -0.363 C  
HETATM    4  C   UNL     1      -9.252   7.480  69.316  1.00  0.00    -0.144 C  
HETATM    5  C   UNL     1     -10.258   2.129  72.114  1.00  0.00    -0.202 C  
HETATM    6  O   UNL     1     -11.772   1.597  73.814  1.00  0.00    -0.190 OA 
HETATM    7  C   UNL     1     -10.323   7.971  68.625  1.00  0.00    -0.224 C  
HETATM    8  C   UNL     1     -11.044   2.460  73.321  1.00  0.00    -0.150 C  
HETATM    9  C   UNL     1      -9.514   3.045  71.472  1.00  0.00    -0.216 C  
HETATM   10  C   UNL     1     -11.244   8.006  70.230  1.00  0.00    -0.192 C  
HETATM   11  C   UNL     1     -10.457   9.090  67.603  1.00  0.00    -0.324 C  
HETATM   12  C   UNL     1     -10.984   3.853  73.892  1.00  0.00    -0.285 C  
HETATM   13  C   UNL     1      -8.787   2.715  70.185  1.00  0.00    -0.144 C  
HETATM   14  C   UNL     1     -10.728   6.779  71.287  1.00  0.00    -0.257 C  
HETATM   15  C   UNL     1      -9.849   4.717  73.369  1.00  0.00    -0.165 C  
HETATM   16  C   UNL     1      -9.221   5.151  69.426  1.00  0.00    -0.155 C  
HETATM   17  C   UNL     1     -10.150   5.312  70.812  1.00  0.00    -0.294 C  
HETATM   18  C   UNL     1      -9.117   3.665  69.016  1.00  0.00    -0.202 C  
HETATM   19  C   UNL     1      -9.415   4.495  71.915  1.00  0.00    -0.201 C  
ENDROOT
BRANCH   4  20
HETATM   20  C   UNL     1      -8.836   8.742  70.240  1.00  0.00    -0.160 C  
HETATM   21  O   UNL     1      -8.912   9.928  69.885  1.00  0.00    -0.211 OA 
HETATM   22  C   UNL     1      -8.205   8.499  71.589  1.00  0.00    -0.209 C  
ENDBRANCH   4  20
BRANCH   4  23
HETATM   23  O   UNL     1      -8.167   7.935  68.288  1.00  0.00    -0.121 OA 
BRANCH  23  24
HETATM   24  C   UNL     1      -6.841   7.713  68.447  1.00  0.00    -0.070 C  
HETATM   25  O   UNL     1      -6.343   6.688  68.874  1.00  0.00    -0.032 OA 
BRANCH  24  26
HETATM   26  C   UNL     1      -6.085   8.875  67.826  1.00  0.00    -0.051 C  
BRANCH  26  27
HETATM   27  C   UNL     1      -5.328   9.696  68.846  1.00  0.00    -0.036 C  
BRANCH  27  28
HETATM   28  C   UNL     1      -6.099  10.954  69.231  1.00  0.00    -0.047 C  
BRANCH  28  29
HETATM   29  C   UNL     1      -5.326  11.771  70.257  1.00  0.00    -0.110 C  
HETATM   30  C   UNL     1      -6.140  12.969  70.709  1.00  0.00     0.172 C  
ENDBRANCH  28  29
ENDBRANCH  27  28
ENDBRANCH  26  27
ENDBRANCH  24  26
ENDBRANCH  23  24
ENDBRANCH   4  23
TORSDOF 7
ENDMDL
MODEL       99
REMARK 921   NORMALIZED FREE ENERGY PREDICTED BY IDOCK:   -3.15 KCAL/MOL
REMARK 922        TOTAL FREE ENERGY PREDICTED BY IDOCK:   -4.53 KCAL/MOL
REMARK 923 INTER-LIGAND FREE ENERGY PREDICTED BY IDOCK:   -5.19 KCAL/MOL
REMARK 924 INTRA-LIGAND FREE ENERGY PREDICTED BY IDOCK:    0.66 KCAL/MOL
REMARK 927      BINDING AFFINITY PREDICTED BY RF-SCORE:    0.00 PKD
ROOT
HETATM    1  C   UNL     1     -10.766  11.450  68.579  1.00  0.00    -0.235 C  
HETATM    2  C   UNL     1     -12.161  11.522  68.325  1.00  0.00    -0.073 C  
HETATM    3  C   UNL     1     -11.258  11.780  67.175  1.00  0.00    -0.375 C  
HETATM    4  C   UNL     1      -9.279  11.290  67.521  1.00  0.00    -0.158 C  
HETATM    5  C   UNL     1     -10.429  17.269  68.160  1.00  0.00    -0.382 C  
HETATM    6  O   UNL     1     -10.759  18.906  66.525  1.00  0.00    -0.391 OA 
HETATM    7  C   UNL     1     -10.269  10.583  66.898  1.00  0.00    -0.280 C  
HETATM    8  C   UNL     1     -10.185  17.859  66.827  1.00  0.00    -0.360 C  
HETATM    9  C   UNL     1      -9.909  16.084  68.523  1.00  0.00    -0.216 C  
HETATM   10  C   UNL     1     -10.008  11.667  65.421  1.00  0.00    -0.287 C  
HETATM   11  C   UNL     1     -10.529   9.091  66.758  1.00  0.00    -0.270 C  
HETATM   12  C   UNL     1      -9.289  17.146  65.848  1.00  0.00    -0.061 C  
HETATM   13  C   UNL     1     -10.242  15.448  69.857  1.00  0.00    -0.279 C  
HETATM   14  C   UNL     1      -9.489  13.226  65.858  1.00  0.00    -0.045 C  
HETATM   15  C   UNL     1      -8.436  16.038  66.441  1.00  0.00    -0.363 C  
HETATM   16  C   UNL     1     -10.073  13.143  68.693  1.00  0.00    -0.146 C  
HETATM   17  C   UNL     1      -9.895  13.992  67.258  1.00  0.00    -0.242 C  
HETATM   18  C   UNL     1     -10.792  14.012  69.748  1.00  0.00     0.064 C  
HETATM   19  C   UNL     1      -9.036  15.243  67.607  1.00  0.00    -0.184 C  
ENDROOT
BRANCH   4  20
HETATM   20  C   UNL     1      -7.971  10.866  66.667  1.00  0.00    -0.148 C  
HETATM   21  O   UNL     1      -7.069  11.646  66.327  1.00  0.00     0.048 OA 
HETATM   22  C   UNL     1      -7.859   9.458  66.133  1.00  0.00    -0.100 C  
ENDBRANCH   4  20
BRANCH   4  23
HETATM   23  O   UNL     1      -8.906  10.181  68.554  1.00  0.00    -0.119 OA 
BRANCH  23  24
HETATM   24  C   UNL     1      -7.855  10.266  69.404  1.00  0.00    -0.157 C  
HETATM   25  O   UNL     1      -7.306  11.298  69.746  1.00  0.00     0.001 OA 
BRANCH  24  26
HETATM   26  C   UNL     1      -7.608   8.891  69.999  1.00  0.00    -0.066 C  
BRANCH  26  27
HETATM   27  C   UNL     1      -8.733   7.920  69.719  1.00  0.00    -0.137 C  
BRANCH  27  28
HETATM   28  C   UNL     1      -8.209   6.614  69.133  1.00  0.00    -0.120 C  
BRANCH  28  29
HETATM   29  C   UNL     1      -7.345   5.874  70.145  1.00  0.00    -0.077 C  
HETATM   30  C   UNL     1      -6.239   5.108  69.443  1.00  0.00    -0.033 C  
ENDBRANCH  28  29
ENDBRANCH  27  28
ENDBRANCH  26  27
ENDBRANCH  24  26
ENDBRANCH  23  24
ENDBRANCH   4  23
TORSDOF 7
ENDMDL
MODEL      100
REMARK 921   NORMALIZED FREE ENERGY PREDICTED BY IDOCK:   -3.15 KCAL/MOL
REMARK 922        TOTAL FREE ENERGY PREDICTED BY IDOCK:   -4.52 KCAL/MOL
REMARK 923 INTER-LIGAND FREE ENERGY PREDICTED BY IDOCK:   -4.86 KCAL/MOL
REMARK 924 INTRA-LIGAND FREE ENERGY PREDICTED BY IDOCK:    0.34 KCAL/MOL
REMARK 927      BINDING AFFINITY PREDICTED BY RF-SCORE:    0.00 PKD
ROOT
HETATM    1  C   UNL     1      -8.985   9.701  69.359  1.00  0.00    -0.186 C  
HETATM    2  C   UNL     1      -8.568   9.110  70.581  1.00  0.00    -0.266 C  
HETATM    3  C   UNL     1      -7.648   8.973  69.424  1.00  0.00    -0.078 C  
HETATM    4  C   UNL     1      -8.131  10.166  67.806  1.00  0.00    -0.109 C  
HETATM    5  C   UNL     1     -10.029   4.379  67.184  1.00  0.00    -0.182 C  
HETATM    6  O   UNL     1      -8.807   2.459  66.651  1.00  0.00    -0.119 OA 
HETATM    7  C   UNL     1      -7.228  10.364  68.813  1.00  0.00    -0.085 C  
HETATM    8  C   UNL     1      -8.923   3.677  66.499  1.00  0.00    -0.147 C  
HETATM    9  C   UNL     1     -10.163   5.716  67.137  1.00  0.00    -0.255 C  
HETATM   10  C   UNL     1      -6.105   9.186  67.933  1.00  0.00    -0.050 C  
HETATM   11  C   UNL     1      -6.699  11.624  69.481  1.00  0.00    -0.089 C  
HETATM   12  C   UNL     1      -7.932   4.462  65.680  1.00  0.00    -0.095 C  
HETATM   13  C   UNL     1     -11.247   6.430  67.918  1.00  0.00    -0.262 C  
HETATM   14  C   UNL     1      -6.971   8.008  67.066  1.00  0.00    -0.074 C  
HETATM   15  C   UNL     1      -8.351   5.885  65.349  1.00  0.00    -0.149 C  
HETATM   16  C   UNL     1      -9.596   8.401  68.222  1.00  0.00    -0.156 C  
HETATM   17  C   UNL     1      -8.446   7.418  67.500  1.00  0.00    -0.116 C  
HETATM   18  C   UNL     1     -10.721   7.545  68.845  1.00  0.00    -0.135 C  
HETATM   19  C   UNL     1      -9.199   6.624  66.392  1.00  0.00    -0.180 C  
ENDROOT
BRANCH   4  20
HETATM   20  C   UNL     1      -7.386  10.851  66.543  1.00  0.00    -0.142 C  
HETATM   21  O   UNL     1      -6.517  11.731  66.632  1.00  0.00    -0.114 OA 
HETATM   22  C   UNL     1      -7.827  10.502  65.142  1.00  0.00    -0.076 C  
ENDBRANCH   4  20
BRANCH   4  23
HETATM   23  O   UNL     1      -8.908  11.505  68.013  1.00  0.00    -0.146 OA 
BRANCH  23  24
HETATM   24  C   UNL     1     -10.004  11.857  67.300  1.00  0.00    -0.186 C  
HETATM   25  O   UNL     1     -10.637  11.118  66.568  1.00  0.00    -0.247 OA 
BRANCH  24  26
HETATM   26  C   UNL     1     -10.414  13.258  67.715  1.00  0.00    -0.242 C  
BRANCH  26  27
HETATM   27  C   UNL     1      -9.343  13.973  68.509  1.00  0.00    -0.182 C  
BRANCH  27  28
HETATM   28  C   UNL     1      -9.522  15.486  68.450  1.00  0.00    -0.196 C  
BRANCH  28  29
HETATM   29  C   UNL     1     -10.341  15.888  67.232  1.00  0.00    -0.293 C  
HETATM   30  C   UNL     1      -9.565  16.860  66.363  1.00  0.00    -0.305 C  
ENDBRANCH  28  29
ENDBRANCH  27  28
ENDBRANCH  26  27
ENDBRANCH  24  26
ENDBRANCH  23  24
ENDBRANCH   4  23
TORSDOF 7
ENDMDL
MODEL      101
REMARK 921   NORMALIZED FREE ENERGY PREDICTED BY IDOCK:   -3.12 KCAL/MOL
REMARK 922        TOTAL FREE ENERGY PREDICTED BY IDOCK:   -4.48 KCAL/MOL
REMARK 923 INTER-LIGAND FREE ENERGY PREDICTED BY IDOCK:   -4.99 KCAL/MOL
REMARK 924 INTRA-LIGAND FREE ENERGY PREDICTED BY IDOCK:    0.51 KCAL/MOL
REMARK 927      BINDING AFFINITY PREDICTED BY RF-SCORE:    0.00 PKD
ROOT
HETATM    1  C   UNL     1     -10.222   5.943  70.446  1.00  0.00    -0.273 C  
HETATM    2  C   UNL     1     -10.131   4.546  70.679  1.00  0.00    -0.232 C  
HETATM    3  C   UNL     1      -8.870   5.323  70.775  1.00  0.00    -0.151 C  
HETATM    4  C   UNL     1      -9.133   7.373  70.801  1.00  0.00    -0.151 C  
HETATM    5  C   UNL     1      -7.571   5.216  65.290  1.00  0.00    -0.082 C  
HETATM    6  O   UNL     1      -5.487   4.509  64.502  1.00  0.00    -0.013 OA 
HETATM    7  C   UNL     1      -8.954   6.491  71.830  1.00  0.00    -0.137 C  
HETATM    8  C   UNL     1      -6.095   5.276  65.250  1.00  0.00    -0.030 C  
HETATM    9  C   UNL     1      -8.294   5.957  66.146  1.00  0.00    -0.124 C  
HETATM   10  C   UNL     1      -7.154   6.473  71.398  1.00  0.00    -0.077 C  
HETATM   11  C   UNL     1      -9.428   6.493  73.275  1.00  0.00    -0.157 C  
HETATM   12  C   UNL     1      -5.361   6.229  66.159  1.00  0.00    -0.013 C  
HETATM   13  C   UNL     1      -9.799   5.819  66.239  1.00  0.00    -0.136 C  
HETATM   14  C   UNL     1      -6.895   6.729  69.738  1.00  0.00    -0.054 C  
HETATM   15  C   UNL     1      -6.225   7.297  66.807  1.00  0.00    -0.043 C  
HETATM   16  C   UNL     1      -9.594   6.330  68.768  1.00  0.00    -0.128 C  
HETATM   17  C   UNL     1      -7.934   6.273  68.544  1.00  0.00    -0.105 C  
HETATM   18  C   UNL     1     -10.315   5.527  67.663  1.00  0.00    -0.256 C  
HETATM   19  C   UNL     1      -7.671   6.914  67.149  1.00  0.00    -0.108 C  
ENDROOT
BRANCH   4  20
HETATM   20  C   UNL     1      -8.355   8.686  71.341  1.00  0.00    -0.168 C  
HETATM   21  O   UNL     1      -8.289   9.024  72.532  1.00  0.00    -0.332 OA 
HETATM   22  C   UNL     1      -7.749   9.649  70.350  1.00  0.00    -0.178 C  
ENDBRANCH   4  20
BRANCH   4  23
HETATM   23  O   UNL     1     -10.459   7.995  71.344  1.00  0.00    -0.209 OA 
BRANCH  23  24
HETATM   24  C   UNL     1     -11.276   8.785  70.607  1.00  0.00    -0.257 C  
HETATM   25  O   UNL     1     -11.014   9.242  69.510  1.00  0.00    -0.227 OA 
BRANCH  24  26
HETATM   26  C   UNL     1     -12.631   8.840  71.291  1.00  0.00    -0.285 C  
BRANCH  26  27
HETATM   27  C   UNL     1     -12.724   9.943  72.322  1.00  0.00    -0.283 C  
BRANCH  27  28
HETATM   28  C   UNL     1     -13.730  11.010  71.906  1.00  0.00     0.066 C  
BRANCH  28  29
HETATM   29  C   UNL     1     -13.142  12.404  72.072  1.00  0.00    -0.470 C  
HETATM   30  C   UNL     1     -12.378  12.813  70.826  1.00  0.00    -0.375 C  
ENDBRANCH  28  29
ENDBRANCH  27  28
ENDBRANCH  26  27
ENDBRANCH  24  26
ENDBRANCH  23  24
ENDBRANCH   4  23
TORSDOF 7
ENDMDL
MODEL      102
REMARK 921   NORMALIZED FREE ENERGY PREDICTED BY IDOCK:   -3.09 KCAL/MOL
REMARK 922        TOTAL FREE ENERGY PREDICTED BY IDOCK:   -4.43 KCAL/MOL
REMARK 923 INTER-LIGAND FREE ENERGY PREDICTED BY IDOCK:   -4.65 KCAL/MOL
REMARK 924 INTRA-LIGAND FREE ENERGY PREDICTED BY IDOCK:    0.21 KCAL/MOL
REMARK 927      BINDING AFFINITY PREDICTED BY RF-SCORE:    0.00 PKD
ROOT
HETATM    1  C   UNL     1     -10.082   9.093  70.427  1.00  0.00    -0.264 C  
HETATM    2  C   UNL     1     -11.084  10.007  70.009  1.00  0.00    -0.350 C  
HETATM    3  C   UNL     1     -10.961   8.750  69.230  1.00  0.00    -0.006 C  
HETATM    4  C   UNL     1      -9.758   7.317  70.111  1.00  0.00    -0.172 C  
HETATM    5  C   UNL     1      -6.901  10.496  65.730  1.00  0.00    -0.127 C  
HETATM    6  O   UNL     1      -7.082  10.325  63.405  1.00  0.00    -0.137 OA 
HETATM    7  C   UNL     1     -11.118   7.462  70.126  1.00  0.00    -0.265 C  
HETATM    8  C   UNL     1      -7.121   9.731  64.485  1.00  0.00    -0.128 C  
HETATM    9  C   UNL     1      -7.020   9.934  66.945  1.00  0.00    -0.088 C  
HETATM   10  C   UNL     1     -11.133   6.761  68.413  1.00  0.00    -0.214 C  
HETATM   11  C   UNL     1     -12.177   7.087  71.151  1.00  0.00    -0.427 C  
HETATM   12  C   UNL     1      -7.443   8.261  64.558  1.00  0.00    -0.101 C  
HETATM   13  C   UNL     1      -6.881  10.750  68.213  1.00  0.00    -0.067 C  
HETATM   14  C   UNL     1      -9.713   7.137  67.558  1.00  0.00    -0.176 C  
HETATM   15  C   UNL     1      -7.182   7.610  65.905  1.00  0.00    -0.069 C  
HETATM   16  C   UNL     1      -8.645   9.194  69.294  1.00  0.00    -0.137 C  
HETATM   17  C   UNL     1      -8.820   8.504  67.776  1.00  0.00    -0.137 C  
HETATM   18  C   UNL     1      -8.082  10.628  69.172  1.00  0.00    -0.143 C  
HETATM   19  C   UNL     1      -7.393   8.476  67.153  1.00  0.00    -0.084 C  
ENDROOT
BRANCH   4  20
HETATM   20  C   UNL     1      -9.590   5.707  70.101  1.00  0.00    -0.167 C  
HETATM   21  O   UNL     1     -10.423   4.910  70.557  1.00  0.00    -0.216 OA 
HETATM   22  C   UNL     1      -8.297   5.100  69.613  1.00  0.00    -0.093 C  
ENDBRANCH   4  20
BRANCH   4  23
HETATM   23  O   UNL     1      -9.578   7.278  71.662  1.00  0.00    -0.153 OA 
BRANCH  23  24
HETATM   24  C   UNL     1      -8.425   6.923  72.277  1.00  0.00    -0.108 C  
HETATM   25  O   UNL     1      -7.309   7.278  71.943  1.00  0.00    -0.078 OA 
BRANCH  24  26
HETATM   26  C   UNL     1      -8.774   6.177  73.552  1.00  0.00    -0.125 C  
BRANCH  26  27
HETATM   27  C   UNL     1      -8.227   4.767  73.576  1.00  0.00    -0.107 C  
BRANCH  27  28
HETATM   28  C   UNL     1      -9.029   3.874  74.516  1.00  0.00    -0.102 C  
BRANCH  28  29
HETATM   29  C   UNL     1      -9.626   2.693  73.763  1.00  0.00    -0.121 C  
HETATM   30  C   UNL     1     -11.068   2.976  73.383  1.00  0.00    -0.285 C  
ENDBRANCH  28  29
ENDBRANCH  27  28
ENDBRANCH  26  27
ENDBRANCH  24  26
ENDBRANCH  23  24
ENDBRANCH   4  23
TORSDOF 7
ENDMDL
MODEL      103
REMARK 921   NORMALIZED FREE ENERGY PREDICTED BY IDOCK:   -3.07 KCAL/MOL
REMARK 922        TOTAL FREE ENERGY PREDICTED BY IDOCK:   -4.41 KCAL/MOL
REMARK 923 INTER-LIGAND FREE ENERGY PREDICTED BY IDOCK:   -5.20 KCAL/MOL
REMARK 924 INTRA-LIGAND FREE ENERGY PREDICTED BY IDOCK:    0.79 KCAL/MOL
REMARK 927      BINDING AFFINITY PREDICTED BY RF-SCORE:    0.00 PKD
ROOT
HETATM    1  C   UNL     1      -8.665   9.470  69.559  1.00  0.00    -0.178 C  
HETATM    2  C   UNL     1      -8.265   8.902  70.797  1.00  0.00    -0.198 C  
HETATM    3  C   UNL     1      -7.338   8.727  69.651  1.00  0.00    -0.059 C  
HETATM    4  C   UNL     1      -7.794   9.887  68.002  1.00  0.00    -0.086 C  
HETATM    5  C   UNL     1      -9.759   4.111  67.501  1.00  0.00    -0.185 C  
HETATM    6  O   UNL     1      -8.557   2.164  67.023  1.00  0.00    -0.094 OA 
HETATM    7  C   UNL     1      -6.896  10.098  69.011  1.00  0.00    -0.056 C  
HETATM    8  C   UNL     1      -8.657   3.379  66.842  1.00  0.00    -0.114 C  
HETATM    9  C   UNL     1      -9.876   5.448  67.423  1.00  0.00    -0.175 C  
HETATM   10  C   UNL     1      -5.781   8.886  68.167  1.00  0.00    -0.039 C  
HETATM   11  C   UNL     1      -6.356  11.366  69.653  1.00  0.00    -0.127 C  
HETATM   12  C   UNL     1      -7.650   4.133  66.012  1.00  0.00    -0.089 C  
HETATM   13  C   UNL     1     -10.956   6.194  68.177  1.00  0.00    -0.398 C  
HETATM   14  C   UNL     1      -6.655   7.698  67.321  1.00  0.00    -0.063 C  
HETATM   15  C   UNL     1      -8.049   5.552  65.645  1.00  0.00    -0.118 C  
HETATM   16  C   UNL     1      -9.284   8.150  68.448  1.00  0.00    -0.135 C  
HETATM   17  C   UNL     1      -8.140   7.136  67.758  1.00  0.00    -0.115 C  
HETATM   18  C   UNL     1     -10.424   7.323  69.082  1.00  0.00    -0.222 C  
HETATM   19  C   UNL     1      -8.896   6.326  66.664  1.00  0.00    -0.132 C  
ENDROOT
BRANCH   4  20
HETATM   20  C   UNL     1      -7.031  10.532  66.729  1.00  0.00    -0.104 C  
HETATM   21  O   UNL     1      -7.170  10.149  65.558  1.00  0.00    -0.129 OA 
HETATM   22  C   UNL     1      -5.987  11.600  66.952  1.00  0.00    -0.145 C  
ENDBRANCH   4  20
BRANCH   4  23
HETATM   23  O   UNL     1      -8.555  11.240  68.171  1.00  0.00    -0.137 OA 
BRANCH  23  24
HETATM   24  C   UNL     1      -9.678  11.562  67.485  1.00  0.00    -0.179 C  
HETATM   25  O   UNL     1     -10.106  10.968  66.513  1.00  0.00    -0.211 OA 
BRANCH  24  26
HETATM   26  C   UNL     1     -10.403  12.658  68.246  1.00  0.00    -0.246 C  
BRANCH  26  27
HETATM   27  C   UNL     1     -11.873  12.361  68.445  1.00  0.00    -0.361 C  
BRANCH  27  28
HETATM   28  C   UNL     1     -12.084  10.992  69.079  1.00  0.00    -0.285 C  
BRANCH  28  29
HETATM   29  C   UNL     1     -11.486  10.944  70.478  1.00  0.00    -0.314 C  
HETATM   30  C   UNL     1     -12.573  10.737  71.517  1.00  0.00    -0.500 C  
ENDBRANCH  28  29
ENDBRANCH  27  28
ENDBRANCH  26  27
ENDBRANCH  24  26
ENDBRANCH  23  24
ENDBRANCH   4  23
TORSDOF 7
ENDMDL
MODEL      104
REMARK 921   NORMALIZED FREE ENERGY PREDICTED BY IDOCK:   -3.03 KCAL/MOL
REMARK 922        TOTAL FREE ENERGY PREDICTED BY IDOCK:   -4.36 KCAL/MOL
REMARK 923 INTER-LIGAND FREE ENERGY PREDICTED BY IDOCK:   -5.42 KCAL/MOL
REMARK 924 INTRA-LIGAND FREE ENERGY PREDICTED BY IDOCK:    1.06 KCAL/MOL
REMARK 927      BINDING AFFINITY PREDICTED BY RF-SCORE:    0.00 PKD
ROOT
HETATM    1  C   UNL     1      -9.962  14.571  68.856  1.00  0.00    -0.206 C  
HETATM    2  C   UNL     1     -10.693  15.292  69.836  1.00  0.00    -0.300 C  
HETATM    3  C   UNL     1     -10.868  15.718  68.425  1.00  0.00    -0.297 C  
HETATM    4  C   UNL     1     -10.085  14.402  67.036  1.00  0.00    -0.256 C  
HETATM    5  C   UNL     1      -6.411  19.162  68.182  1.00  0.00    -0.238 C  
HETATM    6  O   UNL     1      -6.567  21.376  67.450  1.00  0.00    -0.529 OA 
HETATM    7  C   UNL     1     -11.365  14.547  67.494  1.00  0.00    -0.355 C  
HETATM    8  C   UNL     1      -6.782  20.191  67.189  1.00  0.00    -0.227 C  
HETATM    9  C   UNL     1      -6.697  17.861  68.005  1.00  0.00    -0.196 C  
HETATM   10  C   UNL     1     -11.510  16.025  66.389  1.00  0.00     0.454 C  
HETATM   11  C   UNL     1     -12.510  13.561  67.663  1.00  0.00     0.197 C  
HETATM   12  C   UNL     1      -7.463  19.782  65.909  1.00  0.00    -0.335 C  
HETATM   13  C   UNL     1      -6.393  16.830  69.071  1.00  0.00    -0.187 C  
HETATM   14  C   UNL     1     -10.019  16.815  66.182  1.00  0.00    -0.345 C  
HETATM   15  C   UNL     1      -7.408  18.297  65.594  1.00  0.00    -0.074 C  
HETATM   16  C   UNL     1      -8.517  15.558  68.315  1.00  0.00    -0.156 C  
HETATM   17  C   UNL     1      -8.819  16.865  67.309  1.00  0.00    -0.206 C  
HETATM   18  C   UNL     1      -7.611  15.983  69.492  1.00  0.00    -0.100 C  
HETATM   19  C   UNL     1      -7.429  17.329  66.784  1.00  0.00    -0.258 C  
ENDROOT
BRANCH   4  20
HETATM   20  C   UNL     1     -10.324  13.995  65.488  1.00  0.00    -0.339 C  
HETATM   21  O   UNL     1      -9.745  14.520  64.525  1.00  0.00     0.157 OA 
HETATM   22  C   UNL     1     -11.395  12.989  65.141  1.00  0.00    -0.320 C  
ENDBRANCH   4  20
BRANCH   4  23
HETATM   23  O   UNL     1      -9.961  12.881  67.368  1.00  0.00    -0.213 OA 
BRANCH  23  24
HETATM   24  C   UNL     1      -8.831  12.159  67.175  1.00  0.00    -0.191 C  
HETATM   25  O   UNL     1      -7.725  12.621  66.970  1.00  0.00    -0.123 OA 
BRANCH  24  26
HETATM   26  C   UNL     1      -9.146  10.699  67.448  1.00  0.00    -0.146 C  
BRANCH  26  27
HETATM   27  C   UNL     1      -9.627   9.961  66.218  1.00  0.00    -0.265 C  
BRANCH  27  28
HETATM   28  C   UNL     1      -8.459   9.468  65.372  1.00  0.00    -0.157 C  
BRANCH  28  29
HETATM   29  C   UNL     1      -8.088  10.492  64.310  1.00  0.00    -0.035 C  
HETATM   30  C   UNL     1      -8.441   9.979  62.926  1.00  0.00    -0.176 C  
ENDBRANCH  28  29
ENDBRANCH  27  28
ENDBRANCH  26  27
ENDBRANCH  24  26
ENDBRANCH  23  24
ENDBRANCH   4  23
TORSDOF 7
ENDMDL
MODEL      105
REMARK 921   NORMALIZED FREE ENERGY PREDICTED BY IDOCK:   -3.02 KCAL/MOL
REMARK 922        TOTAL FREE ENERGY PREDICTED BY IDOCK:   -4.34 KCAL/MOL
REMARK 923 INTER-LIGAND FREE ENERGY PREDICTED BY IDOCK:   -5.03 KCAL/MOL
REMARK 924 INTRA-LIGAND FREE ENERGY PREDICTED BY IDOCK:    0.69 KCAL/MOL
REMARK 927      BINDING AFFINITY PREDICTED BY RF-SCORE:    0.00 PKD
ROOT
HETATM    1  C   UNL     1      -9.651  11.851  64.898  1.00  0.00    -0.087 C  
HETATM    2  C   UNL     1     -10.649  11.596  63.921  1.00  0.00    -0.446 C  
HETATM    3  C   UNL     1     -10.907  11.083  65.290  1.00  0.00    -0.172 C  
HETATM    4  C   UNL     1      -9.613  11.809  66.729  1.00  0.00    -0.200 C  
HETATM    5  C   UNL     1      -8.117   6.215  64.744  1.00  0.00    -0.132 C  
HETATM    6  O   UNL     1      -9.080   4.146  65.250  1.00  0.00    -0.126 OA 
HETATM    7  C   UNL     1     -10.870  12.219  66.382  1.00  0.00    -0.299 C  
HETATM    8  C   UNL     1      -8.809   5.279  65.654  1.00  0.00    -0.152 C  
HETATM    9  C   UNL     1      -7.871   7.492  65.084  1.00  0.00    -0.122 C  
HETATM   10  C   UNL     1     -11.522  10.772  67.334  1.00  0.00    -0.113 C  
HETATM   11  C   UNL     1     -11.553  13.577  66.428  1.00  0.00    -0.381 C  
HETATM   12  C   UNL     1      -9.219   5.739  67.029  1.00  0.00    -0.118 C  
HETATM   13  C   UNL     1      -7.243   8.465  64.108  1.00  0.00    -0.092 C  
HETATM   14  C   UNL     1     -10.442   9.458  67.314  1.00  0.00    -0.332 C  
HETATM   15  C   UNL     1      -8.580   7.037  67.492  1.00  0.00    -0.121 C  
HETATM   16  C   UNL     1      -8.674  10.329  65.192  1.00  0.00    -0.189 C  
HETATM   17  C   UNL     1      -9.410   9.111  66.078  1.00  0.00    -0.300 C  
HETATM   18  C   UNL     1      -8.059   9.756  63.896  1.00  0.00    -0.150 C  
HETATM   19  C   UNL     1      -8.283   8.091  66.418  1.00  0.00    -0.113 C  
ENDROOT
BRANCH   4  20
HETATM   20  C   UNL     1      -9.603  12.065  68.327  1.00  0.00    -0.204 C  
HETATM   21  O   UNL     1      -8.944  11.400  69.142  1.00  0.00     0.024 OA 
HETATM   22  C   UNL     1     -10.528  13.100  68.919  1.00  0.00    -0.117 C  
ENDBRANCH   4  20
BRANCH   4  23
HETATM   23  O   UNL     1      -8.928  13.201  66.549  1.00  0.00    -0.177 OA 
BRANCH  23  24
HETATM   24  C   UNL     1      -7.669  13.478  66.964  1.00  0.00     0.176 C  
HETATM   25  O   UNL     1      -6.725  12.712  66.915  1.00  0.00    -0.047 OA 
BRANCH  24  26
HETATM   26  C   UNL     1      -7.596  14.954  67.315  1.00  0.00    -0.213 C  
BRANCH  26  27
HETATM   27  C   UNL     1      -7.507  15.200  68.805  1.00  0.00    -0.132 C  
BRANCH  27  28
HETATM   28  C   UNL     1      -8.360  16.392  69.224  1.00  0.00    -0.101 C  
BRANCH  28  29
HETATM   29  C   UNL     1      -8.671  17.283  68.031  1.00  0.00    -0.231 C  
HETATM   30  C   UNL     1     -10.100  17.792  68.102  1.00  0.00    -0.362 C  
ENDBRANCH  28  29
ENDBRANCH  27  28
ENDBRANCH  26  27
ENDBRANCH  24  26
ENDBRANCH  23  24
ENDBRANCH   4  23
TORSDOF 7
ENDMDL
MODEL      106
REMARK 921   NORMALIZED FREE ENERGY PREDICTED BY IDOCK:   -2.86 KCAL/MOL
REMARK 922        TOTAL FREE ENERGY PREDICTED BY IDOCK:   -4.12 KCAL/MOL
REMARK 923 INTER-LIGAND FREE ENERGY PREDICTED BY IDOCK:   -4.32 KCAL/MOL
REMARK 924 INTRA-LIGAND FREE ENERGY PREDICTED BY IDOCK:    0.20 KCAL/MOL
REMARK 927      BINDING AFFINITY PREDICTED BY RF-SCORE:    0.00 PKD
ROOT
HETATM    1  C   UNL     1      -9.202   6.751  67.376  1.00  0.00    -0.130 C  
HETATM    2  C   UNL     1     -10.381   6.068  66.978  1.00  0.00    -0.296 C  
HETATM    3  C   UNL     1     -10.555   7.224  67.892  1.00  0.00    -0.266 C  
HETATM    4  C   UNL     1      -8.863   8.389  68.123  1.00  0.00    -0.142 C  
HETATM    5  C   UNL     1      -9.704   4.428  72.714  1.00  0.00    -0.185 C  
HETATM    6  O   UNL     1     -11.204   4.519  74.505  1.00  0.00    -0.059 OA 
HETATM    7  C   UNL     1      -9.948   8.557  67.309  1.00  0.00    -0.289 C  
HETATM    8  C   UNL     1     -10.503   5.160  73.720  1.00  0.00    -0.261 C  
HETATM    9  C   UNL     1      -8.988   5.064  71.770  1.00  0.00    -0.149 C  
HETATM   10  C   UNL     1     -10.873   9.157  68.796  1.00  0.00    -0.096 C  
HETATM   11  C   UNL     1     -10.116   9.213  65.947  1.00  0.00    -0.118 C  
HETATM   12  C   UNL     1     -10.488   6.666  73.734  1.00  0.00    -0.357 C  
HETATM   13  C   UNL     1      -8.249   4.302  70.690  1.00  0.00    -0.076 C  
HETATM   14  C   UNL     1     -10.319   8.425  70.228  1.00  0.00    -0.212 C  
HETATM   15  C   UNL     1      -9.380   7.309  72.917  1.00  0.00    -0.194 C  
HETATM   16  C   UNL     1      -8.759   6.269  69.087  1.00  0.00    -0.123 C  
HETATM   17  C   UNL     1      -9.695   6.904  70.325  1.00  0.00    -0.176 C  
HETATM   18  C   UNL     1      -8.607   4.742  69.256  1.00  0.00    -0.098 C  
HETATM   19  C   UNL     1      -8.936   6.577  71.644  1.00  0.00    -0.143 C  
ENDROOT
BRANCH   4  20
HETATM   20  C   UNL     1      -8.489   9.916  68.509  1.00  0.00    -0.112 C  
HETATM   21  O   UNL     1      -8.658  10.891  67.762  1.00  0.00    -0.125 OA 
HETATM   22  C   UNL     1      -7.784  10.201  69.813  1.00  0.00    -0.176 C  
ENDBRANCH   4  20
BRANCH   4  23
HETATM   23  O   UNL     1      -7.791   8.464  66.989  1.00  0.00    -0.094 OA 
BRANCH  23  24
HETATM   24  C   UNL     1      -6.465   8.287  67.195  1.00  0.00    -0.058 C  
HETATM   25  O   UNL     1      -5.962   7.834  68.207  1.00  0.00    -0.037 OA 
BRANCH  24  26
HETATM   26  C   UNL     1      -5.738   8.565  65.891  1.00  0.00    -0.046 C  
BRANCH  26  27
HETATM   27  C   UNL     1      -6.476   9.544  65.004  1.00  0.00    -0.084 C  
BRANCH  27  28
HETATM   28  C   UNL     1      -6.139   9.327  63.534  1.00  0.00    -0.090 C  
BRANCH  28  29
HETATM   29  C   UNL     1      -5.891   7.853  63.246  1.00  0.00    -0.062 C  
HETATM   30  C   UNL     1      -7.203   7.093  63.182  1.00  0.00    -0.071 C  
ENDBRANCH  28  29
ENDBRANCH  27  28
ENDBRANCH  26  27
ENDBRANCH  24  26
ENDBRANCH  23  24
ENDBRANCH   4  23
TORSDOF 7
ENDMDL
MODEL      107
REMARK 921   NORMALIZED FREE ENERGY PREDICTED BY IDOCK:   -2.86 KCAL/MOL
REMARK 922        TOTAL FREE ENERGY PREDICTED BY IDOCK:   -4.12 KCAL/MOL
REMARK 923 INTER-LIGAND FREE ENERGY PREDICTED BY IDOCK:   -4.38 KCAL/MOL
REMARK 924 INTRA-LIGAND FREE ENERGY PREDICTED BY IDOCK:    0.26 KCAL/MOL
REMARK 927      BINDING AFFINITY PREDICTED BY RF-SCORE:    0.00 PKD
ROOT
HETATM    1  C   UNL     1      -9.827   8.676  68.377  1.00  0.00    -0.189 C  
HETATM    2  C   UNL     1     -11.009   7.984  68.007  1.00  0.00     0.113 C  
HETATM    3  C   UNL     1     -10.172   7.359  69.061  1.00  0.00    -0.201 C  
HETATM    4  C   UNL     1      -8.690   8.589  69.812  1.00  0.00    -0.132 C  
HETATM    5  C   UNL     1      -6.641   4.628  65.618  1.00  0.00    -0.041 C  
HETATM    6  O   UNL     1      -6.204   2.340  65.817  1.00  0.00    -0.022 OA 
HETATM    7  C   UNL     1      -9.938   8.312  70.296  1.00  0.00    -0.188 C  
HETATM    8  C   UNL     1      -6.216   3.436  66.381  1.00  0.00    -0.028 C  
HETATM    9  C   UNL     1      -6.765   5.837  66.192  1.00  0.00    -0.057 C  
HETATM   10  C   UNL     1      -9.260   6.700  70.902  1.00  0.00    -0.157 C  
HETATM   11  C   UNL     1     -10.920   9.126  71.123  1.00  0.00    -0.390 C  
HETATM   12  C   UNL     1      -5.861   3.569  67.839  1.00  0.00    -0.026 C  
HETATM   13  C   UNL     1      -7.288   7.031  65.421  1.00  0.00    -0.080 C  
HETATM   14  C   UNL     1      -8.003   6.125  69.912  1.00  0.00    -0.114 C  
HETATM   15  C   UNL     1      -5.646   4.993  68.324  1.00  0.00    -0.016 C  
HETATM   16  C   UNL     1      -8.372   7.857  67.621  1.00  0.00    -0.124 C  
HETATM   17  C   UNL     1      -7.881   6.402  68.293  1.00  0.00    -0.105 C  
HETATM   18  C   UNL     1      -8.491   7.729  66.086  1.00  0.00    -0.143 C  
HETATM   19  C   UNL     1      -6.491   6.091  67.665  1.00  0.00    -0.046 C  
ENDROOT
BRANCH   4  20
HETATM   20  C   UNL     1      -7.828   8.754  71.172  1.00  0.00    -0.134 C  
HETATM   21  O   UNL     1      -8.310   9.032  72.280  1.00  0.00    -0.354 OA 
HETATM   22  C   UNL     1      -6.322   8.681  71.109  1.00  0.00    -0.049 C  
ENDBRANCH   4  20
BRANCH   4  23
HETATM   23  O   UNL     1      -8.861  10.141  69.788  1.00  0.00    -0.193 OA 
BRANCH  23  24
HETATM   24  C   UNL     1      -8.222  10.956  68.916  1.00  0.00    -0.141 C  
HETATM   25  O   UNL     1      -7.061  10.843  68.566  1.00  0.00    -0.068 OA 
BRANCH  24  26
HETATM   26  C   UNL     1      -9.243  11.903  68.310  1.00  0.00    -0.187 C  
BRANCH  26  27
HETATM   27  C   UNL     1      -9.105  12.034  66.810  1.00  0.00    -0.197 C  
BRANCH  27  28
HETATM   28  C   UNL     1     -10.308  11.441  66.086  1.00  0.00    -0.294 C  
BRANCH  28  29
HETATM   29  C   UNL     1     -11.609  11.889  66.738  1.00  0.00    -0.341 C  
HETATM   30  C   UNL     1     -12.044  13.236  66.190  1.00  0.00    -0.477 C  
ENDBRANCH  28  29
ENDBRANCH  27  28
ENDBRANCH  26  27
ENDBRANCH  24  26
ENDBRANCH  23  24
ENDBRANCH   4  23
TORSDOF 7
ENDMDL
MODEL      108
REMARK 921   NORMALIZED FREE ENERGY PREDICTED BY IDOCK:   -2.84 KCAL/MOL
REMARK 922        TOTAL FREE ENERGY PREDICTED BY IDOCK:   -4.08 KCAL/MOL
REMARK 923 INTER-LIGAND FREE ENERGY PREDICTED BY IDOCK:   -5.24 KCAL/MOL
REMARK 924 INTRA-LIGAND FREE ENERGY PREDICTED BY IDOCK:    1.16 KCAL/MOL
REMARK 927      BINDING AFFINITY PREDICTED BY RF-SCORE:    0.00 PKD
ROOT
HETATM    1  C   UNL     1      -9.385   8.465  69.341  1.00  0.00    -0.154 C  
HETATM    2  C   UNL     1     -10.279   8.868  68.315  1.00  0.00    -0.239 C  
HETATM    3  C   UNL     1     -10.707   7.728  69.163  1.00  0.00    -0.139 C  
HETATM    4  C   UNL     1      -9.551   7.443  70.853  1.00  0.00    -0.166 C  
HETATM    5  C   UNL     1      -8.068   3.678  66.261  1.00  0.00    -0.096 C  
HETATM    6  O   UNL     1      -9.163   1.760  65.493  1.00  0.00    -0.105 OA 
HETATM    7  C   UNL     1     -10.745   8.091  70.696  1.00  0.00    -0.235 C  
HETATM    8  C   UNL     1      -8.893   2.468  66.464  1.00  0.00    -0.128 C  
HETATM    9  C   UNL     1      -7.811   4.543  67.256  1.00  0.00    -0.097 C  
HETATM   10  C   UNL     1     -11.554   6.427  70.661  1.00  0.00    -0.412 C  
HETATM   11  C   UNL     1     -11.374   9.269  71.424  1.00  0.00    -0.434 C  
HETATM   12  C   UNL     1      -9.433   2.154  67.836  1.00  0.00    -0.174 C  
HETATM   13  C   UNL     1      -7.041   5.824  67.012  1.00  0.00    -0.070 C  
HETATM   14  C   UNL     1     -10.532   5.235  70.007  1.00  0.00    -0.351 C  
HETATM   15  C   UNL     1      -8.798   2.936  68.974  1.00  0.00    -0.151 C  
HETATM   16  C   UNL     1      -8.508   6.939  68.830  1.00  0.00    -0.125 C  
HETATM   17  C   UNL     1      -9.384   5.510  68.858  1.00  0.00    -0.154 C  
HETATM   18  C   UNL     1      -7.777   7.097  67.478  1.00  0.00    -0.111 C  
HETATM   19  C   UNL     1      -8.343   4.369  68.669  1.00  0.00    -0.090 C  
ENDROOT
BRANCH   4  20
HETATM   20  C   UNL     1      -9.706   6.800  72.330  1.00  0.00    -0.154 C  
HETATM   21  O   UNL     1      -9.083   5.807  72.734  1.00  0.00    -0.134 OA 
HETATM   22  C   UNL     1     -10.751   7.348  73.272  1.00  0.00    -0.441 C  
ENDBRANCH   4  20
BRANCH   4  23
HETATM   23  O   UNL     1      -8.795   8.644  71.507  1.00  0.00    -0.182 OA 
BRANCH  23  24
HETATM   24  C   UNL     1      -7.659   8.512  72.232  1.00  0.00    -0.058 C  
HETATM   25  O   UNL     1      -7.562   8.695  73.431  1.00  0.00    -0.367 OA 
BRANCH  24  26
HETATM   26  C   UNL     1      -6.587   7.918  71.336  1.00  0.00    -0.042 C  
BRANCH  26  27
HETATM   27  C   UNL     1      -5.974   8.935  70.399  1.00  0.00    -0.035 C  
BRANCH  27  28
HETATM   28  C   UNL     1      -5.523  10.183  71.149  1.00  0.00    -0.085 C  
BRANCH  28  29
HETATM   29  C   UNL     1      -5.726  11.429  70.299  1.00  0.00    -0.143 C  
HETATM   30  C   UNL     1      -5.195  12.657  71.016  1.00  0.00    -0.165 C  
ENDBRANCH  28  29
ENDBRANCH  27  28
ENDBRANCH  26  27
ENDBRANCH  24  26
ENDBRANCH  23  24
ENDBRANCH   4  23
TORSDOF 7
ENDMDL
MODEL      109
REMARK 921   NORMALIZED FREE ENERGY PREDICTED BY IDOCK:   -2.83 KCAL/MOL
REMARK 922        TOTAL FREE ENERGY PREDICTED BY IDOCK:   -4.07 KCAL/MOL
REMARK 923 INTER-LIGAND FREE ENERGY PREDICTED BY IDOCK:   -4.84 KCAL/MOL
REMARK 924 INTRA-LIGAND FREE ENERGY PREDICTED BY IDOCK:    0.77 KCAL/MOL
REMARK 927      BINDING AFFINITY PREDICTED BY RF-SCORE:    0.00 PKD
ROOT
HETATM    1  C   UNL     1     -10.757  11.447  68.666  1.00  0.00    -0.241 C  
HETATM    2  C   UNL     1     -12.172  11.529  68.589  1.00  0.00    -0.015 C  
HETATM    3  C   UNL     1     -11.419  11.803  67.340  1.00  0.00    -0.375 C  
HETATM    4  C   UNL     1      -9.415  11.299  67.426  1.00  0.00    -0.165 C  
HETATM    5  C   UNL     1     -10.438  17.270  68.305  1.00  0.00    -0.385 C  
HETATM    6  O   UNL     1     -10.960  18.938  66.752  1.00  0.00    -0.295 OA 
HETATM    7  C   UNL     1     -10.481  10.607  66.921  1.00  0.00    -0.304 C  
HETATM    8  C   UNL     1     -10.359  17.883  66.962  1.00  0.00    -0.362 C  
HETATM    9  C   UNL     1      -9.885  16.077  68.581  1.00  0.00    -0.218 C  
HETATM   10  C   UNL     1     -10.399  11.715  65.441  1.00  0.00    -0.313 C  
HETATM   11  C   UNL     1     -10.766   9.119  66.790  1.00  0.00    -0.108 C  
HETATM   12  C   UNL     1      -9.597  17.184  65.867  1.00  0.00    -0.110 C  
HETATM   13  C   UNL     1     -10.052  15.420  69.934  1.00  0.00    -0.253 C  
HETATM   14  C   UNL     1      -9.820  13.264  65.836  1.00  0.00    -0.241 C  
HETATM   15  C   UNL     1      -8.684  16.061  66.330  1.00  0.00    -0.372 C  
HETATM   16  C   UNL     1     -10.044  13.134  68.720  1.00  0.00    -0.072 C  
HETATM   17  C   UNL     1     -10.042  14.007  67.289  1.00  0.00    -0.249 C  
HETATM   18  C   UNL     1     -10.620  13.988  69.871  1.00  0.00     0.378 C  
HETATM   19  C   UNL     1      -9.138  15.248  67.548  1.00  0.00    -0.189 C  
ENDROOT
BRANCH   4  20
HETATM   20  C   UNL     1      -8.228  10.884  66.408  1.00  0.00    -0.163 C  
HETATM   21  O   UNL     1      -7.178  11.526  66.253  1.00  0.00    -0.013 OA 
HETATM   22  C   UNL     1      -8.420   9.704  65.486  1.00  0.00    -0.151 C  
ENDBRANCH   4  20
BRANCH   4  23
HETATM   23  O   UNL     1      -8.923  10.170  68.386  1.00  0.00    -0.119 OA 
BRANCH  23  24
HETATM   24  C   UNL     1      -7.675  10.118  68.908  1.00  0.00    -0.093 C  
HETATM   25  O   UNL     1      -6.895   9.192  68.781  1.00  0.00    -0.059 OA 
BRANCH  24  26
HETATM   26  C   UNL     1      -7.350  11.475  69.507  1.00  0.00     0.130 C  
BRANCH  26  27
HETATM   27  C   UNL     1      -5.982  11.521  70.151  1.00  0.00    -0.159 C  
BRANCH  27  28
HETATM   28  C   UNL     1      -5.259  12.824  69.829  1.00  0.00    -0.083 C  
BRANCH  28  29
HETATM   29  C   UNL     1      -6.215  13.838  69.216  1.00  0.00    -0.105 C  
HETATM   30  C   UNL     1      -5.560  14.547  68.044  1.00  0.00    -0.133 C  
ENDBRANCH  28  29
ENDBRANCH  27  28
ENDBRANCH  26  27
ENDBRANCH  24  26
ENDBRANCH  23  24
ENDBRANCH   4  23
TORSDOF 7
ENDMDL
MODEL      110
REMARK 921   NORMALIZED FREE ENERGY PREDICTED BY IDOCK:   -2.81 KCAL/MOL
REMARK 922        TOTAL FREE ENERGY PREDICTED BY IDOCK:   -4.05 KCAL/MOL
REMARK 923 INTER-LIGAND FREE ENERGY PREDICTED BY IDOCK:   -4.98 KCAL/MOL
REMARK 924 INTRA-LIGAND FREE ENERGY PREDICTED BY IDOCK:    0.94 KCAL/MOL
REMARK 927      BINDING AFFINITY PREDICTED BY RF-SCORE:    0.00 PKD
ROOT
HETATM    1  C   UNL     1     -10.233   6.468  68.137  1.00  0.00    -0.194 C  
HETATM    2  C   UNL     1     -11.245   6.576  67.146  1.00  0.00    -0.313 C  
HETATM    3  C   UNL     1      -9.849   6.824  66.706  1.00  0.00    -0.236 C  
HETATM    4  C   UNL     1      -8.411   6.284  68.090  1.00  0.00    -0.114 C  
HETATM    5  C   UNL     1      -9.641  12.281  68.108  1.00  0.00    -0.213 C  
HETATM    6  O   UNL     1      -8.975  13.944  66.606  1.00  0.00    -0.219 OA 
HETATM    7  C   UNL     1      -8.891   5.608  67.004  1.00  0.00    -0.111 C  
HETATM    8  C   UNL     1      -8.683  12.880  67.155  1.00  0.00    -0.205 C  
HETATM    9  C   UNL     1      -9.430  11.080  68.674  1.00  0.00    -0.197 C  
HETATM   10  C   UNL     1      -7.832   6.701  65.952  1.00  0.00    -0.102 C  
HETATM   11  C   UNL     1      -9.048   4.124  66.709  1.00  0.00    -0.145 C  
HETATM   12  C   UNL     1      -7.402  12.157  66.831  1.00  0.00    -0.009 C  
HETATM   13  C   UNL     1     -10.462  10.438  69.578  1.00  0.00    -0.274 C  
HETATM   14  C   UNL     1      -7.627   8.242  66.639  1.00  0.00    -0.090 C  
HETATM   15  C   UNL     1      -7.043  11.022  67.775  1.00  0.00    -0.086 C  
HETATM   16  C   UNL     1      -9.700   8.142  68.657  1.00  0.00    -0.158 C  
HETATM   17  C   UNL     1      -8.737   9.002  67.588  1.00  0.00    -0.124 C  
HETATM   18  C   UNL     1     -10.876   9.017  69.147  1.00  0.00    -0.110 C  
HETATM   19  C   UNL     1      -8.205  10.229  68.386  1.00  0.00    -0.114 C  
ENDROOT
BRANCH   4  20
HETATM   20  C   UNL     1      -6.855   5.838  68.106  1.00  0.00    -0.067 C  
HETATM   21  O   UNL     1      -5.922   6.556  68.495  1.00  0.00    -0.019 OA 
HETATM   22  C   UNL     1      -6.459   4.508  67.513  1.00  0.00    -0.045 C  
ENDBRANCH   4  20
BRANCH   4  23
HETATM   23  O   UNL     1      -8.697   5.155  69.130  1.00  0.00    -0.092 OA 
BRANCH  23  24
HETATM   24  C   UNL     1      -8.259   5.183  70.411  1.00  0.00    -0.098 C  
HETATM   25  O   UNL     1      -7.237   4.662  70.819  1.00  0.00    -0.043 OA 
BRANCH  24  26
HETATM   26  C   UNL     1      -9.148   6.128  71.199  1.00  0.00    -0.151 C  
BRANCH  26  27
HETATM   27  C   UNL     1     -10.462   5.498  71.604  1.00  0.00    -0.292 C  
BRANCH  27  28
HETATM   28  C   UNL     1     -11.097   6.238  72.776  1.00  0.00    -0.284 C  
BRANCH  28  29
HETATM   29  C   UNL     1     -10.789   7.727  72.709  1.00  0.00    -0.438 C  
HETATM   30  C   UNL     1     -12.046   8.519  72.401  1.00  0.00    -0.436 C  
ENDBRANCH  28  29
ENDBRANCH  27  28
ENDBRANCH  26  27
ENDBRANCH  24  26
ENDBRANCH  23  24
ENDBRANCH   4  23
TORSDOF 7
ENDMDL
MODEL      111
REMARK 921   NORMALIZED FREE ENERGY PREDICTED BY IDOCK:   -2.80 KCAL/MOL
REMARK 922        TOTAL FREE ENERGY PREDICTED BY IDOCK:   -4.03 KCAL/MOL
REMARK 923 INTER-LIGAND FREE ENERGY PREDICTED BY IDOCK:   -4.44 KCAL/MOL
REMARK 924 INTRA-LIGAND FREE ENERGY PREDICTED BY IDOCK:    0.41 KCAL/MOL
REMARK 927      BINDING AFFINITY PREDICTED BY RF-SCORE:    0.00 PKD
ROOT
HETATM    1  C   UNL     1     -10.303   5.953  68.072  1.00  0.00    -0.257 C  
HETATM    2  C   UNL     1     -10.836   6.515  66.883  1.00  0.00    -0.427 C  
HETATM    3  C   UNL     1      -9.372   6.270  66.908  1.00  0.00    -0.148 C  
HETATM    4  C   UNL     1      -8.730   5.116  68.499  1.00  0.00    -0.097 C  
HETATM    5  C   UNL     1      -7.901  11.116  69.385  1.00  0.00     0.063 C  
HETATM    6  O   UNL     1      -6.277  12.544  68.496  1.00  0.00    -0.057 OA 
HETATM    7  C   UNL     1      -9.012   4.764  67.208  1.00  0.00    -0.116 C  
HETATM    8  C   UNL     1      -6.542  11.402  68.878  1.00  0.00    -0.071 C  
HETATM    9  C   UNL     1      -8.287   9.876  69.733  1.00  0.00    -0.196 C  
HETATM   10  C   UNL     1      -7.372   5.480  66.736  1.00  0.00    -0.083 C  
HETATM   11  C   UNL     1      -9.530   3.476  66.588  1.00  0.00    -0.179 C  
HETATM   12  C   UNL     1      -5.530  10.290  68.784  1.00  0.00    -0.038 C  
HETATM   13  C   UNL     1      -9.708   9.581  70.164  1.00  0.00    -0.289 C  
HETATM   14  C   UNL     1      -6.923   6.768  67.750  1.00  0.00    -0.083 C  
HETATM   15  C   UNL     1      -5.890   9.023  69.541  1.00  0.00    -0.033 C  
HETATM   16  C   UNL     1      -9.465   7.259  69.048  1.00  0.00    -0.147 C  
HETATM   17  C   UNL     1      -7.979   7.796  68.486  1.00  0.00    -0.122 C  
HETATM   18  C   UNL     1     -10.389   8.458  69.357  1.00  0.00    -0.217 C  
HETATM   19  C   UNL     1      -7.379   8.663  69.631  1.00  0.00    -0.056 C  
ENDROOT
BRANCH   4  20
HETATM   20  C   UNL     1      -7.499   4.128  68.857  1.00  0.00    -0.055 C  
HETATM   21  O   UNL     1      -6.554   4.424  69.604  1.00  0.00    -0.032 OA 
HETATM   22  C   UNL     1      -7.398   2.788  68.168  1.00  0.00    -0.049 C  
ENDBRANCH   4  20
BRANCH   4  23
HETATM   23  O   UNL     1      -9.691   4.083  69.167  1.00  0.00    -0.181 OA 
BRANCH  23  24
HETATM   24  C   UNL     1      -9.649   3.757  70.481  1.00  0.00    -0.192 C  
HETATM   25  O   UNL     1      -9.585   2.625  70.925  1.00  0.00    -0.149 OA 
BRANCH  24  26
HETATM   26  C   UNL     1      -9.502   5.036  71.286  1.00  0.00    -0.209 C  
BRANCH  26  27
HETATM   27  C   UNL     1     -10.813   5.522  71.862  1.00  0.00    -0.286 C  
BRANCH  27  28
HETATM   28  C   UNL     1     -10.602   6.685  72.824  1.00  0.00    -0.260 C  
BRANCH  28  29
HETATM   29  C   UNL     1      -9.161   6.730  73.313  1.00  0.00    -0.154 C  
HETATM   30  C   UNL     1      -8.661   8.162  73.370  1.00  0.00    -0.318 C  
ENDBRANCH  28  29
ENDBRANCH  27  28
ENDBRANCH  26  27
ENDBRANCH  24  26
ENDBRANCH  23  24
ENDBRANCH   4  23
TORSDOF 7
ENDMDL
MODEL      112
REMARK 921   NORMALIZED FREE ENERGY PREDICTED BY IDOCK:   -2.77 KCAL/MOL
REMARK 922        TOTAL FREE ENERGY PREDICTED BY IDOCK:   -3.99 KCAL/MOL
REMARK 923 INTER-LIGAND FREE ENERGY PREDICTED BY IDOCK:   -4.88 KCAL/MOL
REMARK 924 INTRA-LIGAND FREE ENERGY PREDICTED BY IDOCK:    0.89 KCAL/MOL
REMARK 927      BINDING AFFINITY PREDICTED BY RF-SCORE:    0.00 PKD
ROOT
HETATM    1  C   UNL     1      -7.223   7.163  68.740  1.00  0.00    -0.094 C  
HETATM    2  C   UNL     1      -5.986   7.818  68.501  1.00  0.00    -0.032 C  
HETATM    3  C   UNL     1      -6.911   8.467  69.463  1.00  0.00    -0.044 C  
HETATM    4  C   UNL     1      -8.504   7.285  70.045  1.00  0.00    -0.139 C  
HETATM    5  C   UNL     1      -9.965  11.315  65.676  1.00  0.00    -0.292 C  
HETATM    6  O   UNL     1     -10.347  13.616  65.838  1.00  0.00    -0.287 OA 
HETATM    7  C   UNL     1      -7.306   7.521  70.661  1.00  0.00    -0.068 C  
HETATM    8  C   UNL     1     -10.431  12.520  66.395  1.00  0.00    -0.247 C  
HETATM    9  C   UNL     1      -9.942  10.102  66.254  1.00  0.00    -0.304 C  
HETATM   10  C   UNL     1      -7.993   9.153  71.199  1.00  0.00    -0.122 C  
HETATM   11  C   UNL     1      -6.445   6.674  71.584  1.00  0.00    -0.046 C  
HETATM   12  C   UNL     1     -10.943  12.396  67.806  1.00  0.00    -0.267 C  
HETATM   13  C   UNL     1      -9.378   8.894  65.538  1.00  0.00    -0.214 C  
HETATM   14  C   UNL     1      -9.119   9.769  70.083  1.00  0.00    -0.240 C  
HETATM   15  C   UNL     1     -11.255  10.979  68.258  1.00  0.00    -0.340 C  
HETATM   16  C   UNL     1      -8.562   8.029  67.837  1.00  0.00    -0.129 C  
HETATM   17  C   UNL     1      -9.075   9.499  68.459  1.00  0.00    -0.131 C  
HETATM   18  C   UNL     1      -8.276   8.156  66.324  1.00  0.00    -0.114 C  
HETATM   19  C   UNL     1     -10.380   9.856  67.688  1.00  0.00    -0.275 C  
ENDROOT
BRANCH   4  20
HETATM   20  C   UNL     1      -9.511   7.146  71.305  1.00  0.00    -0.163 C  
HETATM   21  O   UNL     1      -9.226   6.586  72.374  1.00  0.00    -0.138 OA 
HETATM   22  C   UNL     1     -10.938   7.618  71.169  1.00  0.00    -0.263 C  
ENDBRANCH   4  20
BRANCH   4  23
HETATM   23  O   UNL     1      -8.380   5.728  70.033  1.00  0.00    -0.118 OA 
BRANCH  23  24
HETATM   24  C   UNL     1      -9.265   4.908  69.418  1.00  0.00    -0.109 C  
HETATM   25  O   UNL     1     -10.471   4.918  69.585  1.00  0.00    -0.206 OA 
BRANCH  24  26
HETATM   26  C   UNL     1      -8.524   4.118  68.354  1.00  0.00    -0.104 C  
BRANCH  26  27
HETATM   27  C   UNL     1      -9.432   3.205  67.560  1.00  0.00    -0.189 C  
BRANCH  27  28
HETATM   28  C   UNL     1      -8.680   1.987  67.037  1.00  0.00    -0.133 C  
BRANCH  28  29
HETATM   29  C   UNL     1      -7.268   1.937  67.604  1.00  0.00    -0.047 C  
HETATM   30  C   UNL     1      -6.255   1.710  66.497  1.00  0.00    -0.020 C  
ENDBRANCH  28  29
ENDBRANCH  27  28
ENDBRANCH  26  27
ENDBRANCH  24  26
ENDBRANCH  23  24
ENDBRANCH   4  23
TORSDOF 7
ENDMDL
MODEL      113
REMARK 921   NORMALIZED FREE ENERGY PREDICTED BY IDOCK:   -2.77 KCAL/MOL
REMARK 922        TOTAL FREE ENERGY PREDICTED BY IDOCK:   -3.98 KCAL/MOL
REMARK 923 INTER-LIGAND FREE ENERGY PREDICTED BY IDOCK:   -4.68 KCAL/MOL
REMARK 924 INTRA-LIGAND FREE ENERGY PREDICTED BY IDOCK:    0.70 KCAL/MOL
REMARK 927      BINDING AFFINITY PREDICTED BY RF-SCORE:    0.00 PKD
ROOT
HETATM    1  C   UNL     1     -10.357   9.447  68.350  1.00  0.00    -0.238 C  
HETATM    2  C   UNL     1     -11.163   9.993  69.383  1.00  0.00    -0.235 C  
HETATM    3  C   UNL     1      -9.697   9.986  69.613  1.00  0.00    -0.255 C  
HETATM    4  C   UNL     1      -8.574   9.536  67.937  1.00  0.00    -0.119 C  
HETATM    5  C   UNL     1      -9.343   4.752  71.678  1.00  0.00    -0.194 C  
HETATM    6  O   UNL     1      -8.298   4.267  73.712  1.00  0.00    -0.092 OA 
HETATM    7  C   UNL     1      -8.900  10.745  68.484  1.00  0.00    -0.149 C  
HETATM    8  C   UNL     1      -8.189   4.787  72.600  1.00  0.00    -0.111 C  
HETATM    9  C   UNL     1      -9.326   5.375  70.487  1.00  0.00    -0.200 C  
HETATM   10  C   UNL     1      -7.592  10.436  69.756  1.00  0.00    -0.141 C  
HETATM   11  C   UNL     1      -9.110  12.122  67.874  1.00  0.00    -0.185 C  
HETATM   12  C   UNL     1      -6.926   5.500  72.190  1.00  0.00    -0.081 C  
HETATM   13  C   UNL     1     -10.547   5.408  69.593  1.00  0.00    -0.328 C  
HETATM   14  C   UNL     1      -7.400   8.778  70.082  1.00  0.00    -0.055 C  
HETATM   15  C   UNL     1      -6.827   5.840  70.712  1.00  0.00    -0.054 C  
HETATM   16  C   UNL     1      -9.804   7.765  68.824  1.00  0.00    -0.171 C  
HETATM   17  C   UNL     1      -8.604   7.658  69.991  1.00  0.00    -0.138 C  
HETATM   18  C   UNL     1     -10.980   6.828  69.174  1.00  0.00    -0.290 C  
HETATM   19  C   UNL     1      -8.135   6.173  69.983  1.00  0.00    -0.119 C  
ENDROOT
BRANCH   4  20
HETATM   20  C   UNL     1      -7.083   9.812  67.370  1.00  0.00    -0.085 C  
HETATM   21  O   UNL     1      -6.200   8.948  67.263  1.00  0.00    -0.057 OA 
HETATM   22  C   UNL     1      -6.664  11.225  67.043  1.00  0.00    -0.126 C  
ENDBRANCH   4  20
BRANCH   4  23
HETATM   23  O   UNL     1      -9.124   9.846  66.508  1.00  0.00    -0.147 OA 
BRANCH  23  24
HETATM   24  C   UNL     1      -8.974   9.016  65.448  1.00  0.00    -0.200 C  
HETATM   25  O   UNL     1      -8.875   7.805  65.509  1.00  0.00    -0.118 OA 
BRANCH  24  26
HETATM   26  C   UNL     1      -9.142   9.831  64.178  1.00  0.00    -0.289 C  
BRANCH  26  27
HETATM   27  C   UNL     1      -8.637   9.110  62.947  1.00  0.00    -0.203 C  
BRANCH  27  28
HETATM   28  C   UNL     1      -7.367   9.754  62.405  1.00  0.00    -0.121 C  
BRANCH  28  29
HETATM   29  C   UNL     1      -6.289   9.815  63.479  1.00  0.00    -0.116 C  
HETATM   30  C   UNL     1      -5.746   8.428  63.769  1.00  0.00    -0.066 C  
ENDBRANCH  28  29
ENDBRANCH  27  28
ENDBRANCH  26  27
ENDBRANCH  24  26
ENDBRANCH  23  24
ENDBRANCH   4  23
TORSDOF 7
ENDMDL
MODEL      114
REMARK 921   NORMALIZED FREE ENERGY PREDICTED BY IDOCK:   -2.71 KCAL/MOL
REMARK 922        TOTAL FREE ENERGY PREDICTED BY IDOCK:   -3.90 KCAL/MOL
REMARK 923 INTER-LIGAND FREE ENERGY PREDICTED BY IDOCK:   -5.73 KCAL/MOL
REMARK 924 INTRA-LIGAND FREE ENERGY PREDICTED BY IDOCK:    1.82 KCAL/MOL
REMARK 927      BINDING AFFINITY PREDICTED BY RF-SCORE:    0.00 PKD
ROOT
HETATM    1  C   UNL     1     -11.090  13.011  66.201  1.00  0.00    -0.311 C  
HETATM    2  C   UNL     1     -12.134  12.107  66.527  1.00  0.00     0.010 C  
HETATM    3  C   UNL     1     -10.776  11.762  67.015  1.00  0.00    -0.286 C  
HETATM    4  C   UNL     1      -9.394  13.289  66.836  1.00  0.00    -0.244 C  
HETATM    5  C   UNL     1      -9.003   9.148  62.345  1.00  0.00    -0.163 C  
HETATM    6  O   UNL     1      -8.085   6.999  62.375  1.00  0.00    -0.128 OA 
HETATM    7  C   UNL     1     -10.144  12.897  67.909  1.00  0.00    -0.232 C  
HETATM    8  C   UNL     1      -8.026   8.146  62.821  1.00  0.00    -0.159 C  
HETATM    9  C   UNL     1      -9.057  10.391  62.853  1.00  0.00    -0.287 C  
HETATM   10  C   UNL     1      -8.951  11.501  68.135  1.00  0.00    -0.172 C  
HETATM   11  C   UNL     1     -10.714  13.661  69.095  1.00  0.00    -0.137 C  
HETATM   12  C   UNL     1      -7.019   8.526  63.875  1.00  0.00    -0.083 C  
HETATM   13  C   UNL     1     -10.121  11.378  62.421  1.00  0.00     0.586 C  
HETATM   14  C   UNL     1      -8.279  10.991  66.659  1.00  0.00    -0.154 C  
HETATM   15  C   UNL     1      -6.874  10.019  64.121  1.00  0.00    -0.126 C  
HETATM   16  C   UNL     1     -10.086  12.324  64.830  1.00  0.00    -0.274 C  
HETATM   17  C   UNL     1      -9.048  11.062  65.204  1.00  0.00    -0.199 C  
HETATM   18  C   UNL     1     -10.935  11.974  63.588  1.00  0.00    -0.517 C  
HETATM   19  C   UNL     1      -8.134  10.879  63.957  1.00  0.00     0.291 C  
ENDROOT
BRANCH   4  20
HETATM   20  C   UNL     1      -8.016  13.762  67.542  1.00  0.00    -0.181 C  
HETATM   21  O   UNL     1      -6.882  13.441  67.156  1.00  0.00    -0.129 OA 
HETATM   22  C   UNL     1      -8.074  14.558  68.823  1.00  0.00    -0.146 C  
ENDBRANCH   4  20
BRANCH   4  23
HETATM   23  O   UNL     1      -9.856  14.781  66.846  1.00  0.00    -0.233 OA 
BRANCH  23  24
HETATM   24  C   UNL     1      -9.791  15.596  65.766  1.00  0.00    -0.351 C  
HETATM   25  O   UNL     1     -10.594  15.622  64.852  1.00  0.00    -0.427 OA 
BRANCH  24  26
HETATM   26  C   UNL     1      -8.665  16.591  65.987  1.00  0.00    -0.255 C  
BRANCH  26  27
HETATM   27  C   UNL     1      -9.159  18.012  66.146  1.00  0.00    -0.124 C  
BRANCH  27  28
HETATM   28  C   UNL     1      -9.951  18.185  67.437  1.00  0.00    -0.329 C  
BRANCH  28  29
HETATM   29  C   UNL     1     -10.639  19.542  67.473  1.00  0.00    -0.599 C  
HETATM   30  C   UNL     1     -10.592  20.201  66.107  1.00  0.00    -0.369 C  
ENDBRANCH  28  29
ENDBRANCH  27  28
ENDBRANCH  26  27
ENDBRANCH  24  26
ENDBRANCH  23  24
ENDBRANCH   4  23
TORSDOF 7
ENDMDL
MODEL      115
REMARK 921   NORMALIZED FREE ENERGY PREDICTED BY IDOCK:   -2.70 KCAL/MOL
REMARK 922        TOTAL FREE ENERGY PREDICTED BY IDOCK:   -3.89 KCAL/MOL
REMARK 923 INTER-LIGAND FREE ENERGY PREDICTED BY IDOCK:   -4.75 KCAL/MOL
REMARK 924 INTRA-LIGAND FREE ENERGY PREDICTED BY IDOCK:    0.85 KCAL/MOL
REMARK 927      BINDING AFFINITY PREDICTED BY RF-SCORE:    0.00 PKD
ROOT
HETATM    1  C   UNL     1      -6.153   5.827  71.765  1.00  0.00    -0.039 C  
HETATM    2  C   UNL     1      -5.145   6.087  70.800  1.00  0.00    -0.013 C  
HETATM    3  C   UNL     1      -6.277   7.044  70.857  1.00  0.00    -0.036 C  
HETATM    4  C   UNL     1      -7.496   6.825  72.513  1.00  0.00    -0.091 C  
HETATM    5  C   UNL     1      -9.772   4.186  67.481  1.00  0.00    -0.185 C  
HETATM    6  O   UNL     1     -10.811   5.160  65.627  1.00  0.00    -0.077 OA 
HETATM    7  C   UNL     1      -6.459   7.687  72.285  1.00  0.00    -0.055 C  
HETATM    8  C   UNL     1     -10.610   5.222  66.841  1.00  0.00    -0.214 C  
HETATM    9  C   UNL     1      -9.438   4.240  68.781  1.00  0.00    -0.230 C  
HETATM   10  C   UNL     1      -7.621   8.686  71.247  1.00  0.00    -0.129 C  
HETATM   11  C   UNL     1      -5.452   8.346  73.215  1.00  0.00    -0.057 C  
HETATM   12  C   UNL     1     -11.156   6.358  67.668  1.00  0.00    -0.388 C  
HETATM   13  C   UNL     1      -8.504   3.223  69.402  1.00  0.00    -0.098 C  
HETATM   14  C   UNL     1      -8.802   7.718  70.500  1.00  0.00    -0.145 C  
HETATM   15  C   UNL     1     -11.074   6.158  69.172  1.00  0.00    -0.448 C  
HETATM   16  C   UNL     1      -7.624   5.109  70.940  1.00  0.00    -0.079 C  
HETATM   17  C   UNL     1      -8.578   6.153  70.039  1.00  0.00    -0.136 C  
HETATM   18  C   UNL     1      -7.289   3.843  70.122  1.00  0.00    -0.042 C  
HETATM   19  C   UNL     1      -9.878   5.362  69.707  1.00  0.00    -0.268 C  
ENDROOT
BRANCH   4  20
HETATM   20  C   UNL     1      -8.499   7.730  73.405  1.00  0.00    -0.196 C  
HETATM   21  O   UNL     1      -8.151   8.714  74.074  1.00  0.00    -0.385 OA 
HETATM   22  C   UNL     1      -9.943   7.315  73.548  1.00  0.00    -0.366 C  
ENDBRANCH   4  20
BRANCH   4  23
HETATM   23  O   UNL     1      -6.928   6.230  73.841  1.00  0.00    -0.082 OA 
BRANCH  23  24
HETATM   24  C   UNL     1      -7.010   4.919  74.173  1.00  0.00    -0.076 C  
HETATM   25  O   UNL     1      -6.082   4.228  74.551  1.00  0.00    -0.030 OA 
BRANCH  24  26
HETATM   26  C   UNL     1      -8.475   4.520  74.179  1.00  0.00    -0.102 C  
BRANCH  26  27
HETATM   27  C   UNL     1      -8.675   3.021  74.127  1.00  0.00    -0.076 C  
BRANCH  27  28
HETATM   28  C   UNL     1      -9.668   2.629  73.038  1.00  0.00    -0.163 C  
BRANCH  28  29
HETATM   29  C   UNL     1     -11.100   2.793  73.527  1.00  0.00    -0.315 C  
HETATM   30  C   UNL     1     -11.898   1.526  73.275  1.00  0.00    -0.226 C  
ENDBRANCH  28  29
ENDBRANCH  27  28
ENDBRANCH  26  27
ENDBRANCH  24  26
ENDBRANCH  23  24
ENDBRANCH   4  23
TORSDOF 7
ENDMDL
MODEL      116
REMARK 921   NORMALIZED FREE ENERGY PREDICTED BY IDOCK:   -2.66 KCAL/MOL
REMARK 922        TOTAL FREE ENERGY PREDICTED BY IDOCK:   -3.84 KCAL/MOL
REMARK 923 INTER-LIGAND FREE ENERGY PREDICTED BY IDOCK:   -4.86 KCAL/MOL
REMARK 924 INTRA-LIGAND FREE ENERGY PREDICTED BY IDOCK:    1.02 KCAL/MOL
REMARK 927      BINDING AFFINITY PREDICTED BY RF-SCORE:    0.00 PKD
ROOT
HETATM    1  C   UNL     1      -9.329   6.887  69.228  1.00  0.00    -0.144 C  
HETATM    2  C   UNL     1      -8.882   5.764  69.973  1.00  0.00    -0.139 C  
HETATM    3  C   UNL     1      -7.853   6.509  69.205  1.00  0.00    -0.110 C  
HETATM    4  C   UNL     1      -8.495   8.329  68.463  1.00  0.00    -0.126 C  
HETATM    5  C   UNL     1      -8.598   3.852  64.289  1.00  0.00    -0.104 C  
HETATM    6  O   UNL     1      -6.835   2.881  63.101  1.00  0.00    -0.027 OA 
HETATM    7  C   UNL     1      -7.788   8.035  69.596  1.00  0.00    -0.104 C  
HETATM    8  C   UNL     1      -7.277   3.903  63.628  1.00  0.00    -0.050 C  
HETATM    9  C   UNL     1      -9.102   4.901  64.961  1.00  0.00    -0.133 C  
HETATM   10  C   UNL     1      -6.296   7.836  68.519  1.00  0.00    -0.044 C  
HETATM   11  C   UNL     1      -7.707   8.710  70.956  1.00  0.00    -0.120 C  
HETATM   12  C   UNL     1      -6.476   5.179  63.658  1.00  0.00    -0.026 C  
HETATM   13  C   UNL     1     -10.415   4.806  65.710  1.00  0.00    -0.275 C  
HETATM   14  C   UNL     1      -6.702   7.285  66.963  1.00  0.00    -0.068 C  
HETATM   15  C   UNL     1      -7.248   6.417  64.081  1.00  0.00    -0.065 C  
HETATM   16  C   UNL     1      -9.431   6.447  67.452  1.00  0.00    -0.123 C  
HETATM   17  C   UNL     1      -7.984   6.310  66.617  1.00  0.00    -0.108 C  
HETATM   18  C   UNL     1     -10.321   5.212  67.195  1.00  0.00    -0.246 C  
HETATM   19  C   UNL     1      -8.369   6.224  65.110  1.00  0.00    -0.119 C  
ENDROOT
BRANCH   4  20
HETATM   20  C   UNL     1      -7.856   9.749  68.023  1.00  0.00    -0.086 C  
HETATM   21  O   UNL     1      -7.710  10.121  66.850  1.00  0.00    -0.101 OA 
HETATM   22  C   UNL     1      -7.286  10.665  69.079  1.00  0.00    -0.095 C  
ENDBRANCH   4  20
BRANCH   4  23
HETATM   23  O   UNL     1      -9.637   9.117  69.179  1.00  0.00    -0.157 OA 
BRANCH  23  24
HETATM   24  C   UNL     1     -10.592   9.820  68.524  1.00  0.00    -0.221 C  
HETATM   25  O   UNL     1     -11.043   9.545  67.427  1.00  0.00    -0.148 OA 
BRANCH  24  26
HETATM   26  C   UNL     1     -11.131  10.884  69.463  1.00  0.00    -0.326 C  
BRANCH  26  27
HETATM   27  C   UNL     1     -12.481  10.525  70.044  1.00  0.00    -0.243 C  
BRANCH  27  28
HETATM   28  C   UNL     1     -12.734  11.254  71.358  1.00  0.00    -0.501 C  
BRANCH  28  29
HETATM   29  C   UNL     1     -12.732  12.762  71.151  1.00  0.00    -0.355 C  
HETATM   30  C   UNL     1     -13.127  13.477  72.430  1.00  0.00    -0.494 C  
ENDBRANCH  28  29
ENDBRANCH  27  28
ENDBRANCH  26  27
ENDBRANCH  24  26
ENDBRANCH  23  24
ENDBRANCH   4  23
TORSDOF 7
ENDMDL
MODEL      117
REMARK 921   NORMALIZED FREE ENERGY PREDICTED BY IDOCK:   -2.63 KCAL/MOL
REMARK 922        TOTAL FREE ENERGY PREDICTED BY IDOCK:   -3.79 KCAL/MOL
REMARK 923 INTER-LIGAND FREE ENERGY PREDICTED BY IDOCK:   -5.19 KCAL/MOL
REMARK 924 INTRA-LIGAND FREE ENERGY PREDICTED BY IDOCK:    1.39 KCAL/MOL
REMARK 927      BINDING AFFINITY PREDICTED BY RF-SCORE:    0.00 PKD
ROOT
HETATM    1  C   UNL     1     -11.421  12.796  66.564  1.00  0.00    -0.409 C  
HETATM    2  C   UNL     1     -12.760  12.856  66.097  1.00  0.00     0.395 C  
HETATM    3  C   UNL     1     -12.140  14.138  66.514  1.00  0.00    -0.481 C  
HETATM    4  C   UNL     1     -10.097  14.037  66.816  1.00  0.00    -0.264 C  
HETATM    5  C   UNL     1     -13.318  13.725  72.012  1.00  0.00    -0.536 C  
HETATM    6  O   UNL     1     -14.398  15.424  73.200  1.00  0.00     0.101 OA 
HETATM    7  C   UNL     1     -10.811  14.455  65.727  1.00  0.00    -0.308 C  
HETATM    8  C   UNL     1     -13.447  15.122  72.476  1.00  0.00    -0.464 C  
HETATM    9  C   UNL     1     -12.361  13.345  71.149  1.00  0.00    -0.348 C  
HETATM   10  C   UNL     1     -11.122  16.036  66.636  1.00  0.00     0.006 C  
HETATM   11  C   UNL     1     -10.510  14.436  64.237  1.00  0.00     0.430 C  
HETATM   12  C   UNL     1     -12.455  16.158  72.015  1.00  0.00    -0.412 C  
HETATM   13  C   UNL     1     -12.296  11.931  70.611  1.00  0.00    -0.405 C  
HETATM   14  C   UNL     1     -11.180  15.804  68.319  1.00  0.00    -0.356 C  
HETATM   15  C   UNL     1     -11.195  15.603  71.372  1.00  0.00    -0.392 C  
HETATM   16  C   UNL     1     -11.400  12.917  68.392  1.00  0.00    -0.329 C  
HETATM   17  C   UNL     1     -11.697  14.426  69.059  1.00  0.00    -0.345 C  
HETATM   18  C   UNL     1     -12.280  11.845  69.071  1.00  0.00    -0.103 C  
HETATM   19  C   UNL     1     -11.335  14.304  70.569  1.00  0.00    -0.056 C  
ENDROOT
BRANCH   4  20
HETATM   20  C   UNL     1      -8.819  15.030  66.784  1.00  0.00    -0.268 C  
HETATM   21  O   UNL     1      -8.379  15.576  65.762  1.00  0.00     0.466 OA 
HETATM   22  C   UNL     1      -8.014  15.243  68.043  1.00  0.00    -0.135 C  
ENDBRANCH   4  20
BRANCH   4  23
HETATM   23  O   UNL     1      -9.235  12.980  66.054  1.00  0.00    -0.089 OA 
BRANCH  23  24
HETATM   24  C   UNL     1      -9.075  11.700  66.468  1.00  0.00    -0.197 C  
HETATM   25  O   UNL     1      -9.494  10.714  65.891  1.00  0.00    -0.180 OA 
BRANCH  24  26
HETATM   26  C   UNL     1      -8.130  11.698  67.656  1.00  0.00    -0.140 C  
BRANCH  26  27
HETATM   27  C   UNL     1      -6.700  11.391  67.269  1.00  0.00    -0.111 C  
BRANCH  27  28
HETATM   28  C   UNL     1      -6.415   9.895  67.328  1.00  0.00    -0.069 C  
BRANCH  28  29
HETATM   29  C   UNL     1      -5.744   9.420  66.047  1.00  0.00    -0.049 C  
HETATM   30  C   UNL     1      -5.204  10.599  65.258  1.00  0.00    -0.137 C  
ENDBRANCH  28  29
ENDBRANCH  27  28
ENDBRANCH  26  27
ENDBRANCH  24  26
ENDBRANCH  23  24
ENDBRANCH   4  23
TORSDOF 7
ENDMDL
MODEL      118
REMARK 921   NORMALIZED FREE ENERGY PREDICTED BY IDOCK:   -2.63 KCAL/MOL
REMARK 922        TOTAL FREE ENERGY PREDICTED BY IDOCK:   -3.79 KCAL/MOL
REMARK 923 INTER-LIGAND FREE ENERGY PREDICTED BY IDOCK:   -4.39 KCAL/MOL
REMARK 924 INTRA-LIGAND FREE ENERGY PREDICTED BY IDOCK:    0.61 KCAL/MOL
REMARK 927      BINDING AFFINITY PREDICTED BY RF-SCORE:    0.00 PKD
ROOT
HETATM    1  C   UNL     1      -9.894  10.146  66.635  1.00  0.00    -0.253 C  
HETATM    2  C   UNL     1     -11.105  10.678  67.152  1.00  0.00    -0.267 C  
HETATM    3  C   UNL     1      -9.923  10.715  68.048  1.00  0.00    -0.180 C  
HETATM    4  C   UNL     1      -8.131  10.283  67.113  1.00  0.00    -0.121 C  
HETATM    5  C   UNL     1     -10.478   5.511  70.145  1.00  0.00    -0.370 C  
HETATM    6  O   UNL     1     -10.511   5.075  72.442  1.00  0.00    -0.205 OA 
HETATM    7  C   UNL     1      -8.703  11.487  67.415  1.00  0.00    -0.147 C  
HETATM    8  C   UNL     1      -9.899   5.588  71.503  1.00  0.00    -0.171 C  
HETATM    9  C   UNL     1      -9.912   6.125  69.092  1.00  0.00    -0.190 C  
HETATM   10  C   UNL     1      -8.147  11.226  69.161  1.00  0.00     0.019 C  
HETATM   11  C   UNL     1      -8.628  12.852  66.748  1.00  0.00    -0.071 C  
HETATM   12  C   UNL     1      -8.608   6.333  71.724  1.00  0.00    -0.133 C  
HETATM   13  C   UNL     1     -10.564   6.115  67.725  1.00  0.00    -0.338 C  
HETATM   14  C   UNL     1      -8.097   9.578  69.574  1.00  0.00    -0.117 C  
HETATM   15  C   UNL     1      -7.829   6.663  70.463  1.00  0.00    -0.106 C  
HETATM   16  C   UNL     1      -9.596   8.486  67.350  1.00  0.00    -0.204 C  
HETATM   17  C   UNL     1      -9.090   8.423  68.947  1.00  0.00    -0.147 C  
HETATM   18  C   UNL     1     -10.778   7.517  67.122  1.00  0.00    -0.379 C  
HETATM   19  C   UNL     1      -8.642   6.952  69.194  1.00  0.00    -0.128 C  
ENDROOT
BRANCH   4  20
HETATM   20  C   UNL     1      -6.555  10.597  67.313  1.00  0.00    -0.073 C  
HETATM   21  O   UNL     1      -6.012  11.675  67.030  1.00  0.00    -0.109 OA 
HETATM   22  C   UNL     1      -5.630   9.494  67.767  1.00  0.00    -0.040 C  
ENDBRANCH   4  20
BRANCH   4  23
HETATM   23  O   UNL     1      -7.945  10.564  65.588  1.00  0.00    -0.157 OA 
BRANCH  23  24
HETATM   24  C   UNL     1      -7.141   9.832  64.781  1.00  0.00    -0.126 C  
HETATM   25  O   UNL     1      -6.096  10.217  64.289  1.00  0.00    -0.132 OA 
BRANCH  24  26
HETATM   26  C   UNL     1      -7.662   8.407  64.753  1.00  0.00    -0.109 C  
BRANCH  26  27
HETATM   27  C   UNL     1      -6.623   7.392  65.176  1.00  0.00    -0.044 C  
BRANCH  27  28
HETATM   28  C   UNL     1      -5.848   6.855  63.978  1.00  0.00    -0.032 C  
BRANCH  28  29
HETATM   29  C   UNL     1      -6.286   5.437  63.640  1.00  0.00    -0.022 C  
HETATM   30  C   UNL     1      -7.120   5.424  62.371  1.00  0.00    -0.040 C  
ENDBRANCH  28  29
ENDBRANCH  27  28
ENDBRANCH  26  27
ENDBRANCH  24  26
ENDBRANCH  23  24
ENDBRANCH   4  23
TORSDOF 7
ENDMDL
MODEL      119
REMARK 921   NORMALIZED FREE ENERGY PREDICTED BY IDOCK:   -2.60 KCAL/MOL
REMARK 922        TOTAL FREE ENERGY PREDICTED BY IDOCK:   -3.74 KCAL/MOL
REMARK 923 INTER-LIGAND FREE ENERGY PREDICTED BY IDOCK:   -4.10 KCAL/MOL
REMARK 924 INTRA-LIGAND FREE ENERGY PREDICTED BY IDOCK:    0.36 KCAL/MOL
REMARK 927      BINDING AFFINITY PREDICTED BY RF-SCORE:    0.00 PKD
ROOT
HETATM    1  C   UNL     1      -7.373   6.454  71.406  1.00  0.00    -0.084 C  
HETATM    2  C   UNL     1      -6.271   7.339  71.529  1.00  0.00    -0.037 C  
HETATM    3  C   UNL     1      -7.417   7.810  70.713  1.00  0.00    -0.070 C  
HETATM    4  C   UNL     1      -9.119   6.650  70.886  1.00  0.00    -0.154 C  
HETATM    5  C   UNL     1      -5.853   5.399  65.863  1.00  0.00    -0.018 C  
HETATM    6  O   UNL     1      -5.684   6.591  63.860  1.00  0.00    -0.028 OA 
HETATM    7  C   UNL     1      -8.774   7.813  71.515  1.00  0.00    -0.140 C  
HETATM    8  C   UNL     1      -6.403   6.277  64.810  1.00  0.00    -0.034 C  
HETATM    9  C   UNL     1      -6.548   5.089  66.971  1.00  0.00    -0.050 C  
HETATM   10  C   UNL     1      -9.231   8.700  69.956  1.00  0.00    -0.160 C  
HETATM   11  C   UNL     1      -9.118   8.378  72.885  1.00  0.00    -0.282 C  
HETATM   12  C   UNL     1      -7.804   6.815  64.942  1.00  0.00    -0.119 C  
HETATM   13  C   UNL     1      -5.938   4.263  68.084  1.00  0.00    -0.027 C  
HETATM   14  C   UNL     1      -8.962   7.743  68.577  1.00  0.00    -0.133 C  
HETATM   15  C   UNL     1      -8.662   6.132  65.994  1.00  0.00    -0.157 C  
HETATM   16  C   UNL     1      -7.339   5.655  69.757  1.00  0.00    -0.070 C  
HETATM   17  C   UNL     1      -7.787   6.597  68.444  1.00  0.00    -0.107 C  
HETATM   18  C   UNL     1      -6.004   4.933  69.471  1.00  0.00    -0.018 C  
HETATM   19  C   UNL     1      -7.947   5.613  67.248  1.00  0.00    -0.102 C  
ENDROOT
BRANCH   4  20
HETATM   20  C   UNL     1     -10.720   6.818  70.717  1.00  0.00    -0.233 C  
HETATM   21  O   UNL     1     -11.468   7.324  71.568  1.00  0.00    -0.249 OA 
HETATM   22  C   UNL     1     -11.404   6.233  69.505  1.00  0.00    -0.475 C  
ENDBRANCH   4  20
BRANCH   4  23
HETATM   23  O   UNL     1      -9.391   5.831  72.189  1.00  0.00    -0.146 OA 
BRANCH  23  24
HETATM   24  C   UNL     1      -9.040   4.532  72.347  1.00  0.00    -0.124 C  
HETATM   25  O   UNL     1      -8.419   4.080  73.291  1.00  0.00    -0.088 OA 
BRANCH  24  26
HETATM   26  C   UNL     1      -9.714   3.719  71.257  1.00  0.00    -0.245 C  
BRANCH  26  27
HETATM   27  C   UNL     1      -9.372   2.247  71.326  1.00  0.00    -0.198 C  
BRANCH  27  28
HETATM   28  C   UNL     1      -9.168   1.657  69.935  1.00  0.00    -0.162 C  
BRANCH  28  29
HETATM   29  C   UNL     1      -9.342   2.723  68.863  1.00  0.00    -0.220 C  
HETATM   30  C   UNL     1      -9.190   2.119  67.479  1.00  0.00    -0.173 C  
ENDBRANCH  28  29
ENDBRANCH  27  28
ENDBRANCH  26  27
ENDBRANCH  24  26
ENDBRANCH  23  24
ENDBRANCH   4  23
TORSDOF 7
ENDMDL
MODEL      120
REMARK 921   NORMALIZED FREE ENERGY PREDICTED BY IDOCK:   -2.56 KCAL/MOL
REMARK 922        TOTAL FREE ENERGY PREDICTED BY IDOCK:   -3.70 KCAL/MOL
REMARK 923 INTER-LIGAND FREE ENERGY PREDICTED BY IDOCK:   -4.55 KCAL/MOL
REMARK 924 INTRA-LIGAND FREE ENERGY PREDICTED BY IDOCK:    0.86 KCAL/MOL
REMARK 927      BINDING AFFINITY PREDICTED BY RF-SCORE:    0.00 PKD
ROOT
HETATM    1  C   UNL     1      -9.506  14.040  66.706  1.00  0.00    -0.292 C  
HETATM    2  C   UNL     1      -9.332  13.654  65.351  1.00  0.00     0.433 C  
HETATM    3  C   UNL     1     -10.075  12.711  66.224  1.00  0.00    -0.264 C  
HETATM    4  C   UNL     1     -10.616  13.496  68.059  1.00  0.00    -0.239 C  
HETATM    5  C   UNL     1      -5.585  10.018  68.314  1.00  0.00    -0.038 C  
HETATM    6  O   UNL     1      -5.379   7.689  68.271  1.00  0.00    -0.025 OA 
HETATM    7  C   UNL     1     -11.335  13.373  66.902  1.00  0.00    -0.351 C  
HETATM    8  C   UNL     1      -6.068   8.652  68.611  1.00  0.00    -0.045 C  
HETATM    9  C   UNL     1      -6.324  11.109  68.575  1.00  0.00    -0.046 C  
HETATM   10  C   UNL     1     -11.553  11.583  67.318  1.00  0.00    -0.280 C  
HETATM   11  C   UNL     1     -12.465  14.199  66.307  1.00  0.00    -0.395 C  
HETATM   12  C   UNL     1      -7.409   8.461  69.270  1.00  0.00    -0.071 C  
HETATM   13  C   UNL     1      -5.856  12.495  68.182  1.00  0.00    -0.070 C  
HETATM   14  C   UNL     1     -10.234  10.968  68.196  1.00  0.00    -0.201 C  
HETATM   15  C   UNL     1      -8.011   9.714  69.884  1.00  0.00    -0.174 C  
HETATM   16  C   UNL     1      -8.335  13.111  67.766  1.00  0.00    -0.171 C  
HETATM   17  C   UNL     1      -8.680  11.495  68.050  1.00  0.00    -0.151 C  
HETATM   18  C   UNL     1      -6.866  13.277  67.319  1.00  0.00     0.034 C  
HETATM   19  C   UNL     1      -7.714  11.047  69.186  1.00  0.00    -0.102 C  
ENDROOT
BRANCH   4  20
HETATM   20  C   UNL     1     -11.750  13.258  69.189  1.00  0.00    -0.329 C  
HETATM   21  O   UNL     1     -12.809  13.899  69.268  1.00  0.00     0.248 OA 
HETATM   22  C   UNL     1     -11.490  12.276  70.306  1.00  0.00     0.096 C  
ENDBRANCH   4  20
BRANCH   4  23
HETATM   23  O   UNL     1     -10.835  15.032  68.229  1.00  0.00    -0.246 OA 
BRANCH  23  24
HETATM   24  C   UNL     1     -10.107  15.807  69.068  1.00  0.00    -0.225 C  
HETATM   25  O   UNL     1      -9.415  15.400  69.983  1.00  0.00    -0.180 OA 
BRANCH  24  26
HETATM   26  C   UNL     1     -10.149  17.236  68.556  1.00  0.00    -0.341 C  
BRANCH  26  27
HETATM   27  C   UNL     1      -9.041  17.539  67.571  1.00  0.00    -0.234 C  
BRANCH  27  28
HETATM   28  C   UNL     1      -8.773  19.037  67.478  1.00  0.00    -0.315 C  
BRANCH  28  29
HETATM   29  C   UNL     1      -7.901  19.358  66.273  1.00  0.00    -0.320 C  
HETATM   30  C   UNL     1      -6.678  18.460  66.244  1.00  0.00    -0.262 C  
ENDBRANCH  28  29
ENDBRANCH  27  28
ENDBRANCH  26  27
ENDBRANCH  24  26
ENDBRANCH  23  24
ENDBRANCH   4  23
TORSDOF 7
ENDMDL
MODEL      121
REMARK 921   NORMALIZED FREE ENERGY PREDICTED BY IDOCK:   -2.55 KCAL/MOL
REMARK 922        TOTAL FREE ENERGY PREDICTED BY IDOCK:   -3.68 KCAL/MOL
REMARK 923 INTER-LIGAND FREE ENERGY PREDICTED BY IDOCK:   -5.97 KCAL/MOL
REMARK 924 INTRA-LIGAND FREE ENERGY PREDICTED BY IDOCK:    2.29 KCAL/MOL
REMARK 927      BINDING AFFINITY PREDICTED BY RF-SCORE:    0.00 PKD
ROOT
HETATM    1  C   UNL     1      -8.184   8.340  67.475  1.00  0.00    -0.122 C  
HETATM    2  C   UNL     1      -6.988   8.615  66.762  1.00  0.00    -0.077 C  
HETATM    3  C   UNL     1      -7.324   9.530  67.881  1.00  0.00    -0.083 C  
HETATM    4  C   UNL     1      -8.854   8.859  69.099  1.00  0.00    -0.136 C  
HETATM    5  C   UNL     1     -10.699  12.981  64.967  1.00  0.00    -0.333 C  
HETATM    6  O   UNL     1     -10.414  15.301  64.946  1.00  0.00    -0.392 OA 
HETATM    7  C   UNL     1      -7.498   8.774  69.254  1.00  0.00    -0.078 C  
HETATM    8  C   UNL     1     -10.567  14.292  65.636  1.00  0.00    -0.319 C  
HETATM    9  C   UNL     1     -10.778  11.830  65.657  1.00  0.00    -0.328 C  
HETATM   10  C   UNL     1      -7.524  10.551  69.771  1.00  0.00    -0.127 C  
HETATM   11  C   UNL     1      -6.608   7.754  69.946  1.00  0.00    -0.037 C  
HETATM   12  C   UNL     1     -10.567  14.365  67.141  1.00  0.00    -0.277 C  
HETATM   13  C   UNL     1     -10.820  10.488  64.958  1.00  0.00     0.189 C  
HETATM   14  C   UNL     1      -8.777  11.416  69.015  1.00  0.00     0.079 C  
HETATM   15  C   UNL     1     -11.044  13.108  67.849  1.00  0.00    -0.288 C  
HETATM   16  C   UNL     1      -9.494   9.512  66.955  1.00  0.00    -0.197 C  
HETATM   17  C   UNL     1      -9.373  11.088  67.516  1.00  0.00    -0.167 C  
HETATM   18  C   UNL     1      -9.733   9.500  65.429  1.00  0.00    -0.314 C  
HETATM   19  C   UNL     1     -10.733  11.766  67.175  1.00  0.00    -0.283 C  
ENDROOT
BRANCH   4  20
HETATM   20  C   UNL     1      -9.357   9.050  70.626  1.00  0.00    -0.234 C  
HETATM   21  O   UNL     1     -10.320   9.753  70.965  1.00  0.00    -0.273 OA 
HETATM   22  C   UNL     1      -8.559   8.440  71.752  1.00  0.00    -0.234 C  
ENDBRANCH   4  20
BRANCH   4  23
HETATM   23  O   UNL     1      -9.134   7.330  69.249  1.00  0.00    -0.139 OA 
BRANCH  23  24
HETATM   24  C   UNL     1     -10.293   6.737  68.873  1.00  0.00    -0.192 C  
HETATM   25  O   UNL     1     -10.395   5.844  68.052  1.00  0.00    -0.167 OA 
BRANCH  24  26
HETATM   26  C   UNL     1     -11.401   7.238  69.782  1.00  0.00    -0.098 C  
BRANCH  26  27
HETATM   27  C   UNL     1     -11.376   6.592  71.150  1.00  0.00    -0.355 C  
BRANCH  27  28
HETATM   28  C   UNL     1     -12.589   6.997  71.979  1.00  0.00    -0.254 C  
BRANCH  28  29
HETATM   29  C   UNL     1     -13.233   8.257  71.419  1.00  0.00    -0.241 C  
HETATM   30  C   UNL     1     -13.591   9.217  72.540  1.00  0.00    -0.497 C  
ENDBRANCH  28  29
ENDBRANCH  27  28
ENDBRANCH  26  27
ENDBRANCH  24  26
ENDBRANCH  23  24
ENDBRANCH   4  23
TORSDOF 7
ENDMDL
MODEL      122
REMARK 921   NORMALIZED FREE ENERGY PREDICTED BY IDOCK:   -2.42 KCAL/MOL
REMARK 922        TOTAL FREE ENERGY PREDICTED BY IDOCK:   -3.49 KCAL/MOL
REMARK 923 INTER-LIGAND FREE ENERGY PREDICTED BY IDOCK:   -5.11 KCAL/MOL
REMARK 924 INTRA-LIGAND FREE ENERGY PREDICTED BY IDOCK:    1.62 KCAL/MOL
REMARK 927      BINDING AFFINITY PREDICTED BY RF-SCORE:    0.00 PKD
ROOT
HETATM    1  C   UNL     1      -8.302   9.558  67.908  1.00  0.00    -0.115 C  
HETATM    2  C   UNL     1      -8.313   9.004  66.601  1.00  0.00    -0.118 C  
HETATM    3  C   UNL     1      -7.527  10.248  66.793  1.00  0.00    -0.107 C  
HETATM    4  C   UNL     1      -7.246  10.781  68.771  1.00  0.00    -0.091 C  
HETATM    5  C   UNL     1     -11.781  13.876  66.065  1.00  0.00    -0.381 C  
HETATM    6  O   UNL     1     -11.676  15.654  64.551  1.00  0.00    -0.363 OA 
HETATM    7  C   UNL     1      -6.425  10.105  67.911  1.00  0.00    -0.062 C  
HETATM    8  C   UNL     1     -11.149  15.093  65.513  1.00  0.00    -0.345 C  
HETATM    9  C   UNL     1     -11.215  13.162  67.053  1.00  0.00    -0.325 C  
HETATM   10  C   UNL     1      -6.008  11.739  67.148  1.00  0.00    -0.140 C  
HETATM   11  C   UNL     1      -5.367   9.035  68.133  1.00  0.00    -0.034 C  
HETATM   12  C   UNL     1      -9.853  15.591  66.096  1.00  0.00    -0.342 C  
HETATM   13  C   UNL     1     -11.827  11.868  67.546  1.00  0.00    -0.249 C  
HETATM   14  C   UNL     1      -7.303  12.837  67.246  1.00  0.00    -0.095 C  
HETATM   15  C   UNL     1      -9.472  14.985  67.437  1.00  0.00    -0.202 C  
HETATM   16  C   UNL     1      -9.424  11.005  67.973  1.00  0.00    -0.169 C  
HETATM   17  C   UNL     1      -8.895  12.414  67.235  1.00  0.00    -0.192 C  
HETATM   18  C   UNL     1     -10.861  10.666  67.517  1.00  0.00    -0.351 C  
HETATM   19  C   UNL     1      -9.884  13.529  67.687  1.00  0.00    -0.228 C  
ENDROOT
BRANCH   4  20
HETATM   20  C   UNL     1      -6.186  11.625  69.657  1.00  0.00    -0.127 C  
HETATM   21  O   UNL     1      -5.130  11.165  70.116  1.00  0.00    -0.050 OA 
HETATM   22  C   UNL     1      -6.523  13.037  70.069  1.00  0.00     0.092 C  
ENDBRANCH   4  20
BRANCH   4  23
HETATM   23  O   UNL     1      -7.245   9.693  69.891  1.00  0.00    -0.076 OA 
BRANCH  23  24
HETATM   24  C   UNL     1      -8.347   9.332  70.590  1.00  0.00    -0.207 C  
HETATM   25  O   UNL     1      -9.323  10.034  70.782  1.00  0.00     0.090 OA 
BRANCH  24  26
HETATM   26  C   UNL     1      -8.240   7.854  70.920  1.00  0.00    -0.103 C  
BRANCH  26  27
HETATM   27  C   UNL     1      -7.731   7.027  69.760  1.00  0.00    -0.109 C  
BRANCH  27  28
HETATM   28  C   UNL     1      -8.585   5.783  69.545  1.00  0.00    -0.112 C  
BRANCH  28  29
HETATM   29  C   UNL     1      -9.866   5.857  70.364  1.00  0.00    -0.231 C  
HETATM   30  C   UNL     1     -11.081   5.856  69.455  1.00  0.00    -0.369 C  
ENDBRANCH  28  29
ENDBRANCH  27  28
ENDBRANCH  26  27
ENDBRANCH  24  26
ENDBRANCH  23  24
ENDBRANCH   4  23
TORSDOF 7
ENDMDL
MODEL      123
REMARK 921   NORMALIZED FREE ENERGY PREDICTED BY IDOCK:   -2.04 KCAL/MOL
REMARK 922        TOTAL FREE ENERGY PREDICTED BY IDOCK:   -2.95 KCAL/MOL
REMARK 923 INTER-LIGAND FREE ENERGY PREDICTED BY IDOCK:   -4.51 KCAL/MOL
REMARK 924 INTRA-LIGAND FREE ENERGY PREDICTED BY IDOCK:    1.56 KCAL/MOL
REMARK 927      BINDING AFFINITY PREDICTED BY RF-SCORE:    0.00 PKD
ROOT
HETATM    1  C   UNL     1      -9.180  12.221  67.656  1.00  0.00    -0.183 C  
HETATM    2  C   UNL     1      -9.535  12.256  69.030  1.00  0.00     0.345 C  
HETATM    3  C   UNL     1     -10.261  13.185  68.129  1.00  0.00    -0.239 C  
HETATM    4  C   UNL     1      -9.970  12.819  66.115  1.00  0.00    -0.266 C  
HETATM    5  C   UNL     1      -6.489  17.372  68.262  1.00  0.00    -0.172 C  
HETATM    6  O   UNL     1      -7.070  19.577  68.780  1.00  0.00    -0.319 OA 
HETATM    7  C   UNL     1     -10.988  12.440  66.945  1.00  0.00    -0.307 C  
HETATM    8  C   UNL     1      -7.282  18.602  68.056  1.00  0.00    -0.246 C  
HETATM    9  C   UNL     1      -6.727  16.244  67.572  1.00  0.00    -0.189 C  
HETATM   10  C   UNL     1     -11.647  14.163  66.796  1.00  0.00    -0.409 C  
HETATM   11  C   UNL     1     -11.910  11.230  66.949  1.00  0.00     0.416 C  
HETATM   12  C   UNL     1      -8.366  18.625  67.009  1.00  0.00    -0.274 C  
HETATM   13  C   UNL     1      -5.968  14.966  67.858  1.00  0.00    -0.160 C  
HETATM   14  C   UNL     1     -10.406  15.301  66.562  1.00  0.00    -0.289 C  
HETATM   15  C   UNL     1      -8.327  17.477  66.014  1.00  0.00    -0.116 C  
HETATM   16  C   UNL     1      -8.122  13.663  67.257  1.00  0.00    -0.152 C  
HETATM   17  C   UNL     1      -8.876  15.157  67.154  1.00  0.00    -0.236 C  
HETATM   18  C   UNL     1      -6.871  13.753  68.159  1.00  0.00    -0.122 C  
HETATM   19  C   UNL     1      -7.826  16.122  66.530  1.00  0.00    -0.263 C  
ENDROOT
BRANCH   4  20
HETATM   20  C   UNL     1     -10.747  13.064  64.716  1.00  0.00    -0.352 C  
HETATM   21  O   UNL     1     -10.507  13.995  63.933  1.00  0.00     0.214 OA 
HETATM   22  C   UNL     1     -11.924  12.189  64.358  1.00  0.00    -0.443 C  
ENDBRANCH   4  20
BRANCH   4  23
HETATM   23  O   UNL     1      -9.620  11.381  65.614  1.00  0.00    -0.219 OA 
BRANCH  23  24
HETATM   24  C   UNL     1      -8.512  11.085  64.894  1.00  0.00     0.112 C  
HETATM   25  O   UNL     1      -7.404  10.883  65.356  1.00  0.00    -0.003 OA 
BRANCH  24  26
HETATM   26  C   UNL     1      -8.926  10.859  63.451  1.00  0.00    -0.175 C  
BRANCH  26  27
HETATM   27  C   UNL     1      -7.962   9.971  62.695  1.00  0.00    -0.141 C  
BRANCH  27  28
HETATM   28  C   UNL     1      -8.407   8.514  62.724  1.00  0.00    -0.154 C  
BRANCH  28  29
HETATM   29  C   UNL     1      -7.397   7.653  63.469  1.00  0.00    -0.090 C  
HETATM   30  C   UNL     1      -6.011   8.265  63.389  1.00  0.00    -0.072 C  
ENDBRANCH  28  29
ENDBRANCH  27  28
ENDBRANCH  26  27
ENDBRANCH  24  26
ENDBRANCH  23  24
ENDBRANCH   4  23
TORSDOF 7
ENDMDL
MODEL      124
REMARK 921   NORMALIZED FREE ENERGY PREDICTED BY IDOCK:   -2.02 KCAL/MOL
REMARK 922        TOTAL FREE ENERGY PREDICTED BY IDOCK:   -2.93 KCAL/MOL
REMARK 923 INTER-LIGAND FREE ENERGY PREDICTED BY IDOCK:   -4.08 KCAL/MOL
REMARK 924 INTRA-LIGAND FREE ENERGY PREDICTED BY IDOCK:    1.15 KCAL/MOL
REMARK 927      BINDING AFFINITY PREDICTED BY RF-SCORE:    0.00 PKD
ROOT
HETATM    1  C   UNL     1      -7.578   7.465  71.509  1.00  0.00    -0.085 C  
HETATM    2  C   UNL     1      -7.107   8.098  72.689  1.00  0.00    -0.116 C  
HETATM    3  C   UNL     1      -8.397   8.585  72.140  1.00  0.00    -0.197 C  
HETATM    4  C   UNL     1      -9.201   7.383  70.663  1.00  0.00    -0.157 C  
HETATM    5  C   UNL     1      -6.235  12.259  68.450  1.00  0.00    -0.053 C  
HETATM    6  O   UNL     1      -6.905  14.497  68.360  1.00  0.00    -0.090 OA 
HETATM    7  C   UNL     1      -9.471   7.439  72.002  1.00  0.00    -0.162 C  
HETATM    8  C   UNL     1      -7.260  13.317  68.326  1.00  0.00    -0.108 C  
HETATM    9  C   UNL     1      -6.557  10.956  68.512  1.00  0.00    -0.055 C  
HETATM   10  C   UNL     1     -10.466   8.961  71.658  1.00  0.00    -0.408 C  
HETATM   11  C   UNL     1      -9.937   6.388  72.998  1.00  0.00    -0.186 C  
HETATM   12  C   UNL     1      -8.714  12.939  68.218  1.00  0.00    -0.168 C  
HETATM   13  C   UNL     1      -5.505   9.889  68.731  1.00  0.00    -0.035 C  
HETATM   14  C   UNL     1      -9.856   9.836  70.334  1.00  0.00    -0.269 C  
HETATM   15  C   UNL     1      -8.980  11.476  67.905  1.00  0.00    -0.159 C  
HETATM   16  C   UNL     1      -7.274   8.551  70.065  1.00  0.00    -0.051 C  
HETATM   17  C   UNL     1      -8.269   9.890  69.895  1.00  0.00    -0.199 C  
HETATM   18  C   UNL     1      -5.792   8.962  69.929  1.00  0.00    -0.031 C  
HETATM   19  C   UNL     1      -7.990  10.450  68.469  1.00  0.00    -0.114 C  
ENDROOT
BRANCH   4  20
HETATM   20  C   UNL     1     -10.655   7.043  70.039  1.00  0.00    -0.230 C  
HETATM   21  O   UNL     1     -11.088   7.505  68.973  1.00  0.00    -0.038 OA 
HETATM   22  C   UNL     1     -11.624   6.198  70.831  1.00  0.00    -0.259 C  
ENDBRANCH   4  20
BRANCH   4  23
HETATM   23  O   UNL     1      -8.879   5.855  70.622  1.00  0.00    -0.138 OA 
BRANCH  23  24
HETATM   24  C   UNL     1      -8.046   5.286  69.718  1.00  0.00    -0.087 C  
HETATM   25  O   UNL     1      -6.956   4.805  69.968  1.00  0.00    -0.046 OA 
BRANCH  24  26
HETATM   26  C   UNL     1      -8.780   5.179  68.394  1.00  0.00    -0.104 C  
BRANCH  26  27
HETATM   27  C   UNL     1      -8.044   5.852  67.257  1.00  0.00    -0.102 C  
BRANCH  27  28
HETATM   28  C   UNL     1      -9.011   6.441  66.238  1.00  0.00    -0.166 C  
BRANCH  28  29
HETATM   29  C   UNL     1      -8.667   7.894  65.939  1.00  0.00    -0.180 C  
HETATM   30  C   UNL     1      -7.506   7.978  64.964  1.00  0.00    -0.087 C  
ENDBRANCH  28  29
ENDBRANCH  27  28
ENDBRANCH  26  27
ENDBRANCH  24  26
ENDBRANCH  23  24
ENDBRANCH   4  23
TORSDOF 7
ENDMDL
MODEL      125
REMARK 921   NORMALIZED FREE ENERGY PREDICTED BY IDOCK:   -1.71 KCAL/MOL
REMARK 922        TOTAL FREE ENERGY PREDICTED BY IDOCK:   -2.49 KCAL/MOL
REMARK 923 INTER-LIGAND FREE ENERGY PREDICTED BY IDOCK:   -4.98 KCAL/MOL
REMARK 924 INTRA-LIGAND FREE ENERGY PREDICTED BY IDOCK:    2.49 KCAL/MOL
REMARK 927      BINDING AFFINITY PREDICTED BY RF-SCORE:    0.00 PKD
ROOT
HETATM    1  C   UNL     1      -6.775   9.002  66.991  1.00  0.00    -0.069 C  
HETATM    2  C   UNL     1      -5.801  10.025  66.860  1.00  0.00    -0.051 C  
HETATM    3  C   UNL     1      -6.696  10.102  68.041  1.00  0.00    -0.063 C  
HETATM    4  C   UNL     1      -7.821   8.399  68.370  1.00  0.00    -0.113 C  
HETATM    5  C   UNL     1     -10.937  12.831  65.521  1.00  0.00    -0.310 C  
HETATM    6  O   UNL     1     -11.863  14.795  66.387  1.00  0.00    -0.330 OA 
HETATM    7  C   UNL     1      -6.641   8.803  68.932  1.00  0.00    -0.053 C  
HETATM    8  C   UNL     1     -11.575  13.616  66.599  1.00  0.00    -0.364 C  
HETATM    9  C   UNL     1     -10.513  11.570  65.710  1.00  0.00    -0.308 C  
HETATM   10  C   UNL     1      -7.628   9.964  69.982  1.00  0.00    -0.179 C  
HETATM   11  C   UNL     1      -5.457   8.030  69.492  1.00  0.00    -0.026 C  
HETATM   12  C   UNL     1     -11.808  12.983  67.946  1.00  0.00    -0.389 C  
HETATM   13  C   UNL     1      -9.780  10.810  64.625  1.00  0.00    -0.344 C  
HETATM   14  C   UNL     1      -9.036  10.497  69.191  1.00  0.00    -0.171 C  
HETATM   15  C   UNL     1     -11.672  11.470  67.981  1.00  0.00    -0.343 C  
HETATM   16  C   UNL     1      -8.417   9.647  66.493  1.00  0.00    -0.127 C  
HETATM   17  C   UNL     1      -9.183  10.688  67.562  1.00  0.00    -0.151 C  
HETATM   18  C   UNL     1      -8.416  10.244  65.069  1.00  0.00    -0.177 C  
HETATM   19  C   UNL     1     -10.641  10.840  67.037  1.00  0.00    -0.312 C  
ENDROOT
BRANCH   4  20
HETATM   20  C   UNL     1      -8.546   7.649  69.607  1.00  0.00    -0.136 C  
HETATM   21  O   UNL     1      -9.728   7.276  69.608  1.00  0.00    -0.159 OA 
HETATM   22  C   UNL     1      -7.800   7.471  70.908  1.00  0.00    -0.094 C  
ENDBRANCH   4  20
BRANCH   4  23
HETATM   23  O   UNL     1      -7.307   7.005  67.887  1.00  0.00    -0.092 OA 
BRANCH  23  24
HETATM   24  C   UNL     1      -7.835   6.331  66.838  1.00  0.00    -0.104 C  
HETATM   25  O   UNL     1      -8.828   6.660  66.216  1.00  0.00    -0.140 OA 
BRANCH  24  26
HETATM   26  C   UNL     1      -6.875   5.219  66.454  1.00  0.00    -0.059 C  
BRANCH  26  27
HETATM   27  C   UNL     1      -6.974   4.836  64.994  1.00  0.00    -0.061 C  
BRANCH  27  28
HETATM   28  C   UNL     1      -8.406   4.493  64.603  1.00  0.00    -0.117 C  
BRANCH  28  29
HETATM   29  C   UNL     1      -8.432   3.533  63.422  1.00  0.00    -0.090 C  
HETATM   30  C   UNL     1      -7.039   3.001  63.136  1.00  0.00    -0.044 C  
ENDBRANCH  28  29
ENDBRANCH  27  28
ENDBRANCH  26  27
ENDBRANCH  24  26
ENDBRANCH  23  24
ENDBRANCH   4  23
TORSDOF 7
ENDMDL
MODEL      126
REMARK 921   NORMALIZED FREE ENERGY PREDICTED BY IDOCK:   -1.41 KCAL/MOL
REMARK 922        TOTAL FREE ENERGY PREDICTED BY IDOCK:   -2.07 KCAL/MOL
REMARK 923 INTER-LIGAND FREE ENERGY PREDICTED BY IDOCK:   -3.14 KCAL/MOL
REMARK 924 INTRA-LIGAND FREE ENERGY PREDICTED BY IDOCK:    1.07 KCAL/MOL
REMARK 927      BINDING AFFINITY PREDICTED BY RF-SCORE:    0.00 PKD
ROOT
HETATM    1  C   UNL     1      -6.530   6.110  71.119  1.00  0.00    -0.049 C  
HETATM    2  C   UNL     1      -5.384   6.650  70.477  1.00  0.00    -0.019 C  
HETATM    3  C   UNL     1      -6.706   7.078  69.955  1.00  0.00    -0.055 C  
HETATM    4  C   UNL     1      -8.305   6.563  71.161  1.00  0.00    -0.122 C  
HETATM    5  C   UNL     1      -7.509   2.735  66.450  1.00  0.00    -0.071 C  
HETATM    6  O   UNL     1      -8.041   3.021  64.192  1.00  0.00    -0.081 OA 
HETATM    7  C   UNL     1      -7.613   7.738  71.064  1.00  0.00    -0.082 C  
HETATM    8  C   UNL     1      -8.342   3.281  65.358  1.00  0.00    -0.099 C  
HETATM    9  C   UNL     1      -7.723   3.051  67.739  1.00  0.00    -0.064 C  
HETATM   10  C   UNL     1      -8.564   8.080  69.514  1.00  0.00    -0.136 C  
HETATM   11  C   UNL     1      -7.309   8.834  72.073  1.00  0.00    -0.022 C  
HETATM   12  C   UNL     1      -9.503   4.184  65.684  1.00  0.00    -0.177 C  
HETATM   13  C   UNL     1      -6.806   2.559  68.839  1.00  0.00    -0.036 C  
HETATM   14  C   UNL     1      -8.982   6.651  68.694  1.00  0.00    -0.124 C  
HETATM   15  C   UNL     1      -9.928   4.189  67.143  1.00  0.00    -0.102 C  
HETATM   16  C   UNL     1      -7.252   4.786  70.079  1.00  0.00    -0.054 C  
HETATM   17  C   UNL     1      -8.091   5.266  68.708  1.00  0.00    -0.090 C  
HETATM   18  C   UNL     1      -6.232   3.681  69.727  1.00  0.00    -0.028 C  
HETATM   19  C   UNL     1      -8.826   3.994  68.192  1.00  0.00    -0.135 C  
ENDROOT
BRANCH   4  20
HETATM   20  C   UNL     1      -9.809   7.080  71.461  1.00  0.00    -0.172 C  
HETATM   21  O   UNL     1     -10.088   8.188  71.943  1.00  0.00    -0.188 OA 
HETATM   22  C   UNL     1     -10.971   6.138  71.260  1.00  0.00    -0.340 C  
ENDBRANCH   4  20
BRANCH   4  23
HETATM   23  O   UNL     1      -8.110   6.382  72.700  1.00  0.00    -0.105 OA 
BRANCH  23  24
HETATM   24  C   UNL     1      -7.816   5.197  73.287  1.00  0.00    -0.104 C  
HETATM   25  O   UNL     1      -6.756   4.914  73.812  1.00  0.00    -0.065 OA 
BRANCH  24  26
HETATM   26  C   UNL     1      -9.086   4.367  73.347  1.00  0.00    -0.113 C  
BRANCH  26  27
HETATM   27  C   UNL     1      -8.814   2.887  73.507  1.00  0.00    -0.076 C  
BRANCH  27  28
HETATM   28  C   UNL     1     -10.037   2.053  73.144  1.00  0.00    -0.183 C  
BRANCH  28  29
HETATM   29  C   UNL     1     -10.101   1.809  71.643  1.00  0.00    -0.160 C  
HETATM   30  C   UNL     1      -8.724   1.480  71.096  1.00  0.00    -0.090 C  
ENDBRANCH  28  29
ENDBRANCH  27  28
ENDBRANCH  26  27
ENDBRANCH  24  26
ENDBRANCH  23  24
ENDBRANCH   4  23
TORSDOF 7
ENDMDL
MODEL      127
REMARK 921   NORMALIZED FREE ENERGY PREDICTED BY IDOCK:   -1.28 KCAL/MOL
REMARK 922        TOTAL FREE ENERGY PREDICTED BY IDOCK:   -1.89 KCAL/MOL
REMARK 923 INTER-LIGAND FREE ENERGY PREDICTED BY IDOCK:   -2.66 KCAL/MOL
REMARK 924 INTRA-LIGAND FREE ENERGY PREDICTED BY IDOCK:    0.77 KCAL/MOL
REMARK 927      BINDING AFFINITY PREDICTED BY RF-SCORE:    0.00 PKD
ROOT
HETATM    1  C   UNL     1      -7.248  10.570  66.544  1.00  0.00    -0.124 C  
HETATM    2  C   UNL     1      -6.996  10.012  65.263  1.00  0.00    -0.132 C  
HETATM    3  C   UNL     1      -8.401   9.980  65.740  1.00  0.00    -0.134 C  
HETATM    4  C   UNL     1      -8.756  11.134  67.419  1.00  0.00    -0.133 C  
HETATM    5  C   UNL     1      -8.023   5.191  68.691  1.00  0.00    -0.086 C  
HETATM    6  O   UNL     1      -9.509   3.410  68.398  1.00  0.00    -0.177 OA 
HETATM    7  C   UNL     1      -8.955  11.413  66.096  1.00  0.00    -0.207 C  
HETATM    8  C   UNL     1      -9.382   4.610  68.644  1.00  0.00    -0.139 C  
HETATM    9  C   UNL     1      -7.814   6.507  68.864  1.00  0.00    -0.110 C  
HETATM   10  C   UNL     1     -10.477  10.363  66.183  1.00  0.00    -0.224 C  
HETATM   11  C   UNL     1      -8.926  12.713  65.307  1.00  0.00     0.877 C  
HETATM   12  C   UNL     1     -10.582   5.500  68.841  1.00  0.00    -0.258 C  
HETATM   13  C   UNL     1      -6.422   7.101  68.818  1.00  0.00    -0.036 C  
HETATM   14  C   UNL     1     -10.323   9.111  67.323  1.00  0.00    -0.338 C  
HETATM   15  C   UNL     1     -10.279   6.876  69.411  1.00  0.00    -0.194 C  
HETATM   16  C   UNL     1      -7.464   9.225  67.770  1.00  0.00    -0.088 C  
HETATM   17  C   UNL     1      -8.906   8.371  67.718  1.00  0.00    -0.137 C  
HETATM   18  C   UNL     1      -6.264   8.254  67.806  1.00  0.00    -0.052 C  
HETATM   19  C   UNL     1      -8.941   7.515  69.019  1.00  0.00    -0.131 C  
ENDROOT
BRANCH   4  20
HETATM   20  C   UNL     1      -9.997  11.903  68.117  1.00  0.00    -0.197 C  
HETATM   21  O   UNL     1     -10.636  12.827  67.593  1.00  0.00    -0.215 OA 
HETATM   22  C   UNL     1     -10.362  11.578  69.546  1.00  0.00     0.203 C  
ENDBRANCH   4  20
BRANCH   4  23
HETATM   23  O   UNL     1      -7.872  12.385  67.722  1.00  0.00    -0.130 OA 
BRANCH  23  24
HETATM   24  C   UNL     1      -6.982  12.448  68.741  1.00  0.00    -0.094 C  
HETATM   25  O   UNL     1      -7.152  11.989  69.855  1.00  0.00     0.233 OA 
BRANCH  24  26
HETATM   26  C   UNL     1      -5.679  13.011  68.202  1.00  0.00    -0.093 C  
BRANCH  26  27
HETATM   27  C   UNL     1      -5.505  14.483  68.502  1.00  0.00    -0.099 C  
BRANCH  27  28
HETATM   28  C   UNL     1      -6.312  15.347  67.540  1.00  0.00    -0.148 C  
BRANCH  28  29
HETATM   29  C   UNL     1      -6.781  16.625  68.220  1.00  0.00    -0.143 C  
HETATM   30  C   UNL     1      -5.661  17.649  68.264  1.00  0.00    -0.152 C  
ENDBRANCH  28  29
ENDBRANCH  27  28
ENDBRANCH  26  27
ENDBRANCH  24  26
ENDBRANCH  23  24
ENDBRANCH   4  23
TORSDOF 7
ENDMDL
MODEL      128
REMARK 921   NORMALIZED FREE ENERGY PREDICTED BY IDOCK:   -1.09 KCAL/MOL
REMARK 922        TOTAL FREE ENERGY PREDICTED BY IDOCK:   -1.62 KCAL/MOL
REMARK 923 INTER-LIGAND FREE ENERGY PREDICTED BY IDOCK:   -3.23 KCAL/MOL
REMARK 924 INTRA-LIGAND FREE ENERGY PREDICTED BY IDOCK:    1.61 KCAL/MOL
REMARK 927      BINDING AFFINITY PREDICTED BY RF-SCORE:    0.00 PKD
ROOT
HETATM    1  C   UNL     1     -10.192  14.589  67.174  1.00  0.00    -0.260 C  
HETATM    2  C   UNL     1     -11.044  15.506  66.505  1.00  0.00    -0.182 C  
HETATM    3  C   UNL     1     -10.204  16.052  67.600  1.00  0.00    -0.262 C  
HETATM    4  C   UNL     1      -8.731  14.763  68.266  1.00  0.00    -0.170 C  
HETATM    5  C   UNL     1     -13.699  14.799  71.843  1.00  0.00    -0.514 C  
HETATM    6  O   UNL     1     -14.393  16.384  73.414  1.00  0.00    -0.049 OA 
HETATM    7  C   UNL     1      -8.665  15.796  67.373  1.00  0.00    -0.199 C  
HETATM    8  C   UNL     1     -13.437  15.833  72.866  1.00  0.00    -0.580 C  
HETATM    9  C   UNL     1     -12.709  14.222  71.141  1.00  0.00    -0.430 C  
HETATM   10  C   UNL     1      -8.667  16.948  68.821  1.00  0.00    -0.248 C  
HETATM   11  C   UNL     1      -7.786  16.043  66.157  1.00  0.00     0.434 C  
HETATM   12  C   UNL     1     -12.018  16.232  73.179  1.00  0.00    -0.562 C  
HETATM   13  C   UNL     1     -12.997  13.231  70.033  1.00  0.00     0.481 C  
HETATM   14  C   UNL     1      -9.536  16.314  70.138  1.00  0.00     0.780 C  
HETATM   15  C   UNL     1     -10.950  15.289  72.650  1.00  0.00     0.585 C  
HETATM   16  C   UNL     1     -10.916  14.149  68.799  1.00  0.00    -0.275 C  
HETATM   17  C   UNL     1     -10.832  15.305  70.010  1.00  0.00    -0.303 C  
HETATM   18  C   UNL     1     -12.354  13.597  68.680  1.00  0.00     0.003 C  
HETATM   19  C   UNL     1     -11.243  14.577  71.323  1.00  0.00     0.276 C  
ENDROOT
BRANCH   4  20
HETATM   20  C   UNL     1      -7.286  14.849  68.990  1.00  0.00    -0.138 C  
HETATM   21  O   UNL     1      -7.117  15.009  70.208  1.00  0.00    -0.074 OA 
HETATM   22  C   UNL     1      -6.033  14.851  68.147  1.00  0.00    -0.145 C  
ENDBRANCH   4  20
BRANCH   4  23
HETATM   23  O   UNL     1      -8.137  13.679  67.313  1.00  0.00    -0.176 OA 
BRANCH  23  24
HETATM   24  C   UNL     1      -8.624  12.420  67.209  1.00  0.00    -0.185 C  
HETATM   25  O   UNL     1      -8.795  11.813  66.168  1.00  0.00    -0.188 OA 
BRANCH  24  26
HETATM   26  C   UNL     1      -8.735  11.834  68.605  1.00  0.00    -0.059 C  
BRANCH  26  27
HETATM   27  C   UNL     1      -8.421  10.355  68.649  1.00  0.00    -0.129 C  
BRANCH  27  28
HETATM   28  C   UNL     1      -9.359   9.614  69.595  1.00  0.00    -0.226 C  
BRANCH  28  29
HETATM   29  C   UNL     1     -10.553  10.482  69.965  1.00  0.00    -0.223 C  
HETATM   30  C   UNL     1     -11.756   9.620  70.302  1.00  0.00    -0.213 C  
ENDBRANCH  28  29
ENDBRANCH  27  28
ENDBRANCH  26  27
ENDBRANCH  24  26
ENDBRANCH  23  24
ENDBRANCH   4  23
TORSDOF 7
ENDMDL
MODEL      129
REMARK 921   NORMALIZED FREE ENERGY PREDICTED BY IDOCK:   -0.89 KCAL/MOL
REMARK 922        TOTAL FREE ENERGY PREDICTED BY IDOCK:   -1.33 KCAL/MOL
REMARK 923 INTER-LIGAND FREE ENERGY PREDICTED BY IDOCK:   -3.82 KCAL/MOL
REMARK 924 INTRA-LIGAND FREE ENERGY PREDICTED BY IDOCK:    2.49 KCAL/MOL
REMARK 927      BINDING AFFINITY PREDICTED BY RF-SCORE:    0.00 PKD
ROOT
HETATM    1  C   UNL     1      -7.599   9.884  67.169  1.00  0.00    -0.092 C  
HETATM    2  C   UNL     1      -7.115   8.661  66.635  1.00  0.00    -0.080 C  
HETATM    3  C   UNL     1      -8.404   8.606  67.369  1.00  0.00    -0.116 C  
HETATM    4  C   UNL     1      -9.227  10.456  67.783  1.00  0.00    -0.142 C  
HETATM    5  C   UNL     1      -6.233   8.031  72.540  1.00  0.00    -0.064 C  
HETATM    6  O   UNL     1      -6.885   6.324  73.998  1.00  0.00    -0.081 OA 
HETATM    7  C   UNL     1      -9.489   9.579  66.768  1.00  0.00    -0.217 C  
HETATM    8  C   UNL     1      -7.249   7.267  73.293  1.00  0.00    -0.072 C  
HETATM    9  C   UNL     1      -6.566   9.012  71.684  1.00  0.00    -0.042 C  
HETATM   10  C   UNL     1     -10.472   8.587  67.981  1.00  0.00    -0.249 C  
HETATM   11  C   UNL     1      -9.958   9.782  65.335  1.00  0.00    -0.302 C  
HETATM   12  C   UNL     1      -8.708   7.615  73.145  1.00  0.00    -0.222 C  
HETATM   13  C   UNL     1      -5.522   9.725  70.850  1.00  0.00    -0.065 C  
HETATM   14  C   UNL     1      -9.863   8.728  69.562  1.00  0.00    -0.180 C  
HETATM   15  C   UNL     1      -8.988   8.955  72.485  1.00  0.00     0.228 C  
HETATM   16  C   UNL     1      -7.295   9.930  68.976  1.00  0.00    -0.080 C  
HETATM   17  C   UNL     1      -8.279   8.974  69.939  1.00  0.00    -0.124 C  
HETATM   18  C   UNL     1      -5.809   9.707  69.335  1.00  0.00    -0.034 C  
HETATM   19  C   UNL     1      -8.003   9.421  71.405  1.00  0.00     0.297 C  
ENDROOT
BRANCH   4  20
HETATM   20  C   UNL     1     -10.688  11.095  68.063  1.00  0.00    -0.211 C  
HETATM   21  O   UNL     1     -11.268  11.070  69.159  1.00  0.00    -0.212 OA 
HETATM   22  C   UNL     1     -11.479  11.670  66.914  1.00  0.00    -0.320 C  
ENDBRANCH   4  20
BRANCH   4  23
HETATM   23  O   UNL     1      -8.918  11.684  66.869  1.00  0.00    -0.178 OA 
BRANCH  23  24
HETATM   24  C   UNL     1      -7.967  12.607  67.145  1.00  0.00    -0.122 C  
HETATM   25  O   UNL     1      -6.770  12.460  66.976  1.00  0.00    -0.121 OA 
BRANCH  24  26
HETATM   26  C   UNL     1      -8.657  13.908  67.513  1.00  0.00    -0.195 C  
BRANCH  26  27
HETATM   27  C   UNL     1      -7.684  15.041  67.755  1.00  0.00    -0.168 C  
BRANCH  27  28
HETATM   28  C   UNL     1      -8.388  16.268  68.323  1.00  0.00    -0.185 C  
BRANCH  28  29
HETATM   29  C   UNL     1      -8.336  17.428  67.339  1.00  0.00    -0.215 C  
HETATM   30  C   UNL     1      -9.453  17.313  66.318  1.00  0.00    -0.256 C  
ENDBRANCH  28  29
ENDBRANCH  27  28
ENDBRANCH  26  27
ENDBRANCH  24  26
ENDBRANCH  23  24
ENDBRANCH   4  23
TORSDOF 7
ENDMDL
MODEL      130
REMARK 921   NORMALIZED FREE ENERGY PREDICTED BY IDOCK:   -0.72 KCAL/MOL
REMARK 922        TOTAL FREE ENERGY PREDICTED BY IDOCK:   -1.10 KCAL/MOL
REMARK 923 INTER-LIGAND FREE ENERGY PREDICTED BY IDOCK:   -2.55 KCAL/MOL
REMARK 924 INTRA-LIGAND FREE ENERGY PREDICTED BY IDOCK:    1.45 KCAL/MOL
REMARK 927      BINDING AFFINITY PREDICTED BY RF-SCORE:    0.00 PKD
ROOT
HETATM    1  C   UNL     1      -9.731   7.008  67.906  1.00  0.00    -0.141 C  
HETATM    2  C   UNL     1     -10.875   7.202  68.723  1.00  0.00    -0.157 C  
HETATM    3  C   UNL     1      -9.874   8.298  68.703  1.00  0.00    -0.186 C  
HETATM    4  C   UNL     1      -8.443   8.118  67.222  1.00  0.00    -0.125 C  
HETATM    5  C   UNL     1      -6.489   6.217  72.702  1.00  0.00    -0.063 C  
HETATM    6  O   UNL     1      -5.817   7.466  74.561  1.00  0.00    -0.075 OA 
HETATM    7  C   UNL     1      -9.600   8.846  67.250  1.00  0.00    -0.212 C  
HETATM    8  C   UNL     1      -5.873   7.404  73.332  1.00  0.00    -0.052 C  
HETATM    9  C   UNL     1      -6.665   6.123  71.373  1.00  0.00    -0.055 C  
HETATM   10  C   UNL     1      -8.710  10.072  68.313  1.00  0.00    -0.119 C  
HETATM   11  C   UNL     1     -10.561   9.285  66.156  1.00  0.00     0.233 C  
HETATM   12  C   UNL     1      -5.378   8.535  72.468  1.00  0.00    -0.046 C  
HETATM   13  C   UNL     1      -7.379   4.942  70.751  1.00  0.00    -0.064 C  
HETATM   14  C   UNL     1      -7.518   9.335  69.275  1.00  0.00    -0.075 C  
HETATM   15  C   UNL     1      -5.248   8.210  70.989  1.00  0.00    -0.025 C  
HETATM   16  C   UNL     1      -8.294   6.564  68.953  1.00  0.00    -0.122 C  
HETATM   17  C   UNL     1      -7.598   7.795  69.854  1.00  0.00    -0.090 C  
HETATM   18  C   UNL     1      -8.564   5.332  69.845  1.00  0.00    -0.106 C  
HETATM   19  C   UNL     1      -6.259   7.218  70.401  1.00  0.00    -0.034 C  
ENDROOT
BRANCH   4  20
HETATM   20  C   UNL     1      -7.460   9.078  66.366  1.00  0.00    -0.092 C  
HETATM   21  O   UNL     1      -7.836  10.051  65.696  1.00  0.00    -0.125 OA 
HETATM   22  C   UNL     1      -5.994   8.734  66.261  1.00  0.00    -0.051 C  
ENDBRANCH   4  20
BRANCH   4  23
HETATM   23  O   UNL     1      -8.764   7.348  65.901  1.00  0.00    -0.154 OA 
BRANCH  23  24
HETATM   24  C   UNL     1      -8.429   6.054  65.684  1.00  0.00    -0.151 C  
HETATM   25  O   UNL     1      -9.213   5.151  65.455  1.00  0.00    -0.158 OA 
BRANCH  24  26
HETATM   26  C   UNL     1      -6.917   5.961  65.586  1.00  0.00    -0.068 C  
BRANCH  26  27
HETATM   27  C   UNL     1      -6.392   4.576  65.891  1.00  0.00    -0.036 C  
BRANCH  27  28
HETATM   28  C   UNL     1      -7.023   4.006  67.155  1.00  0.00    -0.062 C  
BRANCH  28  29
HETATM   29  C   UNL     1      -7.266   2.510  67.013  1.00  0.00    -0.057 C  
HETATM   30  C   UNL     1      -8.299   2.039  68.021  1.00  0.00    -0.081 C  
ENDBRANCH  28  29
ENDBRANCH  27  28
ENDBRANCH  26  27
ENDBRANCH  24  26
ENDBRANCH  23  24
ENDBRANCH   4  23
TORSDOF 7
ENDMDL
MODEL      131
REMARK 921   NORMALIZED FREE ENERGY PREDICTED BY IDOCK:   -0.46 KCAL/MOL
REMARK 922        TOTAL FREE ENERGY PREDICTED BY IDOCK:   -0.73 KCAL/MOL
REMARK 923 INTER-LIGAND FREE ENERGY PREDICTED BY IDOCK:   -1.25 KCAL/MOL
REMARK 924 INTRA-LIGAND FREE ENERGY PREDICTED BY IDOCK:    0.53 KCAL/MOL
REMARK 927      BINDING AFFINITY PREDICTED BY RF-SCORE:    0.00 PKD
ROOT
HETATM    1  C   UNL     1     -10.435  11.899  66.603  1.00  0.00    -0.250 C  
HETATM    2  C   UNL     1     -11.715  11.625  66.055  1.00  0.00     0.032 C  
HETATM    3  C   UNL     1     -11.438  13.033  66.436  1.00  0.00    -0.384 C  
HETATM    4  C   UNL     1      -9.454  13.424  66.865  1.00  0.00    -0.253 C  
HETATM    5  C   UNL     1     -12.878  12.577  71.868  1.00  0.00    -0.311 C  
HETATM    6  O   UNL     1     -14.402  14.023  72.893  1.00  0.00    -0.354 OA 
HETATM    7  C   UNL     1     -10.166  13.619  65.714  1.00  0.00    -0.317 C  
HETATM    8  C   UNL     1     -13.359  13.923  72.245  1.00  0.00    -0.503 C  
HETATM    9  C   UNL     1     -11.800  12.397  71.086  1.00  0.00     0.695 C  
HETATM   10  C   UNL     1     -10.897  15.120  66.512  1.00  0.00    -0.317 C  
HETATM   11  C   UNL     1      -9.763  13.612  64.247  1.00  0.00     1.080 C  
HETATM   12  C   UNL     1     -12.601  15.142  71.787  1.00  0.00    -0.418 C  
HETATM   13  C   UNL     1     -11.372  11.017  70.633  1.00  0.00     0.025 C  
HETATM   14  C   UNL     1     -11.019  14.948  68.200  1.00  0.00    -0.276 C  
HETATM   15  C   UNL     1     -11.205  14.872  71.252  1.00  0.00    -0.183 C  
HETATM   16  C   UNL     1     -10.572  12.095  68.420  1.00  0.00    -0.243 C  
HETATM   17  C   UNL     1     -11.256  13.519  68.983  1.00  0.00    -0.314 C  
HETATM   18  C   UNL     1     -11.228  10.876  69.104  1.00  0.00    -0.318 C  
HETATM   19  C   UNL     1     -10.984  13.545  70.516  1.00  0.00     1.190 C  
ENDROOT
BRANCH   4  20
HETATM   20  C   UNL     1      -8.441  14.686  66.854  1.00  0.00    -0.173 C  
HETATM   21  O   UNL     1      -7.937  15.175  65.832  1.00  0.00     1.081 OA 
HETATM   22  C   UNL     1      -7.964  15.266  68.164  1.00  0.00    -0.128 C  
ENDBRANCH   4  20
BRANCH   4  23
HETATM   23  O   UNL     1      -8.320  12.568  66.216  1.00  0.00     0.160 OA 
BRANCH  23  24
HETATM   24  C   UNL     1      -7.313  11.996  66.919  1.00  0.00    -0.042 C  
HETATM   25  O   UNL     1      -6.354  12.585  67.384  1.00  0.00    -0.143 OA 
BRANCH  24  26
HETATM   26  C   UNL     1      -7.683  10.549  67.190  1.00  0.00    -0.101 C  
BRANCH  26  27
HETATM   27  C   UNL     1      -7.646  10.198  68.661  1.00  0.00    -0.086 C  
BRANCH  27  28
HETATM   28  C   UNL     1      -7.993   8.732  68.894  1.00  0.00    -0.105 C  
BRANCH  28  29
HETATM   29  C   UNL     1      -8.848   8.569  70.142  1.00  0.00    -0.138 C  
HETATM   30  C   UNL     1      -9.456   7.179  70.194  1.00  0.00    -0.161 C  
ENDBRANCH  28  29
ENDBRANCH  27  28
ENDBRANCH  26  27
ENDBRANCH  24  26
ENDBRANCH  23  24
ENDBRANCH   4  23
TORSDOF 7
ENDMDL
MODEL      132
REMARK 921   NORMALIZED FREE ENERGY PREDICTED BY IDOCK:   -0.33 KCAL/MOL
REMARK 922        TOTAL FREE ENERGY PREDICTED BY IDOCK:   -0.55 KCAL/MOL
REMARK 923 INTER-LIGAND FREE ENERGY PREDICTED BY IDOCK:   -2.72 KCAL/MOL
REMARK 924 INTRA-LIGAND FREE ENERGY PREDICTED BY IDOCK:    2.17 KCAL/MOL
REMARK 927      BINDING AFFINITY PREDICTED BY RF-SCORE:    0.00 PKD
ROOT
HETATM    1  C   UNL     1      -9.858   7.672  67.315  1.00  0.00    -0.245 C  
HETATM    2  C   UNL     1     -11.037   8.308  67.785  1.00  0.00     0.316 C  
HETATM    3  C   UNL     1      -9.786   9.105  67.826  1.00  0.00    -0.214 C  
HETATM    4  C   UNL     1      -8.207   8.267  66.789  1.00  0.00    -0.103 C  
HETATM    5  C   UNL     1      -7.941   7.246  72.818  1.00  0.00    -0.116 C  
HETATM    6  O   UNL     1      -7.316   8.689  74.548  1.00  0.00    -0.317 OA 
HETATM    7  C   UNL     1      -9.099   9.232  66.413  1.00  0.00    -0.200 C  
HETATM    8  C   UNL     1      -7.151   8.367  73.370  1.00  0.00    -0.074 C  
HETATM    9  C   UNL     1      -7.879   6.899  71.522  1.00  0.00    -0.100 C  
HETATM   10  C   UNL     1      -8.123  10.423  67.439  1.00  0.00    -0.107 C  
HETATM   11  C   UNL     1      -9.672   9.626  65.061  1.00  0.00    -0.234 C  
HETATM   12  C   UNL     1      -6.206   9.126  72.476  1.00  0.00     0.116 C  
HETATM   13  C   UNL     1      -8.762   5.809  70.951  1.00  0.00    -0.135 C  
HETATM   14  C   UNL     1      -7.389   9.664  68.771  1.00  0.00    -0.074 C  
HETATM   15  C   UNL     1      -5.892   8.455  71.150  1.00  0.00    -0.034 C  
HETATM   16  C   UNL     1      -8.829   7.152  68.740  1.00  0.00    -0.130 C  
HETATM   17  C   UNL     1      -8.003   8.357  69.563  1.00  0.00    -0.111 C  
HETATM   18  C   UNL     1      -9.596   6.251  69.732  1.00  0.00    -0.169 C  
HETATM   19  C   UNL     1      -7.008   7.621  70.508  1.00  0.00    -0.047 C  
ENDROOT
BRANCH   4  20
HETATM   20  C   UNL     1      -6.851   8.752  66.050  1.00  0.00    -0.073 C  
HETATM   21  O   UNL     1      -5.705   8.472  66.429  1.00  0.00    -0.044 OA 
HETATM   22  C   UNL     1      -6.943   9.704  64.881  1.00  0.00    -0.113 C  
ENDBRANCH   4  20
BRANCH   4  23
HETATM   23  O   UNL     1      -8.471   7.316  65.578  1.00  0.00    -0.141 OA 
BRANCH  23  24
HETATM   24  C   UNL     1      -7.890   6.101  65.435  1.00  0.00    -0.106 C  
HETATM   25  O   UNL     1      -8.018   5.163  66.199  1.00  0.00    -0.102 OA 
BRANCH  24  26
HETATM   26  C   UNL     1      -7.217   6.051  64.074  1.00  0.00    -0.057 C  
BRANCH  26  27
HETATM   27  C   UNL     1      -7.528   4.783  63.311  1.00  0.00    -0.054 C  
BRANCH  27  28
HETATM   28  C   UNL     1      -6.538   3.673  63.646  1.00  0.00    -0.034 C  
BRANCH  28  29
HETATM   29  C   UNL     1      -5.150   4.009  63.121  1.00  0.00    -0.005 C  
HETATM   30  C   UNL     1      -5.173   5.314  62.346  1.00  0.00    -0.013 C  
ENDBRANCH  28  29
ENDBRANCH  27  28
ENDBRANCH  26  27
ENDBRANCH  24  26
ENDBRANCH  23  24
ENDBRANCH   4  23
TORSDOF 7
ENDMDL
MODEL      133
REMARK 921   NORMALIZED FREE ENERGY PREDICTED BY IDOCK:   -0.23 KCAL/MOL
REMARK 922        TOTAL FREE ENERGY PREDICTED BY IDOCK:   -0.41 KCAL/MOL
REMARK 923 INTER-LIGAND FREE ENERGY PREDICTED BY IDOCK:   -1.38 KCAL/MOL
REMARK 924 INTRA-LIGAND FREE ENERGY PREDICTED BY IDOCK:    0.97 KCAL/MOL
REMARK 927      BINDING AFFINITY PREDICTED BY RF-SCORE:    0.00 PKD
ROOT
HETATM    1  C   UNL     1      -6.425  10.278  65.667  1.00  0.00    -0.118 C  
HETATM    2  C   UNL     1      -6.142  10.497  64.294  1.00  0.00    -0.019 C  
HETATM    3  C   UNL     1      -7.520  10.062  64.631  1.00  0.00    -0.143 C  
HETATM    4  C   UNL     1      -7.965  10.130  66.649  1.00  0.00    -0.116 C  
HETATM    5  C   UNL     1      -6.503   4.517  64.690  1.00  0.00    -0.039 C  
HETATM    6  O   UNL     1      -7.776   2.990  63.460  1.00  0.00    -0.066 OA 
HETATM    7  C   UNL     1      -8.230  11.029  65.654  1.00  0.00    -0.026 C  
HETATM    8  C   UNL     1      -7.785   3.894  64.297  1.00  0.00    -0.084 C  
HETATM    9  C   UNL     1      -6.446   5.567  65.526  1.00  0.00    -0.040 C  
HETATM   10  C   UNL     1      -9.615   9.920  65.127  1.00  0.00    -0.367 C  
HETATM   11  C   UNL     1      -8.375  12.543  65.655  1.00  0.00     1.391 C  
HETATM   12  C   UNL     1      -9.075   4.409  64.880  1.00  0.00    -0.151 C  
HETATM   13  C   UNL     1      -5.135   6.253  65.848  1.00  0.00    -0.013 C  
HETATM   14  C   UNL     1      -9.284   8.286  65.460  1.00  0.00    -0.000 C  
HETATM   15  C   UNL     1      -8.922   5.314  66.090  1.00  0.00    -0.139 C  
HETATM   16  C   UNL     1      -6.448   8.478  66.011  1.00  0.00    -0.053 C  
HETATM   17  C   UNL     1      -7.780   7.616  65.469  1.00  0.00    -0.101 C  
HETATM   18  C   UNL     1      -5.141   7.773  65.586  1.00  0.00    -0.025 C  
HETATM   19  C   UNL     1      -7.679   6.213  66.137  1.00  0.00    -0.099 C  
ENDROOT
BRANCH   4  20
HETATM   20  C   UNL     1      -9.269  10.277  67.596  1.00  0.00    -0.144 C  
HETATM   21  O   UNL     1      -9.735  11.358  67.986  1.00  0.00    -0.174 OA 
HETATM   22  C   UNL     1      -9.925   9.038  68.154  1.00  0.00    -0.206 C  
ENDBRANCH   4  20
BRANCH   4  23
HETATM   23  O   UNL     1      -7.226  11.134  67.590  1.00  0.00    -0.088 OA 
BRANCH  23  24
HETATM   24  C   UNL     1      -6.633  10.778  68.753  1.00  0.00    -0.054 C  
HETATM   25  O   UNL     1      -7.087   9.994  69.566  1.00  0.00    -0.068 OA 
BRANCH  24  26
HETATM   26  C   UNL     1      -5.234  11.368  68.776  1.00  0.00    -0.043 C  
BRANCH  26  27
HETATM   27  C   UNL     1      -5.149  12.648  69.578  1.00  0.00    -0.071 C  
BRANCH  27  28
HETATM   28  C   UNL     1      -5.213  13.875  68.678  1.00  0.00    -0.089 C  
BRANCH  28  29
HETATM   29  C   UNL     1      -6.045  14.977  69.321  1.00  0.00    -0.107 C  
HETATM   30  C   UNL     1      -5.421  15.421  70.631  1.00  0.00    -0.123 C  
ENDBRANCH  28  29
ENDBRANCH  27  28
ENDBRANCH  26  27
ENDBRANCH  24  26
ENDBRANCH  23  24
ENDBRANCH   4  23
TORSDOF 7
ENDMDL
MODEL      134
REMARK 921   NORMALIZED FREE ENERGY PREDICTED BY IDOCK:    0.30 KCAL/MOL
REMARK 922        TOTAL FREE ENERGY PREDICTED BY IDOCK:    0.33 KCAL/MOL
REMARK 923 INTER-LIGAND FREE ENERGY PREDICTED BY IDOCK:   -6.43 KCAL/MOL
REMARK 924 INTRA-LIGAND FREE ENERGY PREDICTED BY IDOCK:    6.76 KCAL/MOL
REMARK 927      BINDING AFFINITY PREDICTED BY RF-SCORE:    0.00 PKD
ROOT
HETATM    1  C   UNL     1     -10.159  15.466  66.800  1.00  0.00    -0.266 C  
HETATM    2  C   UNL     1     -11.436  15.270  67.388  1.00  0.00    -0.246 C  
HETATM    3  C   UNL     1     -10.271  14.715  68.121  1.00  0.00    -0.231 C  
HETATM    4  C   UNL     1      -8.437  15.357  67.415  1.00  0.00    -0.181 C  
HETATM    5  C   UNL     1      -9.995   9.802  65.370  1.00  0.00    -0.302 C  
HETATM    6  O   UNL     1      -9.950   7.741  66.472  1.00  0.00    -0.230 OA 
HETATM    7  C   UNL     1      -9.189  15.811  68.463  1.00  0.00    -0.198 C  
HETATM    8  C   UNL     1      -9.430   8.852  66.350  1.00  0.00    -0.220 C  
HETATM    9  C   UNL     1      -9.537  11.060  65.247  1.00  0.00    -0.270 C  
HETATM   10  C   UNL     1      -8.592  14.347  69.425  1.00  0.00     0.292 C  
HETATM   11  C   UNL     1      -9.332  17.183  69.103  1.00  0.00    -0.063 C  
HETATM   12  C   UNL     1      -8.271   9.272  67.216  1.00  0.00    -0.121 C  
HETATM   13  C   UNL     1     -10.185  12.051  64.304  1.00  0.00    -0.347 C  
HETATM   14  C   UNL     1      -8.284  13.009  68.423  1.00  0.00    -0.123 C  
HETATM   15  C   UNL     1      -7.558  10.538  66.771  1.00  0.00    -0.115 C  
HETATM   16  C   UNL     1      -9.602  13.910  66.007  1.00  0.00    -0.210 C  
HETATM   17  C   UNL     1      -9.086  12.680  67.022  1.00  0.00    -0.215 C  
HETATM   18  C   UNL     1     -10.618  13.368  64.978  1.00  0.00    -0.370 C  
HETATM   19  C   UNL     1      -8.411  11.621  66.100  1.00  0.00    -0.008 C  
ENDROOT
BRANCH   4  20
HETATM   20  C   UNL     1      -6.930  15.556  67.971  1.00  0.00    -0.132 C  
HETATM   21  O   UNL     1      -5.903  15.392  67.294  1.00  0.00    -0.334 OA 
HETATM   22  C   UNL     1      -6.711  15.852  69.435  1.00  0.00    -0.189 C  
ENDBRANCH   4  20
BRANCH   4  23
HETATM   23  O   UNL     1      -8.303  16.737  66.696  1.00  0.00    -0.209 OA 
BRANCH  23  24
HETATM   24  C   UNL     1      -7.464  17.719  67.103  1.00  0.00    -0.194 C  
HETATM   25  O   UNL     1      -7.132  17.932  68.255  1.00  0.00    -0.216 OA 
BRANCH  24  26
HETATM   26  C   UNL     1      -6.866  18.376  65.872  1.00  0.00    -0.317 C  
BRANCH  26  27
HETATM   27  C   UNL     1      -7.480  19.725  65.569  1.00  0.00    -0.184 C  
BRANCH  27  28
HETATM   28  C   UNL     1      -8.460  20.149  66.657  1.00  0.00    -0.343 C  
BRANCH  28  29
HETATM   29  C   UNL     1      -9.858  20.334  66.085  1.00  0.00    -0.440 C  
HETATM   30  C   UNL     1     -10.736  19.143  66.424  1.00  0.00    -0.450 C  
ENDBRANCH  28  29
ENDBRANCH  27  28
ENDBRANCH  26  27
ENDBRANCH  24  26
ENDBRANCH  23  24
ENDBRANCH   4  23
TORSDOF 7
ENDMDL
MODEL      135
REMARK 921   NORMALIZED FREE ENERGY PREDICTED BY IDOCK:    0.31 KCAL/MOL
REMARK 922        TOTAL FREE ENERGY PREDICTED BY IDOCK:    0.36 KCAL/MOL
REMARK 923 INTER-LIGAND FREE ENERGY PREDICTED BY IDOCK:   -2.45 KCAL/MOL
REMARK 924 INTRA-LIGAND FREE ENERGY PREDICTED BY IDOCK:    2.80 KCAL/MOL
REMARK 927      BINDING AFFINITY PREDICTED BY RF-SCORE:    0.00 PKD
ROOT
HETATM    1  C   UNL     1     -10.271  14.460  67.152  1.00  0.00    -0.257 C  
HETATM    2  C   UNL     1     -11.126  15.377  66.486  1.00  0.00    -0.227 C  
HETATM    3  C   UNL     1     -10.274  15.925  67.571  1.00  0.00    -0.269 C  
HETATM    4  C   UNL     1      -8.800  14.634  68.230  1.00  0.00    -0.176 C  
HETATM    5  C   UNL     1     -13.734  14.708  71.852  1.00  0.00    -0.510 C  
HETATM    6  O   UNL     1     -14.408  16.305  73.421  1.00  0.00    -0.049 OA 
HETATM    7  C   UNL     1      -8.739  15.661  67.330  1.00  0.00    -0.194 C  
HETATM    8  C   UNL     1     -13.459  15.747  72.867  1.00  0.00    -0.580 C  
HETATM    9  C   UNL     1     -12.754  14.124  71.144  1.00  0.00    -0.431 C  
HETATM   10  C   UNL     1      -8.723  16.821  68.773  1.00  0.00    -0.258 C  
HETATM   11  C   UNL     1      -7.869  15.899  66.105  1.00  0.00     0.444 C  
HETATM   12  C   UNL     1     -12.036  16.142  73.165  1.00  0.00    -0.576 C  
HETATM   13  C   UNL     1     -13.056  13.128  70.044  1.00  0.00     0.785 C  
HETATM   14  C   UNL     1      -9.582  16.198  70.101  1.00  0.00     0.647 C  
HETATM   15  C   UNL     1     -10.977  15.192  72.631  1.00  0.00     0.673 C  
HETATM   16  C   UNL     1     -10.983  14.031  68.786  1.00  0.00    -0.282 C  
HETATM   17  C   UNL     1     -10.883  15.194  69.990  1.00  0.00    -0.275 C  
HETATM   18  C   UNL     1     -12.423  13.484  68.684  1.00  0.00     0.283 C  
HETATM   19  C   UNL     1     -11.284  14.474  71.311  1.00  0.00     0.276 C  
ENDROOT
BRANCH   4  20
HETATM   20  C   UNL     1      -7.348  14.718  68.940  1.00  0.00    -0.130 C  
HETATM   21  O   UNL     1      -7.166  14.767  70.165  1.00  0.00    -0.082 OA 
HETATM   22  C   UNL     1      -6.112  14.862  68.085  1.00  0.00    -0.145 C  
ENDBRANCH   4  20
BRANCH   4  23
HETATM   23  O   UNL     1      -8.219  13.542  67.277  1.00  0.00    -0.177 OA 
BRANCH  23  24
HETATM   24  C   UNL     1      -8.528  12.227  67.363  1.00  0.00    -0.176 C  
HETATM   25  O   UNL     1      -8.814  11.634  68.387  1.00  0.00    -0.162 OA 
BRANCH  24  26
HETATM   26  C   UNL     1      -8.645  11.671  65.955  1.00  0.00     0.065 C  
BRANCH  26  27
HETATM   27  C   UNL     1      -7.516  10.728  65.599  1.00  0.00    -0.034 C  
BRANCH  27  28
HETATM   28  C   UNL     1      -7.927   9.755  64.501  1.00  0.00    -0.144 C  
BRANCH  28  29
HETATM   29  C   UNL     1      -9.306  10.101  63.958  1.00  0.00    -0.339 C  
HETATM   30  C   UNL     1      -9.344  11.539  63.474  1.00  0.00    -0.147 C  
ENDBRANCH  28  29
ENDBRANCH  27  28
ENDBRANCH  26  27
ENDBRANCH  24  26
ENDBRANCH  23  24
ENDBRANCH   4  23
TORSDOF 7
ENDMDL
MODEL      136
REMARK 921   NORMALIZED FREE ENERGY PREDICTED BY IDOCK:    1.88 KCAL/MOL
REMARK 922        TOTAL FREE ENERGY PREDICTED BY IDOCK:    2.56 KCAL/MOL
REMARK 923 INTER-LIGAND FREE ENERGY PREDICTED BY IDOCK:   -4.52 KCAL/MOL
REMARK 924 INTRA-LIGAND FREE ENERGY PREDICTED BY IDOCK:    7.08 KCAL/MOL
REMARK 927      BINDING AFFINITY PREDICTED BY RF-SCORE:    0.00 PKD
ROOT
HETATM    1  C   UNL     1      -7.758  10.897  68.194  1.00  0.00    -0.103 C  
HETATM    2  C   UNL     1      -7.249   9.909  67.311  1.00  0.00    -0.086 C  
HETATM    3  C   UNL     1      -8.717   9.921  67.525  1.00  0.00    -0.121 C  
HETATM    4  C   UNL     1      -9.421  11.599  68.507  1.00  0.00    -0.173 C  
HETATM    5  C   UNL     1      -8.764   6.753  72.188  1.00  0.00    -0.132 C  
HETATM    6  O   UNL     1     -10.111   4.855  72.410  1.00  0.00    -0.173 OA 
HETATM    7  C   UNL     1      -9.373  11.310  67.171  1.00  0.00    -0.172 C  
HETATM    8  C   UNL     1     -10.070   6.062  72.163  1.00  0.00    -0.181 C  
HETATM    9  C   UNL     1      -8.632   8.044  71.842  1.00  0.00    -0.180 C  
HETATM   10  C   UNL     1     -10.851  10.227  67.431  1.00  0.00    -0.336 C  
HETATM   11  C   UNL     1      -9.233  12.190  65.938  1.00  0.00    -0.069 C  
HETATM   12  C   UNL     1     -11.312   6.826  71.783  1.00  0.00    -0.307 C  
HETATM   13  C   UNL     1      -7.275   8.714  71.785  1.00  0.00    -0.103 C  
HETATM   14  C   UNL     1     -10.879   9.550  68.990  1.00  0.00    -0.184 C  
HETATM   15  C   UNL     1     -11.165   8.338  71.784  1.00  0.00    -0.346 C  
HETATM   16  C   UNL     1      -8.162  10.130  69.809  1.00  0.00    -0.161 C  
HETATM   17  C   UNL     1      -9.541   9.179  69.877  1.00  0.00    -0.206 C  
HETATM   18  C   UNL     1      -6.962   9.384  70.432  1.00  0.00    -0.100 C  
HETATM   19  C   UNL     1      -9.797   8.907  71.388  1.00  0.00    -0.376 C  
ENDROOT
BRANCH   4  20
HETATM   20  C   UNL     1     -10.795  12.446  68.621  1.00  0.00    -0.240 C  
HETATM   21  O   UNL     1     -11.493  12.787  67.654  1.00  0.00    -0.292 OA 
HETATM   22  C   UNL     1     -11.234  12.971  69.966  1.00  0.00     0.202 C  
ENDBRANCH   4  20
BRANCH   4  23
HETATM   23  O   UNL     1      -8.649  12.953  68.413  1.00  0.00    -0.174 OA 
BRANCH  23  24
HETATM   24  C   UNL     1      -8.901  13.900  67.477  1.00  0.00    -0.196 C  
HETATM   25  O   UNL     1      -9.909  13.970  66.799  1.00  0.00    -0.257 OA 
BRANCH  24  26
HETATM   26  C   UNL     1      -7.811  14.953  67.558  1.00  0.00    -0.206 C  
BRANCH  26  27
HETATM   27  C   UNL     1      -7.087  14.949  68.886  1.00  0.00    -0.117 C  
BRANCH  27  28
HETATM   28  C   UNL     1      -5.620  15.329  68.722  1.00  0.00    -0.090 C  
BRANCH  28  29
HETATM   29  C   UNL     1      -5.187  16.301  69.811  1.00  0.00    -0.130 C  
HETATM   30  C   UNL     1      -5.909  16.002  71.112  1.00  0.00     0.494 C  
ENDBRANCH  28  29
ENDBRANCH  27  28
ENDBRANCH  26  27
ENDBRANCH  24  26
ENDBRANCH  23  24
ENDBRANCH   4  23
TORSDOF 7
ENDMDL
MODEL      137
REMARK 921   NORMALIZED FREE ENERGY PREDICTED BY IDOCK:    2.40 KCAL/MOL
REMARK 922        TOTAL FREE ENERGY PREDICTED BY IDOCK:    3.29 KCAL/MOL
REMARK 923 INTER-LIGAND FREE ENERGY PREDICTED BY IDOCK:   -3.37 KCAL/MOL
REMARK 924 INTRA-LIGAND FREE ENERGY PREDICTED BY IDOCK:    6.66 KCAL/MOL
REMARK 927      BINDING AFFINITY PREDICTED BY RF-SCORE:    0.00 PKD
ROOT
HETATM    1  C   UNL     1      -9.517   8.446  68.877  1.00  0.00    -0.147 C  
HETATM    2  C   UNL     1      -8.126   8.729  68.873  1.00  0.00    -0.114 C  
HETATM    3  C   UNL     1      -9.009   9.726  69.528  1.00  0.00    -0.215 C  
HETATM    4  C   UNL     1     -10.949   9.078  69.829  1.00  0.00    -0.166 C  
HETATM    5  C   UNL     1     -10.336  12.633  64.883  1.00  0.00    -0.330 C  
HETATM    6  O   UNL     1     -10.092  14.953  64.736  1.00  0.00    -0.285 OA 
HETATM    7  C   UNL     1      -9.882   9.101  70.683  1.00  0.00    -0.308 C  
HETATM    8  C   UNL     1     -10.585  14.010  65.358  1.00  0.00    -0.341 C  
HETATM    9  C   UNL     1     -10.764  11.555  65.561  1.00  0.00    -0.328 C  
HETATM   10  C   UNL     1     -10.185  10.915  70.891  1.00  0.00     2.440 C  
HETATM   11  C   UNL     1      -9.490   8.217  71.857  1.00  0.00    -0.287 C  
HETATM   12  C   UNL     1     -11.384  14.234  66.615  1.00  0.00    -0.356 C  
HETATM   13  C   UNL     1     -10.423  10.149  65.112  1.00  0.00     0.043 C  
HETATM   14  C   UNL     1     -10.849  11.614  69.490  1.00  0.00    -0.087 C  
HETATM   15  C   UNL     1     -12.158  13.024  67.112  1.00  0.00    -0.325 C  
HETATM   16  C   UNL     1     -10.356   9.469  67.609  1.00  0.00    -0.299 C  
HETATM   17  C   UNL     1     -10.558  11.098  67.954  1.00  0.00    -0.235 C  
HETATM   18  C   UNL     1      -9.749   9.289  66.200  1.00  0.00    -0.349 C  
HETATM   19  C   UNL     1     -11.531  11.646  66.870  1.00  0.00    -0.320 C  
ENDROOT
BRANCH   4  20
HETATM   20  C   UNL     1     -12.186   9.388  70.826  1.00  0.00    -0.162 C  
HETATM   21  O   UNL     1     -12.078   9.939  71.931  1.00  0.00    -0.357 OA 
HETATM   22  C   UNL     1     -13.566   8.887  70.473  1.00  0.00     0.821 C  
ENDBRANCH   4  20
BRANCH   4  23
HETATM   23  O   UNL     1     -11.260   7.557  69.991  1.00  0.00    -0.243 OA 
BRANCH  23  24
HETATM   24  C   UNL     1     -10.990   6.849  71.114  1.00  0.00    -0.251 C  
HETATM   25  O   UNL     1     -11.386   7.121  72.232  1.00  0.00    -0.249 OA 
BRANCH  24  26
HETATM   26  C   UNL     1     -10.278   5.570  70.712  1.00  0.00    -0.302 C  
BRANCH  26  27
HETATM   27  C   UNL     1      -9.493   4.952  71.848  1.00  0.00    -0.194 C  
BRANCH  27  28
HETATM   28  C   UNL     1     -10.306   3.885  72.572  1.00  0.00    -0.210 C  
BRANCH  28  29
HETATM   29  C   UNL     1      -9.748   3.630  73.965  1.00  0.00    -0.141 C  
HETATM   30  C   UNL     1      -8.333   3.087  73.882  1.00  0.00    -0.073 C  
ENDBRANCH  28  29
ENDBRANCH  27  28
ENDBRANCH  26  27
ENDBRANCH  24  26
ENDBRANCH  23  24
ENDBRANCH   4  23
TORSDOF 7
ENDMDL
MODEL      138
REMARK 921   NORMALIZED FREE ENERGY PREDICTED BY IDOCK:    3.30 KCAL/MOL
REMARK 922        TOTAL FREE ENERGY PREDICTED BY IDOCK:    4.57 KCAL/MOL
REMARK 923 INTER-LIGAND FREE ENERGY PREDICTED BY IDOCK:   -4.01 KCAL/MOL
REMARK 924 INTRA-LIGAND FREE ENERGY PREDICTED BY IDOCK:    8.58 KCAL/MOL
REMARK 927      BINDING AFFINITY PREDICTED BY RF-SCORE:    0.00 PKD
ROOT
HETATM    1  C   UNL     1      -9.333   9.644  70.122  1.00  0.00    -0.294 C  
HETATM    2  C   UNL     1      -8.566   8.962  69.141  1.00  0.00    -0.134 C  
HETATM    3  C   UNL     1      -9.815   8.300  69.592  1.00  0.00    -0.184 C  
HETATM    4  C   UNL     1     -11.059   9.506  70.720  1.00  0.00    -0.323 C  
HETATM    5  C   UNL     1      -7.644   5.724  74.112  1.00  0.00    -0.092 C  
HETATM    6  O   UNL     1      -7.894   3.432  74.498  1.00  0.00    -0.060 OA 
HETATM    7  C   UNL     1     -11.091   9.204  69.387  1.00  0.00    -0.027 C  
HETATM    8  C   UNL     1      -8.461   4.504  74.280  1.00  0.00    -0.104 C  
HETATM    9  C   UNL     1      -8.188   6.908  73.784  1.00  0.00    -0.136 C  
HETATM   10  C   UNL     1     -11.829   7.572  69.854  1.00  0.00     0.317 C  
HETATM   11  C   UNL     1     -11.574   9.981  68.172  1.00  0.00     0.273 C  
HETATM   12  C   UNL     1      -9.959   4.581  74.129  1.00  0.00    -0.205 C  
HETATM   13  C   UNL     1      -7.330   8.129  73.525  1.00  0.00    -0.190 C  
HETATM   14  C   UNL     1     -11.293   7.043  71.378  1.00  0.00    -0.298 C  
HETATM   15  C   UNL     1     -10.538   5.985  74.147  1.00  0.00    -0.152 C  
HETATM   16  C   UNL     1      -9.074   8.863  71.759  1.00  0.00    -0.241 C  
HETATM   17  C   UNL     1      -9.817   7.384  72.025  1.00  0.00    -0.191 C  
HETATM   18  C   UNL     1      -7.583   8.796  72.158  1.00  0.00     0.008 C  
HETATM   19  C   UNL     1      -9.676   7.104  73.550  1.00  0.00    -0.293 C  
ENDROOT
BRANCH   4  20
HETATM   20  C   UNL     1     -12.633   9.620  71.079  1.00  0.00    -0.283 C  
HETATM   21  O   UNL     1     -13.552   9.241  70.338  1.00  0.00     0.433 OA 
HETATM   22  C   UNL     1     -13.057  10.331  72.341  1.00  0.00    -0.135 C  
ENDBRANCH   4  20
BRANCH   4  23
HETATM   23  O   UNL     1     -11.036  11.057  70.539  1.00  0.00    -0.084 OA 
BRANCH  23  24
HETATM   24  C   UNL     1     -10.610  11.676  69.412  1.00  0.00     0.039 C  
HETATM   25  O   UNL     1      -9.518  11.529  68.895  1.00  0.00    -0.136 OA 
BRANCH  24  26
HETATM   26  C   UNL     1     -11.784  12.427  68.807  1.00  0.00    -0.379 C  
BRANCH  26  27
HETATM   27  C   UNL     1     -11.381  13.313  67.649  1.00  0.00    -0.328 C  
BRANCH  27  28
HETATM   28  C   UNL     1     -10.767  14.620  68.135  1.00  0.00    -0.242 C  
BRANCH  28  29
HETATM   29  C   UNL     1     -10.983  15.732  67.118  1.00  0.00    -0.244 C  
HETATM   30  C   UNL     1     -10.212  16.977  67.516  1.00  0.00    -0.323 C  
ENDBRANCH  28  29
ENDBRANCH  27  28
ENDBRANCH  26  27
ENDBRANCH  24  26
ENDBRANCH  23  24
ENDBRANCH   4  23
TORSDOF 7
ENDMDL
MODEL      139
REMARK 921   NORMALIZED FREE ENERGY PREDICTED BY IDOCK:    8.09 KCAL/MOL
REMARK 922        TOTAL FREE ENERGY PREDICTED BY IDOCK:   11.32 KCAL/MOL
REMARK 923 INTER-LIGAND FREE ENERGY PREDICTED BY IDOCK:   -5.51 KCAL/MOL
REMARK 924 INTRA-LIGAND FREE ENERGY PREDICTED BY IDOCK:   16.83 KCAL/MOL
REMARK 927      BINDING AFFINITY PREDICTED BY RF-SCORE:    0.00 PKD
ROOT
HETATM    1  C   UNL     1      -8.111   8.028  68.237  1.00  0.00    -0.126 C  
HETATM    2  C   UNL     1      -6.934   8.814  68.344  1.00  0.00    -0.066 C  
HETATM    3  C   UNL     1      -7.846   8.816  69.515  1.00  0.00    -0.091 C  
HETATM    4  C   UNL     1      -9.326   7.374  69.442  1.00  0.00    -0.155 C  
HETATM    5  C   UNL     1     -11.275  12.913  67.714  1.00  0.00    -0.319 C  
HETATM    6  O   UNL     1     -11.796  14.783  69.016  1.00  0.00    -0.298 OA 
HETATM    7  C   UNL     1      -8.116   7.368  70.078  1.00  0.00    -0.129 C  
HETATM    8  C   UNL     1     -11.779  13.553  68.947  1.00  0.00    -0.339 C  
HETATM    9  C   UNL     1     -11.142  11.581  67.603  1.00  0.00    -0.324 C  
HETATM   10  C   UNL     1      -8.879   8.449  71.373  1.00  0.00    -0.230 C  
HETATM   11  C   UNL     1      -7.154   6.247  70.439  1.00  0.00    -0.071 C  
HETATM   12  C   UNL     1     -12.207  12.697  70.111  1.00  0.00    -0.310 C  
HETATM   13  C   UNL     1     -10.539  10.944  66.368  1.00  0.00    -0.289 C  
HETATM   14  C   UNL     1     -10.099   9.445  70.733  1.00  0.00    -0.366 C  
HETATM   15  C   UNL     1     -12.402  11.225  69.792  1.00  0.00    -0.277 C  
HETATM   16  C   UNL     1      -9.549   9.116  67.910  1.00  0.00    -0.168 C  
HETATM   17  C   UNL     1     -10.123  10.029  69.193  1.00  0.00    -0.219 C  
HETATM   18  C   UNL     1      -9.352  10.006  66.662  1.00  0.00    -0.202 C  
HETATM   19  C   UNL     1     -11.487  10.614  68.723  1.00  0.00    -0.330 C  
ENDROOT
BRANCH   4  20
HETATM   20  C   UNL     1     -10.254   6.541  70.474  1.00  0.00    -0.190 C  
HETATM   21  O   UNL     1      -9.841   5.644  71.224  1.00  0.00    -0.166 OA 
HETATM   22  C   UNL     1     -11.748   6.762  70.474  1.00  0.00    -0.430 C  
ENDBRANCH   4  20
BRANCH   4  23
HETATM   23  O   UNL     1      -9.103   6.048  68.647  1.00  0.00    -0.117 OA 
BRANCH  23  24
HETATM   24  C   UNL     1      -8.290   5.048  69.065  1.00  0.00    -0.086 C  
HETATM   25  O   UNL     1      -8.597   3.872  69.134  1.00  0.00    -0.075 OA 
BRANCH  24  26
HETATM   26  C   UNL     1      -6.892   5.612  69.244  1.00  0.00    -0.062 C  
BRANCH  26  27
HETATM   27  C   UNL     1      -6.099   4.890  70.311  1.00  0.00    -0.021 C  
BRANCH  27  28
HETATM   28  C   UNL     1      -6.686   3.515  70.607  1.00  0.00    -0.033 C  
BRANCH  28  29
HETATM   29  C   UNL     1      -6.448   3.125  72.059  1.00  0.00    -0.015 C  
HETATM   30  C   UNL     1      -5.445   1.989  72.149  1.00  0.00    -0.004 C  
ENDBRANCH  28  29
ENDBRANCH  27  28
ENDBRANCH  26  27
ENDBRANCH  24  26
ENDBRANCH  23  24
ENDBRANCH   4  23
TORSDOF 7
ENDMDL
MODEL      140
REMARK 921   NORMALIZED FREE ENERGY PREDICTED BY IDOCK:   11.92 KCAL/MOL
REMARK 922        TOTAL FREE ENERGY PREDICTED BY IDOCK:   16.71 KCAL/MOL
REMARK 923 INTER-LIGAND FREE ENERGY PREDICTED BY IDOCK:    6.38 KCAL/MOL
REMARK 924 INTRA-LIGAND FREE ENERGY PREDICTED BY IDOCK:   10.33 KCAL/MOL
REMARK 927      BINDING AFFINITY PREDICTED BY RF-SCORE:    0.00 PKD
ROOT
HETATM    1  C   UNL     1     -10.577  13.424  67.062  1.00  0.00    -0.264 C  
HETATM    2  C   UNL     1     -11.223  13.302  68.320  1.00  0.00    -0.309 C  
HETATM    3  C   UNL     1     -11.192  14.656  67.714  1.00  0.00    -0.320 C  
HETATM    4  C   UNL     1     -10.584  14.690  65.738  1.00  0.00    -0.320 C  
HETATM    5  C   UNL     1      -6.121  16.170  69.657  1.00  0.00    -0.181 C  
HETATM    6  O   UNL     1      -5.762  18.164  70.824  1.00  0.00    -0.164 OA 
HETATM    7  C   UNL     1     -11.840  14.694  66.277  1.00  0.00    -0.299 C  
HETATM    8  C   UNL     1      -6.193  17.640  69.795  1.00  0.00    -0.178 C  
HETATM    9  C   UNL     1      -6.652  15.525  68.605  1.00  0.00    -0.103 C  
HETATM   10  C   UNL     1     -11.591  16.490  66.650  1.00  0.00     0.972 C  
HETATM   11  C   UNL     1     -13.173  14.161  65.774  1.00  0.00     0.197 C  
HETATM   12  C   UNL     1      -6.836  18.462  68.708  1.00  0.00    -0.283 C  
HETATM   13  C   UNL     1      -6.651  14.013  68.521  1.00  0.00    -0.097 C  
HETATM   14  C   UNL     1      -9.958  16.857  66.949  1.00  0.00    -0.279 C  
HETATM   15  C   UNL     1      -7.060  17.733  67.394  1.00  0.00    -0.201 C  
HETATM   16  C   UNL     1      -8.922  14.175  67.289  1.00  0.00    -0.221 C  
HETATM   17  C   UNL     1      -8.868  15.818  67.617  1.00  0.00    -0.180 C  
HETATM   18  C   UNL     1      -8.047  13.396  68.296  1.00  0.00    -0.152 C  
HETATM   19  C   UNL     1      -7.375  16.233  67.472  1.00  0.00    -0.177 C  
ENDROOT
BRANCH   4  20
HETATM   20  C   UNL     1     -10.774  15.625  64.430  1.00  0.00     0.297 C  
HETATM   21  O   UNL     1     -11.406  16.692  64.415  1.00  0.00    -1.023 OA 
HETATM   22  C   UNL     1     -10.258  15.147  63.095  1.00  0.00     8.452 C  
ENDBRANCH   4  20
BRANCH   4  23
HETATM   23  O   UNL     1     -10.800  13.445  64.821  1.00  0.00    -0.332 OA 
BRANCH  23  24
HETATM   24  C   UNL     1     -11.429  12.315  65.223  1.00  0.00    -0.351 C  
HETATM   25  O   UNL     1     -12.350  11.774  64.640  1.00  0.00    -0.179 OA 
BRANCH  24  26
HETATM   26  C   UNL     1     -10.669  11.741  66.406  1.00  0.00    -0.306 C  
BRANCH  26  27
HETATM   27  C   UNL     1     -10.347  10.272  66.241  1.00  0.00    -0.256 C  
BRANCH  27  28
HETATM   28  C   UNL     1     -10.422   9.532  67.571  1.00  0.00    -0.336 C  
BRANCH  28  29
HETATM   29  C   UNL     1     -11.259  10.309  68.577  1.00  0.00    -0.271 C  
HETATM   30  C   UNL     1     -12.631   9.678  68.730  1.00  0.00     3.249 C  
ENDBRANCH  28  29
ENDBRANCH  27  28
ENDBRANCH  26  27
ENDBRANCH  24  26
ENDBRANCH  23  24
ENDBRANCH   4  23
TORSDOF 7
ENDMDL
MODEL      141
REMARK 921   NORMALIZED FREE ENERGY PREDICTED BY IDOCK:   12.77 KCAL/MOL
REMARK 922        TOTAL FREE ENERGY PREDICTED BY IDOCK:   17.91 KCAL/MOL
REMARK 923 INTER-LIGAND FREE ENERGY PREDICTED BY IDOCK:    5.16 KCAL/MOL
REMARK 924 INTRA-LIGAND FREE ENERGY PREDICTED BY IDOCK:   12.75 KCAL/MOL
REMARK 927      BINDING AFFINITY PREDICTED BY RF-SCORE:    0.00 PKD
ROOT
HETATM    1  C   UNL     1     -11.230   7.163  71.005  1.00  0.00    -0.298 C  
HETATM    2  C   UNL     1     -10.839   6.103  71.865  1.00  0.00    -0.295 C  
HETATM    3  C   UNL     1      -9.804   7.115  71.538  1.00  0.00    -0.176 C  
HETATM    4  C   UNL     1     -10.534   8.810  70.605  1.00  0.00    -0.210 C  
HETATM    5  C   UNL     1      -8.062   4.789  66.707  1.00  0.00    -0.107 C  
HETATM    6  O   UNL     1      -5.812   4.327  66.270  1.00  0.00    -0.021 OA 
HETATM    7  C   UNL     1     -10.243   8.580  71.921  1.00  0.00    -0.369 C  
HETATM    8  C   UNL     1      -6.641   5.181  66.590  1.00  0.00    -0.049 C  
HETATM    9  C   UNL     1      -9.005   5.644  67.138  1.00  0.00    -0.112 C  
HETATM   10  C   UNL     1      -8.458   8.800  71.484  1.00  0.00    -0.230 C  
HETATM   11  C   UNL     1     -10.824   9.139  73.211  1.00  0.00     3.069 C  
HETATM   12  C   UNL     1      -6.226   6.592  66.916  1.00  0.00    -0.040 C  
HETATM   13  C   UNL     1     -10.440   5.204  67.340  1.00  0.00    -0.172 C  
HETATM   14  C   UNL     1      -8.127   8.310  69.890  1.00  0.00    -0.117 C  
HETATM   15  C   UNL     1      -7.364   7.593  67.015  1.00  0.00    -0.090 C  
HETATM   16  C   UNL     1     -10.571   6.864  69.321  1.00  0.00    -0.250 C  
HETATM   17  C   UNL     1      -8.929   7.114  69.090  1.00  0.00    -0.138 C  
HETATM   18  C   UNL     1     -10.992   5.492  68.751  1.00  0.00     0.028 C  
HETATM   19  C   UNL     1      -8.705   7.075  67.550  1.00  0.00    -0.120 C  
ENDROOT
BRANCH   4  20
HETATM   20  C   UNL     1     -10.127  10.367  70.435  1.00  0.00     0.337 C  
HETATM   21  O   UNL     1      -9.552  10.839  69.443  1.00  0.00    -0.151 OA 
HETATM   22  C   UNL     1     -10.344  11.320  71.585  1.00  0.00     7.155 C  
ENDBRANCH   4  20
BRANCH   4  23
HETATM   23  O   UNL     1     -12.008   9.269  70.839  1.00  0.00    -0.283 OA 
BRANCH  23  24
HETATM   24  C   UNL     1     -12.375  10.562  71.008  1.00  0.00    -0.399 C  
HETATM   25  O   UNL     1     -12.704  11.069  72.065  1.00  0.00    -0.305 OA 
BRANCH  24  26
HETATM   26  C   UNL     1     -12.122  11.304  69.708  1.00  0.00    -0.394 C  
BRANCH  26  27
HETATM   27  C   UNL     1     -11.742  12.753  69.923  1.00  0.00    -0.321 C  
BRANCH  27  28
HETATM   28  C   UNL     1     -10.808  13.252  68.827  1.00  0.00    -0.273 C  
BRANCH  28  29
HETATM   29  C   UNL     1     -10.703  12.236  67.699  1.00  0.00    -0.250 C  
HETATM   30  C   UNL     1      -9.847  12.779  66.569  1.00  0.00    -0.258 C  
ENDBRANCH  28  29
ENDBRANCH  27  28
ENDBRANCH  26  27
ENDBRANCH  24  26
ENDBRANCH  23  24
ENDBRANCH   4  23
TORSDOF 7
ENDMDL
MODEL      142
REMARK 921   NORMALIZED FREE ENERGY PREDICTED BY IDOCK:   15.44 KCAL/MOL
REMARK 922        TOTAL FREE ENERGY PREDICTED BY IDOCK:   21.68 KCAL/MOL
REMARK 923 INTER-LIGAND FREE ENERGY PREDICTED BY IDOCK:   16.85 KCAL/MOL
REMARK 924 INTRA-LIGAND FREE ENERGY PREDICTED BY IDOCK:    4.83 KCAL/MOL
REMARK 927      BINDING AFFINITY PREDICTED BY RF-SCORE:    0.00 PKD
ROOT
HETATM    1  C   UNL     1      -9.970  15.349  65.444  1.00  0.00    -0.356 C  
HETATM    2  C   UNL     1      -9.649  14.950  64.120  1.00  0.00     3.968 C  
HETATM    3  C   UNL     1     -10.886  14.380  64.708  1.00  0.00    -0.415 C  
HETATM    4  C   UNL     1     -11.489  15.284  66.467  1.00  0.00    -0.095 C  
HETATM    5  C   UNL     1      -8.458  10.042  67.367  1.00  0.00    -0.121 C  
HETATM    6  O   UNL     1      -9.185   7.836  67.104  1.00  0.00    -0.138 OA 
HETATM    7  C   UNL     1     -11.903  15.489  65.180  1.00  0.00     0.144 C  
HETATM    8  C   UNL     1      -9.496   8.991  67.401  1.00  0.00    -0.144 C  
HETATM    9  C   UNL     1      -8.744  11.336  67.590  1.00  0.00    -0.131 C  
HETATM   10  C   UNL     1     -12.902  13.940  65.337  1.00  0.00    -0.466 C  
HETATM   11  C   UNL     1     -12.440  16.717  64.461  1.00  0.00     2.620 C  
HETATM   12  C   UNL     1     -10.918   9.356  67.740  1.00  0.00    -0.122 C  
HETATM   13  C   UNL     1      -7.688  12.415  67.462  1.00  0.00    -0.161 C  
HETATM   14  C   UNL     1     -12.182  12.820  66.394  1.00  0.00    -0.242 C  
HETATM   15  C   UNL     1     -11.102  10.734  68.354  1.00  0.00    -0.323 C  
HETATM   16  C   UNL     1      -9.547  14.002  66.613  1.00  0.00    -0.299 C  
HETATM   17  C   UNL     1     -10.559  12.666  66.635  1.00  0.00    -0.267 C  
HETATM   18  C   UNL     1      -8.072  13.558  66.502  1.00  0.00     0.692 C  
HETATM   19  C   UNL     1     -10.146  11.839  67.888  1.00  0.00    -0.195 C  
ENDROOT
BRANCH   4  20
HETATM   20  C   UNL     1     -12.856  15.512  67.303  1.00  0.00     2.551 C  
HETATM   21  O   UNL     1     -12.974  16.296  68.256  1.00  0.00     1.842 OA 
HETATM   22  C   UNL     1     -14.060  14.652  67.005  1.00  0.00     8.874 C  
ENDBRANCH   4  20
BRANCH   4  23
HETATM   23  O   UNL     1     -11.116  16.772  66.761  1.00  0.00     0.016 OA 
BRANCH  23  24
HETATM   24  C   UNL     1     -10.055  17.146  67.516  1.00  0.00    -0.301 C  
HETATM   25  O   UNL     1      -9.800  16.730  68.631  1.00  0.00    -0.239 OA 
BRANCH  24  26
HETATM   26  C   UNL     1      -9.147  18.016  66.664  1.00  0.00    -0.290 C  
BRANCH  26  27
HETATM   27  C   UNL     1      -8.323  17.217  65.680  1.00  0.00     0.550 C  
BRANCH  27  28
HETATM   28  C   UNL     1      -6.934  16.915  66.231  1.00  0.00    -0.131 C  
BRANCH  28  29
HETATM   29  C   UNL     1      -5.861  17.622  65.415  1.00  0.00     0.209 C  
HETATM   30  C   UNL     1      -5.585  19.004  65.979  1.00  0.00    -0.180 C  
ENDBRANCH  28  29
ENDBRANCH  27  28
ENDBRANCH  26  27
ENDBRANCH  24  26
ENDBRANCH  23  24
ENDBRANCH   4  23
TORSDOF 7
ENDMDL
MODEL      143
REMARK 921   NORMALIZED FREE ENERGY PREDICTED BY IDOCK:   24.22 KCAL/MOL
REMARK 922        TOTAL FREE ENERGY PREDICTED BY IDOCK:   34.05 KCAL/MOL
REMARK 923 INTER-LIGAND FREE ENERGY PREDICTED BY IDOCK:    1.11 KCAL/MOL
REMARK 924 INTRA-LIGAND FREE ENERGY PREDICTED BY IDOCK:   32.94 KCAL/MOL
REMARK 927      BINDING AFFINITY PREDICTED BY RF-SCORE:    0.00 PKD
ROOT
HETATM    1  C   UNL     1      -7.689   9.737  67.959  1.00  0.00    -0.083 C  
HETATM    2  C   UNL     1      -7.232  10.953  68.532  1.00  0.00    -0.090 C  
HETATM    3  C   UNL     1      -8.699  10.726  68.528  1.00  0.00    -0.149 C  
HETATM    4  C   UNL     1      -9.261   8.799  68.034  1.00  0.00    -0.139 C  
HETATM    5  C   UNL     1      -9.696  12.711  63.347  1.00  0.00     0.806 C  
HETATM    6  O   UNL     1     -11.314  14.341  62.911  1.00  0.00     1.732 OA 
HETATM    7  C   UNL     1      -9.110   9.390  69.258  1.00  0.00    -0.152 C  
HETATM    8  C   UNL     1     -11.076  13.237  63.403  1.00  0.00     0.325 C  
HETATM    9  C   UNL     1      -9.346  11.557  63.940  1.00  0.00    -0.048 C  
HETATM   10  C   UNL     1     -10.745  10.210  68.977  1.00  0.00    -0.249 C  
HETATM   11  C   UNL     1      -8.715   8.839  70.619  1.00  0.00    -0.208 C  
HETATM   12  C   UNL     1     -12.149  12.444  64.103  1.00  0.00    -0.539 C  
HETATM   13  C   UNL     1      -7.910  11.077  63.953  1.00  0.00     0.556 C  
HETATM   14  C   UNL     1     -11.037  10.502  67.328  1.00  0.00    -0.284 C  
HETATM   15  C   UNL     1     -11.792  10.999  64.406  1.00  0.00     0.976 C  
HETATM   16  C   UNL     1      -8.370  10.061  66.289  1.00  0.00    -0.127 C  
HETATM   17  C   UNL     1      -9.869  10.809  66.208  1.00  0.00    -0.262 C  
HETATM   18  C   UNL     1      -7.362  10.776  65.362  1.00  0.00     0.063 C  
HETATM   19  C   UNL     1     -10.322  10.695  64.723  1.00  0.00    -0.353 C  
ENDROOT
BRANCH   4  20
HETATM   20  C   UNL     1     -10.506   7.798  68.294  1.00  0.00    -0.168 C  
HETATM   21  O   UNL     1     -10.592   6.649  67.835  1.00  0.00    -0.194 OA 
HETATM   22  C   UNL     1     -11.715   8.297  69.047  1.00  0.00     1.352 C  
ENDBRANCH   4  20
BRANCH   4  23
HETATM   23  O   UNL     1      -8.300   7.598  68.309  1.00  0.00    -0.123 OA 
BRANCH  23  24
HETATM   24  C   UNL     1      -8.652   6.501  69.021  1.00  0.00    -0.125 C  
HETATM   25  O   UNL     1      -8.377   5.352  68.728  1.00  0.00    -0.096 OA 
BRANCH  24  26
HETATM   26  C   UNL     1      -9.271   6.959  70.329  1.00  0.00    -0.156 C  
BRANCH  26  27
HETATM   27  C   UNL     1      -9.932   8.316  70.224  1.00  0.00    -0.188 C  
BRANCH  27  28
HETATM   28  C   UNL     1     -10.875   8.569  71.393  1.00  0.00    -0.327 C  
BRANCH  28  29
HETATM   29  C   UNL     1     -10.846   7.406  72.375  1.00  0.00    -0.305 C  
HETATM   30  C   UNL     1     -12.026   6.480  72.141  1.00  0.00    -0.334 C  
ENDBRANCH  28  29
ENDBRANCH  27  28
ENDBRANCH  26  27
ENDBRANCH  24  26
ENDBRANCH  23  24
ENDBRANCH   4  23
TORSDOF 7
ENDMDL
MODEL      144
REMARK 921   NORMALIZED FREE ENERGY PREDICTED BY IDOCK:   26.35 KCAL/MOL
REMARK 922        TOTAL FREE ENERGY PREDICTED BY IDOCK:   37.05 KCAL/MOL
REMARK 923 INTER-LIGAND FREE ENERGY PREDICTED BY IDOCK:   10.51 KCAL/MOL
REMARK 924 INTRA-LIGAND FREE ENERGY PREDICTED BY IDOCK:   26.54 KCAL/MOL
REMARK 927      BINDING AFFINITY PREDICTED BY RF-SCORE:    0.00 PKD
ROOT
HETATM    1  C   UNL     1      -7.882   9.255  65.455  1.00  0.00    -0.100 C  
HETATM    2  C   UNL     1      -6.679   9.446  64.726  1.00  0.00    -0.087 C  
HETATM    3  C   UNL     1      -6.544   9.161  66.177  1.00  0.00    -0.069 C  
HETATM    4  C   UNL     1      -8.289   8.525  67.086  1.00  0.00    -0.111 C  
HETATM    5  C   UNL     1      -7.134  14.469  67.983  1.00  0.00    -0.147 C  
HETATM    6  O   UNL     1      -5.600  15.489  69.422  1.00  0.00    -0.105 OA 
HETATM    7  C   UNL     1      -7.233   7.807  66.598  1.00  0.00    -0.087 C  
HETATM    8  C   UNL     1      -6.352  14.531  69.236  1.00  0.00    -0.117 C  
HETATM    9  C   UNL     1      -7.904  13.412  67.673  1.00  0.00    -0.174 C  
HETATM   10  C   UNL     1      -6.306   8.276  68.130  1.00  0.00    -0.055 C  
HETATM   11  C   UNL     1      -7.132   6.412  65.999  1.00  0.00    -0.067 C  
HETATM   12  C   UNL     1      -6.445  13.403  70.231  1.00  0.00     0.151 C  
HETATM   13  C   UNL     1      -8.628  13.322  66.346  1.00  0.00     0.313 C  
HETATM   14  C   UNL     1      -6.787   9.794  68.725  1.00  0.00    -0.051 C  
HETATM   15  C   UNL     1      -7.604  12.445  70.015  1.00  0.00     1.860 C  
HETATM   16  C   UNL     1      -8.259  10.761  66.427  1.00  0.00    -0.155 C  
HETATM   17  C   UNL     1      -7.329  11.039  67.794  1.00  0.00    -0.093 C  
HETATM   18  C   UNL     1      -8.327  12.033  65.554  1.00  0.00     0.881 C  
HETATM   19  C   UNL     1      -8.039  12.190  68.566  1.00  0.00    -0.112 C  
ENDROOT
BRANCH   4  20
HETATM   20  C   UNL     1      -8.732   7.645  68.370  1.00  0.00    -0.127 C  
HETATM   21  O   UNL     1      -9.122   6.469  68.315  1.00  0.00    -0.121 OA 
HETATM   22  C   UNL     1      -8.795   8.297  69.730  1.00  0.00    -0.142 C  
ENDBRANCH   4  20
BRANCH   4  23
HETATM   23  O   UNL     1      -9.389   7.786  66.259  1.00  0.00    -0.185 OA 
BRANCH  23  24
HETATM   24  C   UNL     1      -9.842   6.544  66.551  1.00  0.00    -0.111 C  
HETATM   25  O   UNL     1     -10.625   5.902  65.875  1.00  0.00     0.176 OA 
BRANCH  24  26
HETATM   26  C   UNL     1      -9.066   6.022  67.747  1.00  0.00    -0.109 C  
BRANCH  26  27
HETATM   27  C   UNL     1      -9.869   6.059  69.029  1.00  0.00    -0.182 C  
BRANCH  27  28
HETATM   28  C   UNL     1     -10.850   4.896  69.106  1.00  0.00     0.786 C  
BRANCH  28  29
HETATM   29  C   UNL     1     -12.250   5.389  69.444  1.00  0.00     5.614 C  
HETATM   30  C   UNL     1     -12.468   6.789  68.902  1.00  0.00     3.233 C  
ENDBRANCH  28  29
ENDBRANCH  27  28
ENDBRANCH  26  27
ENDBRANCH  24  26
ENDBRANCH  23  24
ENDBRANCH   4  23
TORSDOF 7
ENDMDL
MODEL      145
REMARK 921   NORMALIZED FREE ENERGY PREDICTED BY IDOCK:   30.57 KCAL/MOL
REMARK 922        TOTAL FREE ENERGY PREDICTED BY IDOCK:   42.99 KCAL/MOL
REMARK 923 INTER-LIGAND FREE ENERGY PREDICTED BY IDOCK:   23.24 KCAL/MOL
REMARK 924 INTRA-LIGAND FREE ENERGY PREDICTED BY IDOCK:   19.75 KCAL/MOL
REMARK 927      BINDING AFFINITY PREDICTED BY RF-SCORE:    0.00 PKD
ROOT
HETATM    1  C   UNL     1      -7.657  15.409  71.348  1.00  0.00     3.269 C  
HETATM    2  C   UNL     1      -6.910  14.437  72.064  1.00  0.00     2.158 C  
HETATM    3  C   UNL     1      -6.757  14.442  70.588  1.00  0.00     0.232 C  
HETATM    4  C   UNL     1      -7.563  16.102  69.655  1.00  0.00     0.090 C  
HETATM    5  C   UNL     1     -11.214  11.194  69.417  1.00  0.00    -0.334 C  
HETATM    6  O   UNL     1     -11.066   9.291  68.067  1.00  0.00    -0.082 OA 
HETATM    7  C   UNL     1      -6.276  15.837  70.032  1.00  0.00    -0.125 C  
HETATM    8  C   UNL     1     -10.857  10.501  68.161  1.00  0.00    -0.253 C  
HETATM    9  C   UNL     1     -10.931  12.492  69.623  1.00  0.00     0.136 C  
HETATM   10  C   UNL     1      -6.147  14.747  68.541  1.00  0.00    -0.094 C  
HETATM   11  C   UNL     1      -5.129  16.738  70.464  1.00  0.00    -0.224 C  
HETATM   12  C   UNL     1     -10.197  11.270  67.046  1.00  0.00    -0.250 C  
HETATM   13  C   UNL     1     -11.220  13.165  70.948  1.00  0.00     1.780 C  
HETATM   14  C   UNL     1      -7.640  14.043  68.135  1.00  0.00    -0.141 C  
HETATM   15  C   UNL     1     -10.258  12.783  67.179  1.00  0.00    -0.235 C  
HETATM   16  C   UNL     1      -9.110  14.613  70.564  1.00  0.00     1.832 C  
HETATM   17  C   UNL     1      -8.822  13.659  69.217  1.00  0.00     0.664 C  
HETATM   18  C   UNL     1      -9.996  13.858  71.579  1.00  0.00     6.352 C  
HETATM   19  C   UNL     1     -10.220  13.361  68.599  1.00  0.00    -0.187 C  
ENDROOT
BRANCH   4  20
HETATM   20  C   UNL     1      -7.350  16.945  68.290  1.00  0.00    -0.193 C  
HETATM   21  O   UNL     1      -7.749  18.105  68.110  1.00  0.00    -0.256 OA 
HETATM   22  C   UNL     1      -6.726  16.271  67.092  1.00  0.00    -0.237 C  
ENDBRANCH   4  20
BRANCH   4  23
HETATM   23  O   UNL     1      -7.684  17.459  70.419  1.00  0.00     2.181 OA 
BRANCH  23  24
HETATM   24  C   UNL     1      -8.327  18.545  69.926  1.00  0.00     1.386 C  
HETATM   25  O   UNL     1      -8.640  19.531  70.567  1.00  0.00     1.326 OA 
BRANCH  24  26
HETATM   26  C   UNL     1      -8.415  18.403  68.417  1.00  0.00    -0.345 C  
BRANCH  26  27
HETATM   27  C   UNL     1      -9.522  19.239  67.812  1.00  0.00    -0.387 C  
BRANCH  27  28
HETATM   28  C   UNL     1     -10.534  19.670  68.866  1.00  0.00    -0.110 C  
BRANCH  28  29
HETATM   29  C   UNL     1     -10.205  21.058  69.398  1.00  0.00     0.954 C  
HETATM   30  C   UNL     1     -10.745  21.233  70.806  1.00  0.00     4.337 C  
ENDBRANCH  28  29
ENDBRANCH  27  28
ENDBRANCH  26  27
ENDBRANCH  24  26
ENDBRANCH  23  24
ENDBRANCH   4  23
TORSDOF 7
ENDMDL
MODEL      146
REMARK 921   NORMALIZED FREE ENERGY PREDICTED BY IDOCK:   36.09 KCAL/MOL
REMARK 922        TOTAL FREE ENERGY PREDICTED BY IDOCK:   50.77 KCAL/MOL
REMARK 923 INTER-LIGAND FREE ENERGY PREDICTED BY IDOCK:   45.60 KCAL/MOL
REMARK 924 INTRA-LIGAND FREE ENERGY PREDICTED BY IDOCK:    5.17 KCAL/MOL
REMARK 927      BINDING AFFINITY PREDICTED BY RF-SCORE:    0.00 PKD
ROOT
HETATM    1  C   UNL     1     -10.825   9.036  64.684  1.00  0.00     5.856 C  
HETATM    2  C   UNL     1     -11.971   8.522  64.023  1.00  0.00    19.592 C  
HETATM    3  C   UNL     1     -11.504   7.783  65.222  1.00  0.00     9.346 C  
HETATM    4  C   UNL     1     -10.084   8.785  66.341  1.00  0.00    -0.243 C  
HETATM    5  C   UNL     1      -7.677   4.572  62.609  1.00  0.00    -0.061 C  
HETATM    6  O   UNL     1      -7.626   2.244  62.825  1.00  0.00    -0.050 OA 
HETATM    7  C   UNL     1     -11.437   8.691  66.509  1.00  0.00     3.005 C  
HETATM    8  C   UNL     1      -7.617   3.330  63.409  1.00  0.00    -0.063 C  
HETATM    9  C   UNL     1      -7.762   5.785  63.180  1.00  0.00    -0.091 C  
HETATM   10  C   UNL     1     -11.155   6.998  67.201  1.00  0.00    -0.298 C  
HETATM   11  C   UNL     1     -12.463   9.639  67.111  1.00  0.00     7.720 C  
HETATM   12  C   UNL     1      -7.602   3.410  64.913  1.00  0.00    -0.077 C  
HETATM   13  C   UNL     1      -7.915   7.042  62.350  1.00  0.00    -0.127 C  
HETATM   14  C   UNL     1      -9.793   6.248  66.514  1.00  0.00    -0.176 C  
HETATM   15  C   UNL     1      -7.310   4.787  65.484  1.00  0.00    -0.073 C  
HETATM   16  C   UNL     1      -9.362   8.016  64.262  1.00  0.00     1.715 C  
HETATM   17  C   UNL     1      -9.254   6.504  64.979  1.00  0.00     0.664 C  
HETATM   18  C   UNL     1      -9.131   7.907  62.739  1.00  0.00     1.104 C  
HETATM   19  C   UNL     1      -7.812   5.996  64.684  1.00  0.00    -0.112 C  
ENDROOT
BRANCH   4  20
HETATM   20  C   UNL     1      -9.554   8.823  67.870  1.00  0.00    -0.145 C  
HETATM   21  O   UNL     1     -10.244   8.537  68.860  1.00  0.00    -0.199 OA 
HETATM   22  C   UNL     1      -8.167   9.342  68.163  1.00  0.00    -0.119 C  
ENDBRANCH   4  20
BRANCH   4  23
HETATM   23  O   UNL     1     -10.025  10.346  66.332  1.00  0.00    -0.204 OA 
BRANCH  23  24
HETATM   24  C   UNL     1      -9.817  11.085  65.216  1.00  0.00    -0.259 C  
HETATM   25  O   UNL     1     -10.034  10.717  64.076  1.00  0.00    -0.310 OA 
BRANCH  24  26
HETATM   26  C   UNL     1      -9.457  12.498  65.639  1.00  0.00    -0.014 C  
BRANCH  26  27
HETATM   27  C   UNL     1     -10.443  13.085  66.625  1.00  0.00    -0.271 C  
BRANCH  27  28
HETATM   28  C   UNL     1      -9.750  13.537  67.905  1.00  0.00    -0.225 C  
BRANCH  28  29
HETATM   29  C   UNL     1     -10.507  13.051  69.133  1.00  0.00     0.077 C  
HETATM   30  C   UNL     1     -11.724  13.921  69.388  1.00  0.00    -0.367 C  
ENDBRANCH  28  29
ENDBRANCH  27  28
ENDBRANCH  26  27
ENDBRANCH  24  26
ENDBRANCH  23  24
ENDBRANCH   4  23
TORSDOF 7
ENDMDL
MODEL      147
REMARK 921   NORMALIZED FREE ENERGY PREDICTED BY IDOCK:   41.60 KCAL/MOL
REMARK 922        TOTAL FREE ENERGY PREDICTED BY IDOCK:   58.54 KCAL/MOL
REMARK 923 INTER-LIGAND FREE ENERGY PREDICTED BY IDOCK:   47.68 KCAL/MOL
REMARK 924 INTRA-LIGAND FREE ENERGY PREDICTED BY IDOCK:   10.86 KCAL/MOL
REMARK 927      BINDING AFFINITY PREDICTED BY RF-SCORE:    0.00 PKD
ROOT
HETATM    1  C   UNL     1      -8.866  13.105  67.066  1.00  0.00    -0.212 C  
HETATM    2  C   UNL     1      -7.835  14.065  67.244  1.00  0.00    -0.143 C  
HETATM    3  C   UNL     1      -8.581  13.651  68.459  1.00  0.00    -0.103 C  
HETATM    4  C   UNL     1      -9.791  11.996  68.193  1.00  0.00    -0.201 C  
HETATM    5  C   UNL     1     -12.855  17.288  67.924  1.00  0.00     5.031 C  
HETATM    6  O   UNL     1     -13.519  18.716  69.653  1.00  0.00    19.144 OA 
HETATM    7  C   UNL     1      -8.527  12.095  68.705  1.00  0.00     0.093 C  
HETATM    8  C   UNL     1     -13.301  17.553  69.308  1.00  0.00    10.810 C  
HETATM    9  C   UNL     1     -12.513  16.058  67.507  1.00  0.00     1.840 C  
HETATM   10  C   UNL     1      -9.293  12.719  70.270  1.00  0.00     4.732 C  
HETATM   11  C   UNL     1      -7.350  11.131  68.721  1.00  0.00    -0.114 C  
HETATM   12  C   UNL     1     -13.428  16.411  70.283  1.00  0.00     3.576 C  
HETATM   13  C   UNL     1     -11.970  15.816  66.114  1.00  0.00     0.937 C  
HETATM   14  C   UNL     1     -10.735  13.570  69.977  1.00  0.00     0.752 C  
HETATM   15  C   UNL     1     -13.408  15.025  69.661  1.00  0.00     1.029 C  
HETATM   16  C   UNL     1     -10.498  13.938  67.115  1.00  0.00    -0.269 C  
HETATM   17  C   UNL     1     -11.052  14.440  68.615  1.00  0.00    -0.269 C  
HETATM   18  C   UNL     1     -10.613  15.085  66.087  1.00  0.00    -0.314 C  
HETATM   19  C   UNL     1     -12.544  14.835  68.408  1.00  0.00     0.490 C  
ENDROOT
BRANCH   4  20
HETATM   20  C   UNL     1     -10.426  10.806  69.088  1.00  0.00    -0.218 C  
HETATM   21  O   UNL     1     -10.642   9.656  68.677  1.00  0.00    -0.210 OA 
HETATM   22  C   UNL     1     -10.904  11.105  70.488  1.00  0.00     0.756 C  
ENDBRANCH   4  20
BRANCH   4  23
HETATM   23  O   UNL     1      -9.447  10.930  67.105  1.00  0.00    -0.159 OA 
BRANCH  23  24
HETATM   24  C   UNL     1      -8.201  10.442  66.897  1.00  0.00    -0.124 C  
HETATM   25  O   UNL     1      -7.199  11.113  66.731  1.00  0.00    -0.131 OA 
BRANCH  24  26
HETATM   26  C   UNL     1      -8.238   8.937  67.098  1.00  0.00    -0.103 C  
BRANCH  26  27
HETATM   27  C   UNL     1      -6.957   8.255  66.670  1.00  0.00    -0.069 C  
BRANCH  27  28
HETATM   28  C   UNL     1      -7.019   7.821  65.210  1.00  0.00    -0.059 C  
BRANCH  28  29
HETATM   29  C   UNL     1      -8.402   8.074  64.627  1.00  0.00    -0.065 C  
HETATM   30  C   UNL     1      -9.101   6.763  64.321  1.00  0.00     1.253 C  
ENDBRANCH  28  29
ENDBRANCH  27  28
ENDBRANCH  26  27
ENDBRANCH  24  26
ENDBRANCH  23  24
ENDBRANCH   4  23
TORSDOF 7
ENDMDL
MODEL      148
REMARK 921   NORMALIZED FREE ENERGY PREDICTED BY IDOCK:   74.66 KCAL/MOL
REMARK 922        TOTAL FREE ENERGY PREDICTED BY IDOCK:  105.13 KCAL/MOL
REMARK 923 INTER-LIGAND FREE ENERGY PREDICTED BY IDOCK:   95.44 KCAL/MOL
REMARK 924 INTRA-LIGAND FREE ENERGY PREDICTED BY IDOCK:    9.69 KCAL/MOL
REMARK 927      BINDING AFFINITY PREDICTED BY RF-SCORE:    0.00 PKD
ROOT
HETATM    1  C   UNL     1      -9.194  10.626  70.457  1.00  0.00     1.750 C  
HETATM    2  C   UNL     1      -9.090  10.622  69.041  1.00  0.00    -0.174 C  
HETATM    3  C   UNL     1     -10.398  10.222  69.616  1.00  0.00    -0.281 C  
HETATM    4  C   UNL     1     -10.596  10.613  71.636  1.00  0.00     3.382 C  
HETATM    5  C   UNL     1      -9.164   4.783  70.438  1.00  0.00    -0.195 C  
HETATM    6  O   UNL     1     -10.516   3.050  69.641  1.00  0.00     1.429 OA 
HETATM    7  C   UNL     1     -11.016  11.331  70.552  1.00  0.00     0.710 C  
HETATM    8  C   UNL     1     -10.458   4.079  70.316  1.00  0.00     0.949 C  
HETATM    9  C   UNL     1      -9.047   5.957  71.081  1.00  0.00    -0.152 C  
HETATM   10  C   UNL     1     -12.410  10.124  70.389  1.00  0.00    -0.268 C  
HETATM   11  C   UNL     1     -11.220  12.821  70.326  1.00  0.00     0.575 C  
HETATM   12  C   UNL     1     -11.688   4.659  70.966  1.00  0.00     3.310 C  
HETATM   13  C   UNL     1      -7.735   6.712  71.120  1.00  0.00    -0.097 C  
HETATM   14  C   UNL     1     -11.977   8.574  70.936  1.00  0.00    -0.204 C  
HETATM   15  C   UNL     1     -11.424   5.754  71.986  1.00  0.00    -0.260 C  
HETATM   16  C   UNL     1      -9.105   8.907  71.086  1.00  0.00    -0.315 C  
HETATM   17  C   UNL     1     -10.458   7.943  70.864  1.00  0.00    -0.217 C  
HETATM   18  C   UNL     1      -7.832   8.167  70.619  1.00  0.00    -0.091 C  
HETATM   19  C   UNL     1     -10.221   6.671  71.730  1.00  0.00    -0.206 C  
ENDROOT
BRANCH   4  20
HETATM   20  C   UNL     1     -11.780  10.890  72.704  1.00  0.00     4.705 C  
HETATM   21  O   UNL     1     -11.967  11.970  73.283  1.00  0.00     5.519 OA 
HETATM   22  C   UNL     1     -12.672   9.750  73.136  1.00  0.00     2.190 C  
ENDBRANCH   4  20
BRANCH   4  23
HETATM   23  O   UNL     1      -9.789  11.772  72.302  1.00  0.00    13.393 OA 
BRANCH  23  24
HETATM   24  C   UNL     1      -9.028  12.653  71.609  1.00  0.00    18.710 C  
HETATM   25  O   UNL     1      -8.329  12.381  70.651  1.00  0.00     4.805 OA 
BRANCH  24  26
HETATM   26  C   UNL     1      -9.346  14.052  72.107  1.00  0.00     9.432 C  
BRANCH  26  27
HETATM   27  C   UNL     1      -9.352  15.082  70.999  1.00  0.00     2.281 C  
BRANCH  27  28
HETATM   28  C   UNL     1      -9.085  16.483  71.539  1.00  0.00     7.210 C  
BRANCH  28  29
HETATM   29  C   UNL     1      -7.595  16.793  71.527  1.00  0.00     7.493 C  
HETATM   30  C   UNL     1      -7.111  17.143  72.922  1.00  0.00    10.056 C  
ENDBRANCH  28  29
ENDBRANCH  27  28
ENDBRANCH  26  27
ENDBRANCH  24  26
ENDBRANCH  23  24
ENDBRANCH   4  23
TORSDOF 7
ENDMDL
