MODEL        1
REMARK 921   NORMALIZED FREE ENERGY PREDICTED BY IDOCK:   -7.50 KCAL/MOL
REMARK 922        TOTAL FREE ENERGY PREDICTED BY IDOCK:  -13.58 KCAL/MOL
REMARK 923 INTER-LIGAND FREE ENERGY PREDICTED BY IDOCK:  -11.44 KCAL/MOL
REMARK 924 INTRA-LIGAND FREE ENERGY PREDICTED BY IDOCK:   -2.14 KCAL/MOL
REMARK 927      BINDING AFFINITY PREDICTED BY RF-SCORE:    0.00 PKD
ROOT
HETATM    1  C   UNL     1      -7.328  19.613  65.897  1.00  0.00    -0.320 C  
HETATM    2  C   UNL     1      -7.222  18.090  65.880  1.00  0.00    -0.278 C  
ENDROOT
BRANCH   2   3
HETATM    3  C   UNL     1      -8.366  17.399  66.542  1.00  0.00    -0.273 A  
HETATM    4  C   UNL     1      -8.255  16.554  67.685  1.00  0.00    -0.157 A  
HETATM    5  C   UNL     1     -10.398  16.557  66.054  1.00  0.00    -0.345 A  
HETATM    6  N   UNL     1      -9.347  15.824  68.088  1.00  0.00    -0.193 NA 
HETATM    7  N   UNL     1      -9.459  17.481  65.776  1.00  0.00    -0.509 NA 
HETATM    8  C   UNL     1     -10.473  15.855  67.271  1.00  0.00    -0.310 A  
BRANCH   4   9
HETATM    9  N   UNL     1      -7.040  16.606  68.342  1.00  0.00    -0.160 NA 
HETATM   10  H   UNL     1      -6.956  17.495  68.835  1.00  0.00     0.000 HD 
BRANCH   9  11
HETATM   11  C   UNL     1      -5.834  15.803  68.563  1.00  0.00    -0.100 C  
HETATM   12  O   UNL     1      -5.420  13.413  70.083  1.00  0.00    -0.097 OA 
HETATM   13  C   UNL     1      -5.902  14.580  70.749  1.00  0.00    -0.181 C  
HETATM   14  C   UNL     1      -5.674  14.453  67.885  1.00  0.00    -0.118 C  
HETATM   15  C   UNL     1      -5.400  15.808  70.024  1.00  0.00    -0.137 C  
HETATM   16  C   UNL     1      -5.992  13.267  68.784  1.00  0.00    -0.076 C  
ENDBRANCH   9  11
ENDBRANCH   4   9
BRANCH   8  17
HETATM   17  N   UNL     1     -11.723  15.309  67.698  1.00  0.00    -0.315 NA 
HETATM   18  H   UNL     1     -12.532  15.923  67.602  1.00  0.00     0.000 HD 
BRANCH  17  19
HETATM   19  C   UNL     1     -11.986  14.017  68.243  1.00  0.00    -0.349 A  
HETATM   20  C   UNL     1     -12.185  13.859  69.613  1.00  0.00    -0.374 A  
HETATM   21  C   UNL     1     -12.070  12.591  70.222  1.00  0.00    -0.373 A  
HETATM   22  C   UNL     1     -11.718  11.429  69.505  1.00  0.00    -0.348 A  
HETATM   23  C   UNL     1     -11.648  11.569  68.101  1.00  0.00    -0.308 A  
HETATM   24  C   UNL     1     -11.829  12.834  67.493  1.00  0.00    -0.402 A  
BRANCH  22  25
HETATM   25  N   UNL     1     -11.361  10.284  70.213  1.00  0.00    -0.301 NA 
HETATM   26  C   UNL     1     -10.027   9.688  70.078  1.00  0.00    -0.247 C  
HETATM   27  C   UNL     1     -12.384   9.388  70.751  1.00  0.00    -0.120 C  
HETATM   28  C   UNL     1     -11.934   8.896  72.128  1.00  0.00    -0.419 C  
HETATM   29  C   UNL     1      -9.571   9.189  71.452  1.00  0.00    -0.316 C  
HETATM   30  C   UNL     1     -10.562   8.167  72.067  1.00  0.00    -0.269 C  
BRANCH  30  31
HETATM   31  N   UNL     1     -10.617   6.875  71.326  1.00  0.00    -0.219 NA 
HETATM   32  C   UNL     1      -9.305   6.187  71.230  1.00  0.00    -0.159 C  
HETATM   33  C   UNL     1      -8.813   5.550  72.554  1.00  0.00    -0.130 C  
HETATM   34  N   UNL     1      -9.770   4.609  73.170  1.00  0.00    -0.133 NA 
HETATM   35  C   UNL     1      -9.818   3.344  72.433  1.00  0.00    -0.158 C  
HETATM   36  C   UNL     1     -11.104   5.241  73.234  1.00  0.00    -0.316 C  
HETATM   37  C   UNL     1     -11.572   5.899  71.911  1.00  0.00    -0.192 C  
ENDBRANCH  30  31
ENDBRANCH  22  25
BRANCH  23  38
HETATM   38  O   UNL     1     -11.432  10.428  67.356  1.00  0.00    -0.354 OA 
HETATM   39  C   UNL     1     -10.353  10.480  66.429  1.00  0.00    -0.221 C  
ENDBRANCH  23  38
ENDBRANCH  17  19
ENDBRANCH   8  17
BRANCH   5  40
HETATM   40  C   UNL     1     -10.943  15.993  64.774  1.00  0.00    -0.356 C  
HETATM   41  H2  UNL     1     -11.151  14.136  65.447  1.00  0.00     0.000 HD 
HETATM   42  N   UNL     1     -10.762  14.629  64.643  1.00  0.00    -0.609 N  
HETATM   43  O   UNL     1     -11.637  16.614  63.984  1.00  0.00    -1.197 OA 
HETATM   44  H1  UNL     1     -11.133  14.245  63.774  1.00  0.00     0.000 HD 
ENDBRANCH   5  40
ENDBRANCH   2   3
TORSDOF 9
ENDMDL
MODEL        2
REMARK 921   NORMALIZED FREE ENERGY PREDICTED BY IDOCK:   -7.47 KCAL/MOL
REMARK 922        TOTAL FREE ENERGY PREDICTED BY IDOCK:  -13.54 KCAL/MOL
REMARK 923 INTER-LIGAND FREE ENERGY PREDICTED BY IDOCK:  -11.36 KCAL/MOL
REMARK 924 INTRA-LIGAND FREE ENERGY PREDICTED BY IDOCK:   -2.19 KCAL/MOL
REMARK 927      BINDING AFFINITY PREDICTED BY RF-SCORE:    0.00 PKD
ROOT
HETATM    1  C   UNL     1     -10.569  19.140  66.489  1.00  0.00    -0.523 C  
HETATM    2  C   UNL     1     -10.456  18.142  67.639  1.00  0.00    -0.432 C  
ENDROOT
BRANCH   2   3
HETATM    3  C   UNL     1     -10.206  16.739  67.198  1.00  0.00    -0.295 A  
HETATM    4  C   UNL     1      -8.951  16.070  67.287  1.00  0.00    -0.197 A  
HETATM    5  C   UNL     1     -10.959  15.234  65.700  1.00  0.00    -0.344 A  
HETATM    6  N   UNL     1      -8.797  14.848  66.676  1.00  0.00    -0.267 NA 
HETATM    7  N   UNL     1     -11.246  16.287  66.488  1.00  0.00     0.140 NA 
HETATM    8  C   UNL     1      -9.849  14.392  65.888  1.00  0.00    -0.310 A  
BRANCH   4   9
HETATM    9  N   UNL     1      -7.999  16.700  68.066  1.00  0.00    -0.168 NA 
HETATM   10  H   UNL     1      -8.139  16.452  69.045  1.00  0.00     0.000 HD 
BRANCH   9  11
HETATM   11  C   UNL     1      -6.855  17.609  67.945  1.00  0.00    -0.190 C  
HETATM   12  O   UNL     1      -6.538  20.048  66.482  1.00  0.00    -0.194 OA 
HETATM   13  C   UNL     1      -6.864  18.854  65.771  1.00  0.00    -0.272 C  
HETATM   14  C   UNL     1      -6.865  18.957  68.645  1.00  0.00    -0.302 C  
HETATM   15  C   UNL     1      -6.312  17.664  66.522  1.00  0.00    -0.252 C  
HETATM   16  C   UNL     1      -7.217  20.125  67.735  1.00  0.00    -0.294 C  
ENDBRANCH   9  11
ENDBRANCH   4   9
BRANCH   8  17
HETATM   17  N   UNL     1      -9.880  13.054  65.384  1.00  0.00    -0.474 NA 
HETATM   18  H   UNL     1      -9.695  12.950  64.387  1.00  0.00     0.000 HD 
BRANCH  17  19
HETATM   19  C   UNL     1     -10.137  11.844  66.097  1.00  0.00    -0.228 A  
HETATM   20  C   UNL     1     -11.249  11.743  66.930  1.00  0.00    -0.387 A  
HETATM   21  C   UNL     1     -11.328  10.735  67.916  1.00  0.00    -0.372 A  
HETATM   22  C   UNL     1     -10.291   9.807  68.142  1.00  0.00    -0.202 A  
HETATM   23  C   UNL     1      -9.230   9.830  67.211  1.00  0.00    -0.134 A  
HETATM   24  C   UNL     1      -9.191  10.804  66.185  1.00  0.00    -0.202 A  
BRANCH  22  25
HETATM   25  N   UNL     1     -10.326   9.029  69.297  1.00  0.00    -0.215 NA 
HETATM   26  C   UNL     1      -9.687   9.479  70.538  1.00  0.00    -0.263 C  
HETATM   27  C   UNL     1     -10.584   7.591  69.224  1.00  0.00    -0.210 C  
HETATM   28  C   UNL     1     -11.479   7.191  70.398  1.00  0.00    -0.317 C  
HETATM   29  C   UNL     1     -10.575   9.077  71.720  1.00  0.00    -0.426 C  
HETATM   30  C   UNL     1     -10.837   7.551  71.769  1.00  0.00    -0.227 C  
BRANCH  30  31
HETATM   31  N   UNL     1      -9.619   6.748  72.074  1.00  0.00    -0.148 NA 
HETATM   32  C   UNL     1      -9.151   6.887  73.476  1.00  0.00    -0.146 C  
HETATM   33  C   UNL     1     -10.037   6.172  74.526  1.00  0.00    -0.329 C  
HETATM   34  N   UNL     1     -10.252   4.734  74.264  1.00  0.00    -0.224 NA 
HETATM   35  C   UNL     1      -9.048   3.956  74.565  1.00  0.00    -0.095 C  
HETATM   36  C   UNL     1     -10.669   4.550  72.859  1.00  0.00    -0.208 C  
HETATM   37  C   UNL     1      -9.790   5.295  71.821  1.00  0.00    -0.170 C  
ENDBRANCH  30  31
ENDBRANCH  22  25
BRANCH  23  38
HETATM   38  O   UNL     1      -8.261   8.853  67.323  1.00  0.00    -0.104 OA 
HETATM   39  C   UNL     1      -6.980   9.289  67.766  1.00  0.00    -0.081 C  
ENDBRANCH  23  38
ENDBRANCH  17  19
ENDBRANCH   8  17
BRANCH   5  40
HETATM   40  C   UNL     1     -11.596  15.425  64.354  1.00  0.00    -0.264 C  
HETATM   41  H2  UNL     1     -12.856  13.899  64.511  1.00  0.00     0.000 HD 
HETATM   42  N   UNL     1     -12.183  14.282  63.847  1.00  0.00    -0.944 N  
HETATM   43  O   UNL     1     -11.752  16.507  63.810  1.00  0.00    -1.086 OA 
HETATM   44  H1  UNL     1     -12.616  14.412  62.932  1.00  0.00     0.000 HD 
ENDBRANCH   5  40
ENDBRANCH   2   3
TORSDOF 9
ENDMDL
MODEL        3
REMARK 921   NORMALIZED FREE ENERGY PREDICTED BY IDOCK:   -7.33 KCAL/MOL
REMARK 922        TOTAL FREE ENERGY PREDICTED BY IDOCK:  -13.33 KCAL/MOL
REMARK 923 INTER-LIGAND FREE ENERGY PREDICTED BY IDOCK:  -11.20 KCAL/MOL
REMARK 924 INTRA-LIGAND FREE ENERGY PREDICTED BY IDOCK:   -2.13 KCAL/MOL
REMARK 927      BINDING AFFINITY PREDICTED BY RF-SCORE:    0.00 PKD
ROOT
HETATM    1  C   UNL     1     -10.451   5.719  73.599  1.00  0.00    -0.286 C  
HETATM    2  C   UNL     1     -10.171   7.213  73.736  1.00  0.00    -0.395 C  
ENDROOT
BRANCH   2   3
HETATM    3  C   UNL     1     -10.502   8.003  72.514  1.00  0.00    -0.316 A  
HETATM    4  C   UNL     1      -9.574   8.806  71.788  1.00  0.00    -0.301 A  
HETATM    5  C   UNL     1     -12.245   9.057  71.552  1.00  0.00    -0.335 A  
HETATM    6  N   UNL     1     -10.038   9.634  70.794  1.00  0.00    -0.268 NA 
HETATM    7  N   UNL     1     -11.828   8.049  72.340  1.00  0.00    -0.366 NA 
HETATM    8  C   UNL     1     -11.417   9.735  70.639  1.00  0.00    -0.324 A  
BRANCH   4   9
HETATM    9  N   UNL     1      -8.245   8.616  72.117  1.00  0.00    -0.340 NA 
HETATM   10  H   UNL     1      -7.961   9.308  72.809  1.00  0.00     0.000 HD 
BRANCH   9  11
HETATM   11  C   UNL     1      -7.110   7.745  71.795  1.00  0.00    -0.066 C  
HETATM   12  O   UNL     1      -6.527   5.054  72.578  1.00  0.00    -0.039 OA 
HETATM   13  C   UNL     1      -6.686   6.048  73.590  1.00  0.00    -0.079 C  
HETATM   14  C   UNL     1      -7.279   6.586  70.827  1.00  0.00    -0.071 C  
HETATM   15  C   UNL     1      -6.288   7.394  73.030  1.00  0.00    -0.059 C  
HETATM   16  C   UNL     1      -7.449   5.234  71.504  1.00  0.00    -0.096 C  
ENDBRANCH   9  11
ENDBRANCH   4   9
BRANCH   8  17
HETATM   17  N   UNL     1     -11.996  10.396  69.511  1.00  0.00    -0.497 NA 
HETATM   18  H   UNL     1     -12.582   9.817  68.910  1.00  0.00     0.000 HD 
BRANCH  17  19
HETATM   19  C   UNL     1     -11.861  11.761  69.118  1.00  0.00    -0.326 A  
HETATM   20  C   UNL     1     -11.325  12.083  67.872  1.00  0.00    -0.369 A  
HETATM   21  C   UNL     1     -10.835  13.380  67.606  1.00  0.00    -0.273 A  
HETATM   22  C   UNL     1     -10.821  14.404  68.576  1.00  0.00    -0.251 A  
HETATM   23  C   UNL     1     -11.485  14.113  69.788  1.00  0.00    -0.250 A  
HETATM   24  C   UNL     1     -12.031  12.828  70.021  1.00  0.00    -0.371 A  
BRANCH  22  25
HETATM   25  N   UNL     1     -10.081  15.556  68.326  1.00  0.00    -0.216 NA 
HETATM   26  C   UNL     1     -10.717  16.776  67.815  1.00  0.00    -0.321 C  
HETATM   27  C   UNL     1      -8.633  15.487  68.127  1.00  0.00    -0.152 C  
HETATM   28  C   UNL     1      -7.984  16.691  68.811  1.00  0.00    -0.239 C  
HETATM   29  C   UNL     1     -10.068  17.987  68.492  1.00  0.00    -0.399 C  
HETATM   30  C   UNL     1      -8.536  18.040  68.265  1.00  0.00    -0.287 C  
BRANCH  30  31
HETATM   31  N   UNL     1      -8.154  18.299  66.848  1.00  0.00    -0.237 NA 
HETATM   32  C   UNL     1      -8.462  19.677  66.391  1.00  0.00    -0.356 C  
HETATM   33  C   UNL     1      -7.532  20.771  66.972  1.00  0.00    -0.271 C  
HETATM   34  N   UNL     1      -6.092  20.533  66.743  1.00  0.00    -0.182 NA 
HETATM   35  C   UNL     1      -5.729  20.787  65.347  1.00  0.00    -0.225 C  
HETATM   36  C   UNL     1      -5.758  19.148  67.137  1.00  0.00    -0.170 C  
HETATM   37  C   UNL     1      -6.714  18.066  66.572  1.00  0.00    -0.208 C  
ENDBRANCH  30  31
ENDBRANCH  22  25
BRANCH  23  38
HETATM   38  O   UNL     1     -11.604  15.132  70.711  1.00  0.00    -0.273 OA 
HETATM   39  C   UNL     1     -12.930  15.473  71.100  1.00  0.00    -0.496 C  
ENDBRANCH  23  38
ENDBRANCH  17  19
ENDBRANCH   8  17
BRANCH   5  40
HETATM   40  C   UNL     1     -13.456   9.702  72.160  1.00  0.00    -0.429 C  
HETATM   41  H2  UNL     1     -13.711   8.342  73.584  1.00  0.00     0.000 HD 
HETATM   42  N   UNL     1     -14.256   8.828  72.871  1.00  0.00    -0.775 N  
HETATM   43  O   UNL     1     -13.657  10.906  72.192  1.00  0.00    -0.280 OA 
HETATM   44  H1  UNL     1     -15.079   9.266  73.285  1.00  0.00     0.000 HD 
ENDBRANCH   5  40
ENDBRANCH   2   3
TORSDOF 9
ENDMDL
MODEL        4
REMARK 921   NORMALIZED FREE ENERGY PREDICTED BY IDOCK:   -7.23 KCAL/MOL
REMARK 922        TOTAL FREE ENERGY PREDICTED BY IDOCK:  -13.17 KCAL/MOL
REMARK 923 INTER-LIGAND FREE ENERGY PREDICTED BY IDOCK:  -11.22 KCAL/MOL
REMARK 924 INTRA-LIGAND FREE ENERGY PREDICTED BY IDOCK:   -1.95 KCAL/MOL
REMARK 927      BINDING AFFINITY PREDICTED BY RF-SCORE:    0.00 PKD
ROOT
HETATM    1  C   UNL     1     -10.641   5.830  73.525  1.00  0.00    -0.295 C  
HETATM    2  C   UNL     1      -9.927   7.177  73.444  1.00  0.00    -0.320 C  
ENDROOT
BRANCH   2   3
HETATM    3  C   UNL     1     -10.326   8.001  72.265  1.00  0.00    -0.271 A  
HETATM    4  C   UNL     1      -9.437   8.809  71.499  1.00  0.00    -0.271 A  
HETATM    5  C   UNL     1     -12.113   9.101  71.445  1.00  0.00    -0.337 A  
HETATM    6  N   UNL     1      -9.953   9.667  70.558  1.00  0.00    -0.271 NA 
HETATM    7  N   UNL     1     -11.660   8.068  72.180  1.00  0.00    -0.318 NA 
HETATM    8  C   UNL     1     -11.337   9.790  70.496  1.00  0.00    -0.314 A  
BRANCH   4   9
HETATM    9  N   UNL     1      -8.092   8.595  71.735  1.00  0.00    -0.246 NA 
HETATM   10  H   UNL     1      -7.947   8.380  72.721  1.00  0.00     0.000 HD 
BRANCH   9  11
HETATM   11  C   UNL     1      -6.806   8.574  71.031  1.00  0.00    -0.059 C  
HETATM   12  O   UNL     1      -6.165   9.003  68.275  1.00  0.00    -0.053 OA 
HETATM   13  C   UNL     1      -7.060   7.946  68.619  1.00  0.00    -0.076 C  
HETATM   14  C   UNL     1      -6.164   9.869  70.561  1.00  0.00    -0.101 C  
HETATM   15  C   UNL     1      -6.729   7.447  70.007  1.00  0.00    -0.047 C  
HETATM   16  C   UNL     1      -6.372  10.161  69.083  1.00  0.00    -0.044 C  
ENDBRANCH   9  11
ENDBRANCH   4   9
BRANCH   8  17
HETATM   17  N   UNL     1     -11.980  10.485  69.425  1.00  0.00    -0.513 NA 
HETATM   18  H   UNL     1     -12.607   9.927  68.846  1.00  0.00     0.000 HD 
BRANCH  17  19
HETATM   19  C   UNL     1     -11.857  11.860  69.060  1.00  0.00    -0.308 A  
HETATM   20  C   UNL     1     -11.350  12.212  67.811  1.00  0.00    -0.371 A  
HETATM   21  C   UNL     1     -10.869  13.517  67.565  1.00  0.00    -0.276 A  
HETATM   22  C   UNL     1     -10.837  14.518  68.557  1.00  0.00    -0.249 A  
HETATM   23  C   UNL     1     -11.472  14.197  69.777  1.00  0.00    -0.250 A  
HETATM   24  C   UNL     1     -12.010  12.905  69.992  1.00  0.00    -0.380 A  
BRANCH  22  25
HETATM   25  N   UNL     1     -10.105  15.679  68.318  1.00  0.00    -0.216 NA 
HETATM   26  C   UNL     1     -10.768  16.938  67.961  1.00  0.00    -0.364 C  
HETATM   27  C   UNL     1      -8.686  15.610  67.972  1.00  0.00    -0.167 C  
HETATM   28  C   UNL     1      -7.952  16.755  68.673  1.00  0.00    -0.246 C  
HETATM   29  C   UNL     1     -10.036  18.091  68.654  1.00  0.00    -0.396 C  
HETATM   30  C   UNL     1      -8.532  18.144  68.281  1.00  0.00    -0.284 C  
BRANCH  30  31
HETATM   31  N   UNL     1      -8.287  18.502  66.855  1.00  0.00    -0.256 NA 
HETATM   32  C   UNL     1      -8.416  19.954  66.575  1.00  0.00    -0.337 C  
HETATM   33  C   UNL     1      -7.254  20.821  67.121  1.00  0.00    -0.337 C  
HETATM   34  N   UNL     1      -5.912  20.394  66.675  1.00  0.00    -0.176 NA 
HETATM   35  C   UNL     1      -5.683  20.747  65.272  1.00  0.00    -0.222 C  
HETATM   36  C   UNL     1      -5.766  18.939  66.889  1.00  0.00    -0.151 C  
HETATM   37  C   UNL     1      -6.949  18.086  66.364  1.00  0.00    -0.243 C  
ENDBRANCH  30  31
ENDBRANCH  22  25
BRANCH  23  38
HETATM   38  O   UNL     1     -11.573  15.194  70.726  1.00  0.00    -0.273 OA 
HETATM   39  C   UNL     1     -12.894  15.585  71.086  1.00  0.00    -0.489 C  
ENDBRANCH  23  38
ENDBRANCH  17  19
ENDBRANCH   8  17
BRANCH   5  40
HETATM   40  C   UNL     1     -13.273   9.746  72.147  1.00  0.00    -0.436 C  
HETATM   41  H2  UNL     1     -13.411   8.390  73.591  1.00  0.00     0.000 HD 
HETATM   42  N   UNL     1     -14.011   8.873  72.923  1.00  0.00    -0.890 N  
HETATM   43  O   UNL     1     -13.472  10.949  72.192  1.00  0.00    -0.372 OA 
HETATM   44  H1  UNL     1     -14.800   9.311  73.400  1.00  0.00     0.000 HD 
ENDBRANCH   5  40
ENDBRANCH   2   3
TORSDOF 9
ENDMDL
MODEL        5
REMARK 921   NORMALIZED FREE ENERGY PREDICTED BY IDOCK:   -7.04 KCAL/MOL
REMARK 922        TOTAL FREE ENERGY PREDICTED BY IDOCK:  -12.88 KCAL/MOL
REMARK 923 INTER-LIGAND FREE ENERGY PREDICTED BY IDOCK:  -11.15 KCAL/MOL
REMARK 924 INTRA-LIGAND FREE ENERGY PREDICTED BY IDOCK:   -1.73 KCAL/MOL
REMARK 927      BINDING AFFINITY PREDICTED BY RF-SCORE:    0.00 PKD
ROOT
HETATM    1  C   UNL     1      -8.859   2.406  69.513  1.00  0.00    -0.148 C  
HETATM    2  C   UNL     1      -9.667   3.505  70.198  1.00  0.00    -0.155 C  
ENDROOT
BRANCH   2   3
HETATM    3  C   UNL     1      -9.872   4.717  69.352  1.00  0.00    -0.212 A  
HETATM    4  C   UNL     1     -10.758   5.788  69.667  1.00  0.00    -0.346 A  
HETATM    5  C   UNL     1      -9.780   5.361  67.195  1.00  0.00    -0.146 A  
HETATM    6  N   UNL     1     -11.003   6.756  68.722  1.00  0.00    -0.231 NA 
HETATM    7  N   UNL     1      -9.303   4.545  68.153  1.00  0.00    -0.133 NA 
HETATM    8  C   UNL     1     -10.465   6.561  67.454  1.00  0.00    -0.252 A  
BRANCH   4   9
HETATM    9  N   UNL     1     -11.247   5.790  70.959  1.00  0.00    -0.204 NA 
HETATM   10  H   UNL     1     -11.176   4.852  71.354  1.00  0.00     0.000 HD 
BRANCH   9  11
HETATM   11  C   UNL     1     -11.834   6.698  71.949  1.00  0.00    -0.332 C  
HETATM   12  O   UNL     1     -12.031   9.553  71.996  1.00  0.00    -0.348 OA 
HETATM   13  C   UNL     1     -10.739   8.951  71.929  1.00  0.00    -0.356 C  
HETATM   14  C   UNL     1     -13.148   7.405  71.662  1.00  0.00    -0.412 C  
HETATM   15  C   UNL     1     -10.787   7.596  72.598  1.00  0.00    -0.395 C  
HETATM   16  C   UNL     1     -12.989   8.848  71.208  1.00  0.00    -0.211 C  
ENDBRANCH   9  11
ENDBRANCH   4   9
BRANCH   8  17
HETATM   17  N   UNL     1     -10.479   7.597  66.468  1.00  0.00    -0.486 NA 
HETATM   18  H   UNL     1     -10.973   7.379  65.602  1.00  0.00     0.000 HD 
BRANCH  17  19
HETATM   19  C   UNL     1      -9.891   8.895  66.538  1.00  0.00    -0.274 A  
HETATM   20  C   UNL     1      -9.392   9.376  67.747  1.00  0.00    -0.144 A  
HETATM   21  C   UNL     1      -9.159  10.755  67.939  1.00  0.00    -0.150 A  
HETATM   22  C   UNL     1      -9.445  11.721  66.952  1.00  0.00    -0.193 A  
HETATM   23  C   UNL     1      -9.823  11.219  65.688  1.00  0.00    -0.234 A  
HETATM   24  C   UNL     1      -9.992   9.828  65.486  1.00  0.00    -0.329 A  
BRANCH  22  25
HETATM   25  N   UNL     1      -9.446  13.067  67.311  1.00  0.00    -0.217 NA 
HETATM   26  C   UNL     1     -10.690  13.843  67.358  1.00  0.00    -0.272 C  
HETATM   27  C   UNL     1      -8.225  13.867  67.219  1.00  0.00    -0.161 C  
HETATM   28  C   UNL     1      -8.160  14.808  68.423  1.00  0.00    -0.144 C  
HETATM   29  C   UNL     1     -10.631  14.792  68.558  1.00  0.00    -0.248 C  
HETATM   30  C   UNL     1      -9.404  15.738  68.503  1.00  0.00    -0.198 C  
BRANCH  30  31
HETATM   31  N   UNL     1      -9.469  16.729  67.391  1.00  0.00    -0.234 NA 
HETATM   32  C   UNL     1     -10.443  17.824  67.626  1.00  0.00    -0.388 C  
HETATM   33  C   UNL     1     -10.004  18.861  68.690  1.00  0.00    -0.412 C  
HETATM   34  N   UNL     1      -8.687  19.478  68.434  1.00  0.00    -0.348 NA 
HETATM   35  C   UNL     1      -8.761  20.447  67.338  1.00  0.00    -0.320 C  
HETATM   36  C   UNL     1      -7.700  18.418  68.143  1.00  0.00    -0.290 C  
HETATM   37  C   UNL     1      -8.163  17.371  67.097  1.00  0.00    -0.210 C  
ENDBRANCH  30  31
ENDBRANCH  22  25
BRANCH  23  38
HETATM   38  O   UNL     1      -9.987  12.127  64.662  1.00  0.00    -0.260 OA 
HETATM   39  C   UNL     1     -10.072  11.583  63.350  1.00  0.00    -0.420 C  
ENDBRANCH  23  38
ENDBRANCH  17  19
ENDBRANCH   8  17
BRANCH   5  40
HETATM   40  C   UNL     1      -9.991   4.580  65.930  1.00  0.00    -0.244 C  
HETATM   41  H2  UNL     1     -11.478   5.705  65.248  1.00  0.00     0.000 HD 
HETATM   42  N   UNL     1     -11.256   4.720  65.392  1.00  0.00    -0.970 N  
HETATM   43  O   UNL     1      -9.106   4.008  65.314  1.00  0.00    -0.125 OA 
HETATM   44  H1  UNL     1     -11.400   4.189  64.533  1.00  0.00     0.000 HD 
ENDBRANCH   5  40
ENDBRANCH   2   3
TORSDOF 9
ENDMDL
MODEL        6
REMARK 921   NORMALIZED FREE ENERGY PREDICTED BY IDOCK:   -7.01 KCAL/MOL
REMARK 922        TOTAL FREE ENERGY PREDICTED BY IDOCK:  -12.84 KCAL/MOL
REMARK 923 INTER-LIGAND FREE ENERGY PREDICTED BY IDOCK:  -10.69 KCAL/MOL
REMARK 924 INTRA-LIGAND FREE ENERGY PREDICTED BY IDOCK:   -2.15 KCAL/MOL
REMARK 927      BINDING AFFINITY PREDICTED BY RF-SCORE:    0.00 PKD
ROOT
HETATM    1  C   UNL     1     -10.488   5.657  73.803  1.00  0.00    -0.295 C  
HETATM    2  C   UNL     1     -10.130   7.141  73.831  1.00  0.00    -0.359 C  
ENDROOT
BRANCH   2   3
HETATM    3  C   UNL     1     -10.501   7.874  72.585  1.00  0.00    -0.320 A  
HETATM    4  C   UNL     1      -9.602   8.655  71.802  1.00  0.00    -0.290 A  
HETATM    5  C   UNL     1     -12.280   8.870  71.626  1.00  0.00    -0.343 A  
HETATM    6  N   UNL     1     -10.101   9.434  70.786  1.00  0.00    -0.285 NA 
HETATM    7  N   UNL     1     -11.831   7.900  72.445  1.00  0.00    -0.349 NA 
HETATM    8  C   UNL     1     -11.484   9.516  70.664  1.00  0.00    -0.297 A  
BRANCH   4   9
HETATM    9  N   UNL     1      -8.263   8.492  72.102  1.00  0.00    -0.271 NA 
HETATM   10  H   UNL     1      -8.146   8.406  73.112  1.00  0.00     0.000 HD 
BRANCH   9  11
HETATM   11  C   UNL     1      -6.955   8.402  71.445  1.00  0.00    -0.072 C  
HETATM   12  O   UNL     1      -6.254   8.159  68.681  1.00  0.00    -0.042 OA 
HETATM   13  C   UNL     1      -7.073   7.153  69.276  1.00  0.00    -0.079 C  
HETATM   14  C   UNL     1      -6.404   9.582  70.663  1.00  0.00    -0.086 C  
HETATM   15  C   UNL     1      -6.752   7.060  70.751  1.00  0.00    -0.053 C  
HETATM   16  C   UNL     1      -6.582   9.464  69.157  1.00  0.00    -0.049 C  
ENDBRANCH   9  11
ENDBRANCH   4   9
BRANCH   8  17
HETATM   17  N   UNL     1     -12.100  10.122  69.524  1.00  0.00    -0.498 NA 
HETATM   18  H   UNL     1     -12.741   9.528  68.998  1.00  0.00     0.000 HD 
BRANCH  17  19
HETATM   19  C   UNL     1     -11.934  11.449  69.028  1.00  0.00    -0.320 A  
HETATM   20  C   UNL     1     -11.547  11.662  67.707  1.00  0.00    -0.359 A  
HETATM   21  C   UNL     1     -11.017  12.905  67.297  1.00  0.00    -0.289 A  
HETATM   22  C   UNL     1     -10.814  13.979  68.187  1.00  0.00    -0.248 A  
HETATM   23  C   UNL     1     -11.330  13.804  69.491  1.00  0.00    -0.224 A  
HETATM   24  C   UNL     1     -11.919  12.576  69.874  1.00  0.00    -0.371 A  
BRANCH  22  25
HETATM   25  N   UNL     1     -10.043  15.061  67.771  1.00  0.00    -0.233 NA 
HETATM   26  C   UNL     1      -8.600  15.114  68.028  1.00  0.00    -0.156 C  
HETATM   27  C   UNL     1     -10.664  16.353  67.477  1.00  0.00    -0.298 C  
HETATM   28  C   UNL     1      -9.979  16.962  66.253  1.00  0.00    -0.324 C  
HETATM   29  C   UNL     1      -7.907  15.728  66.808  1.00  0.00    -0.248 C  
HETATM   30  C   UNL     1      -8.449  17.140  66.470  1.00  0.00    -0.274 C  
BRANCH  30  31
HETATM   31  N   UNL     1      -8.118  18.166  67.500  1.00  0.00    -0.236 NA 
HETATM   32  C   UNL     1      -6.674  18.226  67.837  1.00  0.00    -0.208 C  
HETATM   33  C   UNL     1      -5.782  18.860  66.741  1.00  0.00    -0.154 C  
HETATM   34  N   UNL     1      -6.202  20.212  66.319  1.00  0.00    -0.183 NA 
HETATM   35  C   UNL     1      -5.875  21.210  67.340  1.00  0.00    -0.318 C  
HETATM   36  C   UNL     1      -7.650  20.204  66.026  1.00  0.00    -0.258 C  
HETATM   37  C   UNL     1      -8.528  19.541  67.118  1.00  0.00    -0.295 C  
ENDBRANCH  30  31
ENDBRANCH  22  25
BRANCH  23  38
HETATM   38  O   UNL     1     -11.265  14.880  70.352  1.00  0.00    -0.250 OA 
HETATM   39  C   UNL     1     -12.512  15.416  70.781  1.00  0.00    -0.423 C  
ENDBRANCH  23  38
ENDBRANCH  17  19
ENDBRANCH   8  17
BRANCH   5  40
HETATM   40  C   UNL     1     -13.482   9.528  72.238  1.00  0.00    -0.440 C  
HETATM   41  H2  UNL     1     -13.621   8.290  73.785  1.00  0.00     0.000 HD 
HETATM   42  N   UNL     1     -14.216   8.695  73.062  1.00  0.00    -0.719 N  
HETATM   43  O   UNL     1     -13.722  10.723  72.178  1.00  0.00    -0.169 OA 
HETATM   44  H1  UNL     1     -15.033   9.142  73.479  1.00  0.00     0.000 HD 
ENDBRANCH   5  40
ENDBRANCH   2   3
TORSDOF 9
ENDMDL
MODEL        7
REMARK 921   NORMALIZED FREE ENERGY PREDICTED BY IDOCK:   -6.99 KCAL/MOL
REMARK 922        TOTAL FREE ENERGY PREDICTED BY IDOCK:  -12.80 KCAL/MOL
REMARK 923 INTER-LIGAND FREE ENERGY PREDICTED BY IDOCK:  -10.98 KCAL/MOL
REMARK 924 INTRA-LIGAND FREE ENERGY PREDICTED BY IDOCK:   -1.83 KCAL/MOL
REMARK 927      BINDING AFFINITY PREDICTED BY RF-SCORE:    0.00 PKD
ROOT
HETATM    1  C   UNL     1     -10.591  19.864  65.585  1.00  0.00    -0.431 C  
HETATM    2  C   UNL     1      -9.695  19.379  66.721  1.00  0.00    -0.435 C  
ENDROOT
BRANCH   2   3
HETATM    3  C   UNL     1      -9.511  17.898  66.753  1.00  0.00    -0.287 A  
HETATM    4  C   UNL     1      -8.263  17.237  66.945  1.00  0.00    -0.227 A  
HETATM    5  C   UNL     1     -10.435  16.019  65.922  1.00  0.00    -0.359 A  
HETATM    6  N   UNL     1      -8.190  15.877  66.766  1.00  0.00    -0.247 NA 
HETATM    7  N   UNL     1     -10.625  17.286  66.335  1.00  0.00    -0.238 NA 
HETATM    8  C   UNL     1      -9.323  15.235  66.277  1.00  0.00    -0.310 A  
BRANCH   4   9
HETATM    9  N   UNL     1      -7.227  18.045  67.376  1.00  0.00    -0.192 NA 
HETATM   10  H   UNL     1      -7.322  18.218  68.377  1.00  0.00     0.000 HD 
BRANCH   9  11
HETATM   11  C   UNL     1      -6.037  18.733  66.867  1.00  0.00    -0.162 C  
HETATM   12  O   UNL     1      -5.748  21.253  65.540  1.00  0.00    -0.232 OA 
HETATM   13  C   UNL     1      -6.575  20.251  64.948  1.00  0.00    -0.281 C  
HETATM   14  C   UNL     1      -5.483  19.949  67.591  1.00  0.00    -0.196 C  
HETATM   15  C   UNL     1      -6.066  18.886  65.351  1.00  0.00    -0.289 C  
HETATM   16  C   UNL     1      -5.876  21.277  66.961  1.00  0.00    -0.326 C  
ENDBRANCH   9  11
ENDBRANCH   4   9
BRANCH   8  17
HETATM   17  N   UNL     1      -9.425  13.809  66.255  1.00  0.00    -0.433 NA 
HETATM   18  H   UNL     1      -9.462  13.381  65.330  1.00  0.00     0.000 HD 
BRANCH  17  19
HETATM   19  C   UNL     1      -9.480  12.907  67.359  1.00  0.00    -0.198 A  
HETATM   20  C   UNL     1      -8.416  12.045  67.616  1.00  0.00    -0.160 A  
HETATM   21  C   UNL     1      -8.583  10.909  68.438  1.00  0.00    -0.146 A  
HETATM   22  C   UNL     1      -9.823  10.560  69.012  1.00  0.00    -0.212 A  
HETATM   23  C   UNL     1     -10.861  11.505  68.859  1.00  0.00    -0.218 A  
HETATM   24  C   UNL     1     -10.664  12.674  68.086  1.00  0.00    -0.242 A  
BRANCH  22  25
HETATM   25  N   UNL     1      -9.970   9.295  69.576  1.00  0.00    -0.179 NA 
HETATM   26  C   UNL     1     -10.396   9.126  70.969  1.00  0.00    -0.293 C  
HETATM   27  C   UNL     1      -9.300   8.133  68.992  1.00  0.00    -0.147 C  
HETATM   28  C   UNL     1     -10.245   6.932  69.063  1.00  0.00    -0.189 C  
HETATM   29  C   UNL     1     -11.339   7.922  71.050  1.00  0.00    -0.292 C  
HETATM   30  C   UNL     1     -10.681   6.621  70.524  1.00  0.00    -0.247 C  
BRANCH  30  31
HETATM   31  N   UNL     1      -9.563   6.133  71.379  1.00  0.00    -0.160 NA 
HETATM   32  C   UNL     1      -9.952   5.899  72.793  1.00  0.00    -0.179 C  
HETATM   33  C   UNL     1     -10.836   4.647  73.019  1.00  0.00    -0.247 C  
HETATM   34  N   UNL     1     -10.259   3.391  72.498  1.00  0.00    -0.160 NA 
HETATM   35  C   UNL     1      -9.159   2.923  73.344  1.00  0.00    -0.085 C  
HETATM   36  C   UNL     1      -9.810   3.601  71.107  1.00  0.00    -0.130 C  
HETATM   37  C   UNL     1      -8.950   4.872  70.888  1.00  0.00    -0.132 C  
ENDBRANCH  30  31
ENDBRANCH  22  25
BRANCH  23  38
HETATM   38  O   UNL     1     -12.050  11.258  69.514  1.00  0.00    -0.321 OA 
HETATM   39  C   UNL     1     -12.410  12.188  70.531  1.00  0.00    -0.272 C  
ENDBRANCH  23  38
ENDBRANCH  17  19
ENDBRANCH   8  17
BRANCH   5  40
HETATM   40  C   UNL     1     -11.204  15.784  64.654  1.00  0.00    -0.363 C  
HETATM   41  H2  UNL     1     -12.166  14.172  65.301  1.00  0.00     0.000 HD 
HETATM   42  N   UNL     1     -11.627  14.478  64.492  1.00  0.00    -0.551 N  
HETATM   43  O   UNL     1     -11.588  16.667  63.903  1.00  0.00    -1.204 OA 
HETATM   44  H1  UNL     1     -12.149  14.318  63.630  1.00  0.00     0.000 HD 
ENDBRANCH   5  40
ENDBRANCH   2   3
TORSDOF 9
ENDMDL
MODEL        8
REMARK 921   NORMALIZED FREE ENERGY PREDICTED BY IDOCK:   -6.69 KCAL/MOL
REMARK 922        TOTAL FREE ENERGY PREDICTED BY IDOCK:  -12.35 KCAL/MOL
REMARK 923 INTER-LIGAND FREE ENERGY PREDICTED BY IDOCK:  -10.30 KCAL/MOL
REMARK 924 INTRA-LIGAND FREE ENERGY PREDICTED BY IDOCK:   -2.06 KCAL/MOL
REMARK 927      BINDING AFFINITY PREDICTED BY RF-SCORE:    0.00 PKD
ROOT
HETATM    1  C   UNL     1     -12.275  15.740  69.958  1.00  0.00    -0.309 C  
HETATM    2  C   UNL     1     -11.757  16.203  68.599  1.00  0.00    -0.205 C  
ENDROOT
BRANCH   2   3
HETATM    3  C   UNL     1     -10.961  15.170  67.874  1.00  0.00    -0.302 A  
HETATM    4  C   UNL     1      -9.605  15.327  67.463  1.00  0.00    -0.206 A  
HETATM    5  C   UNL     1     -11.247  13.449  66.448  1.00  0.00    -0.304 A  
HETATM    6  N   UNL     1      -9.041  14.383  66.639  1.00  0.00    -0.259 NA 
HETATM    7  N   UNL     1     -11.762  14.185  67.450  1.00  0.00    -0.371 NA 
HETATM    8  C   UNL     1      -9.875  13.385  66.145  1.00  0.00    -0.281 A  
BRANCH   4   9
HETATM    9  N   UNL     1      -8.945  16.411  68.009  1.00  0.00    -0.184 NA 
HETATM   10  H   UNL     1      -8.556  16.154  68.916  1.00  0.00     0.000 HD 
BRANCH   9  11
HETATM   11  C   UNL     1      -8.620  17.809  67.711  1.00  0.00    -0.237 C  
HETATM   12  O   UNL     1     -10.308  20.086  67.311  1.00  0.00    -0.421 OA 
HETATM   13  C   UNL     1     -10.457  18.957  66.451  1.00  0.00    -0.439 C  
HETATM   14  C   UNL     1      -8.770  18.879  68.779  1.00  0.00    -0.331 C  
HETATM   15  C   UNL     1      -9.132  18.239  66.340  1.00  0.00    -0.260 C  
HETATM   16  C   UNL     1     -10.046  19.699  68.659  1.00  0.00    -0.447 C  
ENDBRANCH   9  11
ENDBRANCH   4   9
BRANCH   8  17
HETATM   17  N   UNL     1      -9.352  12.245  65.459  1.00  0.00    -0.438 NA 
HETATM   18  H   UNL     1      -9.123  12.385  64.475  1.00  0.00     0.000 HD 
BRANCH  17  19
HETATM   19  C   UNL     1      -9.111  10.935  65.972  1.00  0.00    -0.191 A  
HETATM   20  C   UNL     1     -10.025   9.910  65.738  1.00  0.00    -0.347 A  
HETATM   21  C   UNL     1     -10.017   8.737  66.524  1.00  0.00    -0.360 A  
HETATM   22  C   UNL     1      -9.125   8.545  67.599  1.00  0.00    -0.135 A  
HETATM   23  C   UNL     1      -8.118   9.524  67.746  1.00  0.00    -0.106 A  
HETATM   24  C   UNL     1      -8.095  10.667  66.911  1.00  0.00    -0.124 A  
BRANCH  22  25
HETATM   25  N   UNL     1      -9.357   7.497  68.486  1.00  0.00    -0.143 NA 
HETATM   26  C   UNL     1      -9.925   7.735  69.817  1.00  0.00    -0.189 C  
HETATM   27  C   UNL     1      -8.660   6.220  68.334  1.00  0.00    -0.114 C  
HETATM   28  C   UNL     1      -9.635   5.085  68.652  1.00  0.00    -0.204 C  
HETATM   29  C   UNL     1     -10.899   6.600  70.145  1.00  0.00    -0.330 C  
HETATM   30  C   UNL     1     -10.223   5.207  70.087  1.00  0.00    -0.278 C  
BRANCH  30  31
HETATM   31  N   UNL     1      -9.207   4.995  71.157  1.00  0.00    -0.141 NA 
HETATM   32  C   UNL     1      -9.701   5.316  72.519  1.00  0.00    -0.150 C  
HETATM   33  C   UNL     1     -10.706   4.289  73.098  1.00  0.00    -0.205 C  
HETATM   34  N   UNL     1     -10.215   2.896  73.115  1.00  0.00    -0.132 NA 
HETATM   35  C   UNL     1      -9.216   2.700  74.167  1.00  0.00    -0.080 C  
HETATM   36  C   UNL     1      -9.665   2.557  71.786  1.00  0.00    -0.154 C  
HETATM   37  C   UNL     1      -8.682   3.607  71.205  1.00  0.00    -0.081 C  
ENDBRANCH  30  31
ENDBRANCH  22  25
BRANCH  23  38
HETATM   38  O   UNL     1      -7.151   9.306  68.706  1.00  0.00    -0.070 OA 
HETATM   39  C   UNL     1      -7.240  10.106  69.879  1.00  0.00    -0.154 C  
ENDBRANCH  23  38
ENDBRANCH  17  19
ENDBRANCH   8  17
BRANCH   5  40
HETATM   40  C   UNL     1     -12.304  13.201  65.412  1.00  0.00    -0.481 C  
HETATM   41  H2  UNL     1     -11.720  14.645  64.182  1.00  0.00     0.000 HD 
HETATM   42  N   UNL     1     -12.574  14.298  64.616  1.00  0.00    -0.665 N  
HETATM   43  O   UNL     1     -12.775  12.104  65.153  1.00  0.00    -0.468 OA 
HETATM   44  H1  UNL     1     -13.293  14.129  63.912  1.00  0.00     0.000 HD 
ENDBRANCH   5  40
ENDBRANCH   2   3
TORSDOF 9
ENDMDL
MODEL        9
REMARK 921   NORMALIZED FREE ENERGY PREDICTED BY IDOCK:   -6.68 KCAL/MOL
REMARK 922        TOTAL FREE ENERGY PREDICTED BY IDOCK:  -12.33 KCAL/MOL
REMARK 923 INTER-LIGAND FREE ENERGY PREDICTED BY IDOCK:  -11.32 KCAL/MOL
REMARK 924 INTRA-LIGAND FREE ENERGY PREDICTED BY IDOCK:   -1.01 KCAL/MOL
REMARK 927      BINDING AFFINITY PREDICTED BY RF-SCORE:    0.00 PKD
ROOT
HETATM    1  C   UNL     1      -8.977   3.547  70.940  1.00  0.00    -0.161 C  
HETATM    2  C   UNL     1     -10.316   4.255  70.745  1.00  0.00     0.114 C  
ENDROOT
BRANCH   2   3
HETATM    3  C   UNL     1     -10.288   5.319  69.699  1.00  0.00    -0.278 A  
HETATM    4  C   UNL     1     -11.084   6.501  69.719  1.00  0.00    -0.370 A  
HETATM    5  C   UNL     1      -9.876   5.573  67.499  1.00  0.00    -0.144 A  
HETATM    6  N   UNL     1     -11.110   7.311  68.609  1.00  0.00     0.025 NA 
HETATM    7  N   UNL     1      -9.606   4.895  68.629  1.00  0.00    -0.144 NA 
HETATM    8  C   UNL     1     -10.452   6.856  67.471  1.00  0.00    -0.247 A  
BRANCH   4   9
HETATM    9  N   UNL     1     -11.717   6.766  70.919  1.00  0.00    -0.354 NA 
HETATM   10  H   UNL     1     -12.197   5.927  71.245  1.00  0.00     0.000 HD 
BRANCH   9  11
HETATM   11  C   UNL     1     -11.925   7.857  71.876  1.00  0.00    -0.305 C  
HETATM   12  O   UNL     1     -12.418  10.647  71.466  1.00  0.00    -0.377 OA 
HETATM   13  C   UNL     1     -11.219  10.074  70.946  1.00  0.00    -0.341 C  
HETATM   14  C   UNL     1     -13.309   8.453  72.075  1.00  0.00    -0.367 C  
HETATM   15  C   UNL     1     -10.815   8.900  71.808  1.00  0.00    -0.436 C  
HETATM   16  C   UNL     1     -13.532   9.763  71.335  1.00  0.00    -0.322 C  
ENDBRANCH   9  11
ENDBRANCH   4   9
BRANCH   8  17
HETATM   17  N   UNL     1     -10.239   7.705  66.341  1.00  0.00    -0.485 NA 
HETATM   18  H   UNL     1     -10.418   7.284  65.429  1.00  0.00     0.000 HD 
BRANCH  17  19
HETATM   19  C   UNL     1      -9.808   9.065  66.323  1.00  0.00    -0.291 A  
HETATM   20  C   UNL     1      -9.304   9.658  67.479  1.00  0.00    -0.149 A  
HETATM   21  C   UNL     1      -9.227  11.062  67.601  1.00  0.00    -0.151 A  
HETATM   22  C   UNL     1      -9.680  11.941  66.596  1.00  0.00    -0.205 A  
HETATM   23  C   UNL     1     -10.064  11.338  65.377  1.00  0.00    -0.264 A  
HETATM   24  C   UNL     1     -10.076   9.929  65.242  1.00  0.00    -0.227 A  
BRANCH  22  25
HETATM   25  N   UNL     1      -9.823  13.293  66.899  1.00  0.00    -0.241 NA 
HETATM   26  C   UNL     1     -10.134  14.279  65.858  1.00  0.00    -0.326 C  
HETATM   27  C   UNL     1      -9.248  13.850  68.123  1.00  0.00    -0.202 C  
HETATM   28  C   UNL     1     -10.225  14.872  68.706  1.00  0.00    -0.243 C  
HETATM   29  C   UNL     1     -11.108  15.310  66.436  1.00  0.00    -0.273 C  
HETATM   30  C   UNL     1     -10.545  16.013  67.697  1.00  0.00    -0.309 C  
BRANCH  30  31
HETATM   31  N   UNL     1      -9.375  16.891  67.414  1.00  0.00    -0.233 NA 
HETATM   32  C   UNL     1      -9.539  17.728  66.199  1.00  0.00    -0.187 C  
HETATM   33  C   UNL     1     -10.539  18.901  66.354  1.00  0.00    -0.387 C  
HETATM   34  N   UNL     1     -10.250  19.804  67.486  1.00  0.00    -0.411 NA 
HETATM   35  C   UNL     1      -9.097  20.660  67.199  1.00  0.00    -0.267 C  
HETATM   36  C   UNL     1     -10.027  19.001  68.707  1.00  0.00    -0.411 C  
HETATM   37  C   UNL     1      -9.046  17.814  68.530  1.00  0.00    -0.282 C  
ENDBRANCH  30  31
ENDBRANCH  22  25
BRANCH  23  38
HETATM   38  O   UNL     1     -10.391  12.172  64.328  1.00  0.00    -0.294 OA 
HETATM   39  C   UNL     1     -11.641  11.921  63.694  1.00  0.00    -0.464 C  
ENDBRANCH  23  38
ENDBRANCH  17  19
ENDBRANCH   8  17
BRANCH   5  40
HETATM   40  C   UNL     1     -10.021   4.610  66.357  1.00  0.00    -0.245 C  
HETATM   41  H2  UNL     1     -11.231   5.758  65.280  1.00  0.00     0.000 HD 
HETATM   42  N   UNL     1     -11.170   4.796  65.612  1.00  0.00    -0.927 N  
HETATM   43  O   UNL     1      -9.149   3.840  65.986  1.00  0.00    -0.136 OA 
HETATM   44  H1  UNL     1     -11.269   4.141  64.836  1.00  0.00     0.000 HD 
ENDBRANCH   5  40
ENDBRANCH   2   3
TORSDOF 9
ENDMDL
MODEL       10
REMARK 921   NORMALIZED FREE ENERGY PREDICTED BY IDOCK:   -6.67 KCAL/MOL
REMARK 922        TOTAL FREE ENERGY PREDICTED BY IDOCK:  -12.32 KCAL/MOL
REMARK 923 INTER-LIGAND FREE ENERGY PREDICTED BY IDOCK:  -10.72 KCAL/MOL
REMARK 924 INTRA-LIGAND FREE ENERGY PREDICTED BY IDOCK:   -1.60 KCAL/MOL
REMARK 927      BINDING AFFINITY PREDICTED BY RF-SCORE:    0.00 PKD
ROOT
HETATM    1  C   UNL     1      -8.791   3.035  69.791  1.00  0.00    -0.146 C  
HETATM    2  C   UNL     1      -9.816   4.126  70.090  1.00  0.00    -0.242 C  
ENDROOT
BRANCH   2   3
HETATM    3  C   UNL     1      -9.773   5.271  69.135  1.00  0.00    -0.168 A  
HETATM    4  C   UNL     1     -10.810   6.235  68.972  1.00  0.00    -0.337 A  
HETATM    5  C   UNL     1      -8.865   5.840  67.153  1.00  0.00    -0.107 A  
HETATM    6  N   UNL     1     -10.738   7.130  67.931  1.00  0.00    -0.210 NA 
HETATM    7  N   UNL     1      -8.748   5.126  68.287  1.00  0.00    -0.102 NA 
HETATM    8  C   UNL     1      -9.709   6.956  67.011  1.00  0.00    -0.163 A  
BRANCH   4   9
HETATM    9  N   UNL     1     -11.785   6.224  69.952  1.00  0.00    -0.438 NA 
HETATM   10  H   UNL     1     -12.553   5.618  69.664  1.00  0.00     0.000 HD 
BRANCH   9  11
HETATM   11  C   UNL     1     -12.076   6.798  71.270  1.00  0.00    -0.370 C  
HETATM   12  O   UNL     1     -12.136   9.516  72.164  1.00  0.00    -0.313 OA 
HETATM   13  C   UNL     1     -10.925   8.996  71.617  1.00  0.00    -0.365 C  
HETATM   14  C   UNL     1     -13.390   7.518  71.522  1.00  0.00    -0.409 C  
HETATM   15  C   UNL     1     -10.866   7.507  71.868  1.00  0.00    -0.264 C  
HETATM   16  C   UNL     1     -13.285   9.035  71.468  1.00  0.00    -0.334 C  
ENDBRANCH   9  11
ENDBRANCH   4   9
BRANCH   8  17
HETATM   17  N   UNL     1      -9.418   7.944  66.019  1.00  0.00    -0.410 NA 
HETATM   18  H   UNL     1      -8.816   7.642  65.254  1.00  0.00     0.000 HD 
BRANCH  17  19
HETATM   19  C   UNL     1      -9.861   9.300  65.962  1.00  0.00    -0.293 A  
HETATM   20  C   UNL     1      -9.120  10.252  65.265  1.00  0.00    -0.228 A  
HETATM   21  C   UNL     1      -9.311  11.632  65.496  1.00  0.00    -0.172 A  
HETATM   22  C   UNL     1     -10.219  12.126  66.454  1.00  0.00    -0.220 A  
HETATM   23  C   UNL     1     -11.060  11.166  67.060  1.00  0.00    -0.273 A  
HETATM   24  C   UNL     1     -10.904   9.789  66.773  1.00  0.00    -0.071 A  
BRANCH  22  25
HETATM   25  N   UNL     1     -10.153  13.471  66.812  1.00  0.00    -0.262 NA 
HETATM   26  C   UNL     1     -11.067  14.461  66.232  1.00  0.00    -0.331 C  
HETATM   27  C   UNL     1      -8.938  14.028  67.406  1.00  0.00    -0.206 C  
HETATM   28  C   UNL     1      -9.333  15.018  68.502  1.00  0.00    -0.196 C  
HETATM   29  C   UNL     1     -11.464  15.460  67.323  1.00  0.00    -0.166 C  
HETATM   30  C   UNL     1     -10.236  16.162  67.956  1.00  0.00    -0.252 C  
BRANCH  30  31
HETATM   31  N   UNL     1      -9.523  17.073  67.016  1.00  0.00    -0.243 NA 
HETATM   32  C   UNL     1     -10.388  18.138  66.450  1.00  0.00    -0.394 C  
HETATM   33  C   UNL     1     -10.766  19.261  67.448  1.00  0.00    -0.486 C  
HETATM   34  N   UNL     1      -9.610  19.916  68.095  1.00  0.00    -0.363 NA 
HETATM   35  C   UNL     1      -8.916  20.806  67.162  1.00  0.00    -0.145 C  
HETATM   36  C   UNL     1      -8.697  18.883  68.625  1.00  0.00    -0.339 C  
HETATM   37  C   UNL     1      -8.350  17.750  67.625  1.00  0.00    -0.228 C  
ENDBRANCH  30  31
ENDBRANCH  22  25
BRANCH  23  38
HETATM   38  O   UNL     1     -12.047  11.626  67.907  1.00  0.00    -0.613 OA 
HETATM   39  C   UNL     1     -11.760  11.560  69.299  1.00  0.00    -0.330 C  
ENDBRANCH  23  38
ENDBRANCH  17  19
ENDBRANCH   8  17
BRANCH   5  40
HETATM   40  C   UNL     1      -8.460   4.993  65.981  1.00  0.00    -0.116 C  
HETATM   41  H2  UNL     1      -9.505   6.008  64.631  1.00  0.00     0.000 HD 
HETATM   42  N   UNL     1      -9.348   5.043  64.923  1.00  0.00    -0.344 N  
HETATM   43  O   UNL     1      -7.377   4.440  65.869  1.00  0.00    -0.074 OA 
HETATM   44  H1  UNL     1      -9.073   4.468  64.127  1.00  0.00     0.000 HD 
ENDBRANCH   5  40
ENDBRANCH   2   3
TORSDOF 9
ENDMDL
MODEL       11
REMARK 921   NORMALIZED FREE ENERGY PREDICTED BY IDOCK:   -6.67 KCAL/MOL
REMARK 922        TOTAL FREE ENERGY PREDICTED BY IDOCK:  -12.31 KCAL/MOL
REMARK 923 INTER-LIGAND FREE ENERGY PREDICTED BY IDOCK:  -11.23 KCAL/MOL
REMARK 924 INTRA-LIGAND FREE ENERGY PREDICTED BY IDOCK:   -1.08 KCAL/MOL
REMARK 927      BINDING AFFINITY PREDICTED BY RF-SCORE:    0.00 PKD
ROOT
HETATM    1  C   UNL     1      -8.579   6.918  69.918  1.00  0.00    -0.141 C  
HETATM    2  C   UNL     1      -8.347   8.400  70.202  1.00  0.00    -0.120 C  
ENDROOT
BRANCH   2   3
HETATM    3  C   UNL     1      -9.273   9.307  69.464  1.00  0.00    -0.165 A  
HETATM    4  C   UNL     1     -10.523   9.775  69.964  1.00  0.00    -0.270 A  
HETATM    5  C   UNL     1      -9.859   9.843  67.355  1.00  0.00    -0.179 A  
HETATM    6  N   UNL     1     -11.373  10.450  69.120  1.00  0.00    -0.240 NA 
HETATM    7  N   UNL     1      -8.890   9.419  68.187  1.00  0.00    -0.125 NA 
HETATM    8  C   UNL     1     -11.014  10.525  67.779  1.00  0.00    -0.313 A  
BRANCH   4   9
HETATM    9  N   UNL     1     -10.737   9.561  71.312  1.00  0.00    -0.343 NA 
HETATM   10  H   UNL     1     -10.113  10.157  71.857  1.00  0.00     0.000 HD 
BRANCH   9  11
HETATM   11  C   UNL     1     -11.568   8.760  72.217  1.00  0.00    -0.321 C  
HETATM   12  O   UNL     1     -14.049   7.401  71.780  1.00  0.00    -0.395 OA 
HETATM   13  C   UNL     1     -13.988   8.811  71.570  1.00  0.00    -0.334 C  
HETATM   14  C   UNL     1     -11.626   7.248  72.071  1.00  0.00    -0.311 C  
HETATM   15  C   UNL     1     -12.927   9.402  72.470  1.00  0.00    -0.345 C  
HETATM   16  C   UNL     1     -12.861   6.744  71.339  1.00  0.00    -0.229 C  
ENDBRANCH   9  11
ENDBRANCH   4   9
BRANCH   8  17
HETATM   17  N   UNL     1     -11.711  11.375  66.864  1.00  0.00    -0.467 NA 
HETATM   18  H   UNL     1     -12.402  10.917  66.270  1.00  0.00     0.000 HD 
BRANCH  17  19
HETATM   19  C   UNL     1     -11.564  12.782  66.675  1.00  0.00    -0.370 A  
HETATM   20  C   UNL     1     -10.788  13.272  65.626  1.00  0.00    -0.291 A  
HETATM   21  C   UNL     1     -10.319  14.604  65.631  1.00  0.00    -0.370 A  
HETATM   22  C   UNL     1     -10.570  15.497  66.694  1.00  0.00    -0.307 A  
HETATM   23  C   UNL     1     -11.465  15.039  67.686  1.00  0.00    -0.333 A  
HETATM   24  C   UNL     1     -11.982  13.722  67.638  1.00  0.00    -0.392 A  
BRANCH  22  25
HETATM   25  N   UNL     1      -9.853  16.690  66.753  1.00  0.00    -0.261 NA 
HETATM   26  C   UNL     1      -8.455  16.719  67.195  1.00  0.00    -0.186 C  
HETATM   27  C   UNL     1     -10.546  17.976  66.818  1.00  0.00    -0.270 C  
HETATM   28  C   UNL     1      -9.790  18.988  65.955  1.00  0.00    -0.271 C  
HETATM   29  C   UNL     1      -7.691  17.733  66.338  1.00  0.00    -0.318 C  
HETATM   30  C   UNL     1      -8.312  19.152  66.411  1.00  0.00    -0.318 C  
BRANCH  30  31
HETATM   31  N   UNL     1      -8.178  19.790  67.751  1.00  0.00    -0.300 NA 
HETATM   32  C   UNL     1      -7.267  19.062  68.670  1.00  0.00    -0.316 C  
HETATM   33  C   UNL     1      -5.763  19.191  68.321  1.00  0.00    -0.201 C  
HETATM   34  N   UNL     1      -5.279  20.583  68.216  1.00  0.00    -0.217 NA 
HETATM   35  C   UNL     1      -5.154  21.201  69.539  1.00  0.00    -0.291 C  
HETATM   36  C   UNL     1      -6.194  21.354  67.351  1.00  0.00    -0.324 C  
HETATM   37  C   UNL     1      -7.697  21.194  67.692  1.00  0.00     0.109 C  
ENDBRANCH  30  31
ENDBRANCH  22  25
BRANCH  23  38
HETATM   38  O   UNL     1     -11.834  15.929  68.673  1.00  0.00    -0.388 OA 
HETATM   39  C   UNL     1     -11.687  15.475  70.014  1.00  0.00    -0.346 C  
ENDBRANCH  23  38
ENDBRANCH  17  19
ENDBRANCH   8  17
BRANCH   5  40
HETATM   40  C   UNL     1      -9.831   9.030  66.094  1.00  0.00    -0.278 C  
HETATM   41  H2  UNL     1     -11.073   7.621  66.738  1.00  0.00     0.000 HD 
HETATM   42  N   UNL     1     -10.166   7.702  66.279  1.00  0.00    -0.445 N  
HETATM   43  O   UNL     1      -9.700   9.495  64.973  1.00  0.00    -0.248 OA 
HETATM   44  H1  UNL     1     -10.147   7.149  65.422  1.00  0.00     0.000 HD 
ENDBRANCH   5  40
ENDBRANCH   2   3
TORSDOF 9
ENDMDL
MODEL       12
REMARK 921   NORMALIZED FREE ENERGY PREDICTED BY IDOCK:   -6.63 KCAL/MOL
REMARK 922        TOTAL FREE ENERGY PREDICTED BY IDOCK:  -12.26 KCAL/MOL
REMARK 923 INTER-LIGAND FREE ENERGY PREDICTED BY IDOCK:  -10.81 KCAL/MOL
REMARK 924 INTRA-LIGAND FREE ENERGY PREDICTED BY IDOCK:   -1.45 KCAL/MOL
REMARK 927      BINDING AFFINITY PREDICTED BY RF-SCORE:    0.00 PKD
ROOT
HETATM    1  C   UNL     1      -9.183   3.188  68.590  1.00  0.00    -0.228 C  
HETATM    2  C   UNL     1      -9.646   4.413  69.374  1.00  0.00    -0.269 C  
ENDROOT
BRANCH   2   3
HETATM    3  C   UNL     1      -9.746   5.653  68.550  1.00  0.00    -0.136 A  
HETATM    4  C   UNL     1     -10.840   6.566  68.583  1.00  0.00    -0.295 A  
HETATM    5  C   UNL     1      -9.052   6.479  66.572  1.00  0.00    -0.152 A  
HETATM    6  N   UNL     1     -10.907   7.568  67.644  1.00  0.00    -0.175 NA 
HETATM    7  N   UNL     1      -8.797   5.658  67.607  1.00  0.00    -0.107 NA 
HETATM    8  C   UNL     1      -9.959   7.552  66.626  1.00  0.00    -0.200 A  
BRANCH   4   9
HETATM    9  N   UNL     1     -11.720   6.396  69.635  1.00  0.00    -0.587 NA 
HETATM   10  H   UNL     1     -12.484   5.785  69.347  1.00  0.00     0.000 HD 
BRANCH   9  11
HETATM   11  C   UNL     1     -11.914   6.805  71.030  1.00  0.00    -0.379 C  
HETATM   12  O   UNL     1     -12.273   9.394  72.196  1.00  0.00    -0.343 OA 
HETATM   13  C   UNL     1     -11.081   9.129  71.456  1.00  0.00    -0.365 C  
HETATM   14  C   UNL     1     -13.277   7.272  71.512  1.00  0.00    -0.434 C  
HETATM   15  C   UNL     1     -10.759   7.655  71.546  1.00  0.00    -0.249 C  
HETATM   16  C   UNL     1     -13.417   8.785  71.599  1.00  0.00    -0.369 C  
ENDBRANCH   9  11
ENDBRANCH   4   9
BRANCH   8  17
HETATM   17  N   UNL     1      -9.808   8.655  65.727  1.00  0.00    -0.447 NA 
HETATM   18  H   UNL     1      -9.365   8.442  64.834  1.00  0.00     0.000 HD 
BRANCH  17  19
HETATM   19  C   UNL     1     -10.197  10.014  65.920  1.00  0.00    -0.205 A  
HETATM   20  C   UNL     1     -10.090  10.930  64.874  1.00  0.00    -0.374 A  
HETATM   21  C   UNL     1     -10.101  12.319  65.123  1.00  0.00    -0.284 A  
HETATM   22  C   UNL     1     -10.183  12.861  66.422  1.00  0.00    -0.267 A  
HETATM   23  C   UNL     1     -10.424  11.936  67.462  1.00  0.00    -0.209 A  
HETATM   24  C   UNL     1     -10.477  10.548  67.193  1.00  0.00    -0.302 A  
BRANCH  22  25
HETATM   25  N   UNL     1      -9.914  14.216  66.603  1.00  0.00    -0.269 NA 
HETATM   26  C   UNL     1     -10.812  15.249  66.075  1.00  0.00    -0.330 C  
HETATM   27  C   UNL     1      -8.561  14.676  66.910  1.00  0.00    -0.204 C  
HETATM   28  C   UNL     1      -8.645  15.809  67.934  1.00  0.00    -0.160 C  
HETATM   29  C   UNL     1     -10.899  16.390  67.092  1.00  0.00    -0.169 C  
HETATM   30  C   UNL     1      -9.510  16.996  67.420  1.00  0.00    -0.242 C  
BRANCH  30  31
HETATM   31  N   UNL     1      -8.892  17.718  66.271  1.00  0.00    -0.446 NA 
HETATM   32  C   UNL     1      -9.363  19.118  66.125  1.00  0.00    -0.239 C  
HETATM   33  C   UNL     1      -8.817  20.096  67.195  1.00  0.00    -0.353 C  
HETATM   34  N   UNL     1      -7.344  20.126  67.299  1.00  0.00    -0.262 NA 
HETATM   35  C   UNL     1      -6.747  20.834  66.165  1.00  0.00    -0.180 C  
HETATM   36  C   UNL     1      -6.833  18.743  67.393  1.00  0.00    -0.204 C  
HETATM   37  C   UNL     1      -7.409  17.767  66.334  1.00  0.00    -0.275 C  
ENDBRANCH  30  31
ENDBRANCH  22  25
BRANCH  23  38
HETATM   38  O   UNL     1     -10.637  12.441  68.728  1.00  0.00    -0.227 OA 
HETATM   39  C   UNL     1     -11.862  12.072  69.352  1.00  0.00    -0.324 C  
ENDBRANCH  23  38
ENDBRANCH  17  19
ENDBRANCH   8  17
BRANCH   5  40
HETATM   40  C   UNL     1      -8.714   5.785  65.285  1.00  0.00    -0.096 C  
HETATM   41  H2  UNL     1      -7.503   7.204  64.605  1.00  0.00     0.000 HD 
HETATM   42  N   UNL     1      -8.289   6.639  64.284  1.00  0.00    -0.333 N  
HETATM   43  O   UNL     1      -8.642   4.574  65.150  1.00  0.00    -0.121 OA 
HETATM   44  H1  UNL     1      -8.059   6.167  63.409  1.00  0.00     0.000 HD 
ENDBRANCH   5  40
ENDBRANCH   2   3
TORSDOF 9
ENDMDL
MODEL       13
REMARK 921   NORMALIZED FREE ENERGY PREDICTED BY IDOCK:   -6.62 KCAL/MOL
REMARK 922        TOTAL FREE ENERGY PREDICTED BY IDOCK:  -12.24 KCAL/MOL
REMARK 923 INTER-LIGAND FREE ENERGY PREDICTED BY IDOCK:  -10.50 KCAL/MOL
REMARK 924 INTRA-LIGAND FREE ENERGY PREDICTED BY IDOCK:   -1.73 KCAL/MOL
REMARK 927      BINDING AFFINITY PREDICTED BY RF-SCORE:    0.00 PKD
ROOT
HETATM    1  C   UNL     1      -9.671   4.082  70.253  1.00  0.00    -0.263 C  
HETATM    2  C   UNL     1      -9.506   5.036  69.073  1.00  0.00    -0.194 C  
ENDROOT
BRANCH   2   3
HETATM    3  C   UNL     1     -10.211   6.340  69.249  1.00  0.00    -0.193 A  
HETATM    4  C   UNL     1      -9.736   7.593  68.764  1.00  0.00    -0.153 A  
HETATM    5  C   UNL     1     -11.620   7.368  70.675  1.00  0.00    -0.268 A  
HETATM    6  N   UNL     1     -10.374   8.747  69.152  1.00  0.00    -0.215 NA 
HETATM    7  N   UNL     1     -11.210   6.208  70.129  1.00  0.00    -0.378 NA 
HETATM    8  C   UNL     1     -11.378   8.632  70.108  1.00  0.00    -0.078 A  
BRANCH   4   9
HETATM    9  N   UNL     1      -8.690   7.520  67.864  1.00  0.00    -0.124 NA 
HETATM   10  H   UNL     1      -8.124   6.695  68.063  1.00  0.00     0.000 HD 
BRANCH   9  11
HETATM   11  C   UNL     1      -8.127   8.240  66.717  1.00  0.00    -0.103 C  
HETATM   12  O   UNL     1      -8.475  10.942  65.841  1.00  0.00    -0.162 OA 
HETATM   13  C   UNL     1      -9.621  10.097  65.945  1.00  0.00    -0.218 C  
HETATM   14  C   UNL     1      -7.041   9.283  66.921  1.00  0.00    -0.082 C  
HETATM   15  C   UNL     1      -9.201   8.663  65.721  1.00  0.00    -0.245 C  
HETATM   16  C   UNL     1      -7.549  10.717  66.903  1.00  0.00    -0.123 C  
ENDBRANCH   9  11
ENDBRANCH   4   9
BRANCH   8  17
HETATM   17  N   UNL     1     -12.241   9.728  70.423  1.00  0.00    -0.470 NA 
HETATM   18  H   UNL     1     -12.998   9.524  71.075  1.00  0.00     0.000 HD 
BRANCH  17  19
HETATM   19  C   UNL     1     -12.179  11.070  69.943  1.00  0.00    -0.336 A  
HETATM   20  C   UNL     1     -11.722  11.335  68.653  1.00  0.00    -0.391 A  
HETATM   21  C   UNL     1     -11.297  12.630  68.286  1.00  0.00    -0.337 A  
HETATM   22  C   UNL     1     -11.273  13.711  69.191  1.00  0.00    -0.261 A  
HETATM   23  C   UNL     1     -11.860  13.471  70.453  1.00  0.00    -0.220 A  
HETATM   24  C   UNL     1     -12.343  12.184  70.790  1.00  0.00    -0.391 A  
BRANCH  22  25
HETATM   25  N   UNL     1     -10.591  14.872  68.834  1.00  0.00    -0.239 NA 
HETATM   26  C   UNL     1     -11.288  16.006  68.217  1.00  0.00    -0.326 C  
HETATM   27  C   UNL     1      -9.142  14.858  68.636  1.00  0.00    -0.185 C  
HETATM   28  C   UNL     1      -8.554  16.151  69.204  1.00  0.00    -0.235 C  
HETATM   29  C   UNL     1     -10.702  17.305  68.778  1.00  0.00    -0.247 C  
HETATM   30  C   UNL     1      -9.174  17.414  68.540  1.00  0.00    -0.277 C  
BRANCH  30  31
HETATM   31  N   UNL     1      -8.806  17.561  67.103  1.00  0.00    -0.233 NA 
HETATM   32  C   UNL     1      -9.329  18.802  66.479  1.00  0.00    -0.336 C  
HETATM   33  C   UNL     1      -8.611  20.100  66.925  1.00  0.00    -0.324 C  
HETATM   34  N   UNL     1      -7.147  20.084  66.733  1.00  0.00    -0.226 NA 
HETATM   35  C   UNL     1      -6.797  20.227  65.318  1.00  0.00    -0.283 C  
HETATM   36  C   UNL     1      -6.595  18.835  67.296  1.00  0.00    -0.200 C  
HETATM   37  C   UNL     1      -7.340  17.545  66.865  1.00  0.00    -0.205 C  
ENDBRANCH  30  31
ENDBRANCH  22  25
BRANCH  23  38
HETATM   38  O   UNL     1     -11.970  14.539  71.319  1.00  0.00    -0.338 OA 
HETATM   39  C   UNL     1     -13.229  15.203  71.339  1.00  0.00    -0.449 C  
ENDBRANCH  23  38
ENDBRANCH  17  19
ENDBRANCH   8  17
BRANCH   5  40
HETATM   40  C   UNL     1     -11.830   7.183  72.150  1.00  0.00    -0.277 C  
HETATM   41  H2  UNL     1     -12.082   5.215  72.069  1.00  0.00     0.000 HD 
HETATM   42  N   UNL     1     -12.530   6.036  72.475  1.00  0.00    -0.513 N  
HETATM   43  O   UNL     1     -11.299   7.862  73.014  1.00  0.00    -0.408 OA 
HETATM   44  H1  UNL     1     -12.672   5.910  73.477  1.00  0.00     0.000 HD 
ENDBRANCH   5  40
ENDBRANCH   2   3
TORSDOF 9
ENDMDL
MODEL       14
REMARK 921   NORMALIZED FREE ENERGY PREDICTED BY IDOCK:   -6.61 KCAL/MOL
REMARK 922        TOTAL FREE ENERGY PREDICTED BY IDOCK:  -12.23 KCAL/MOL
REMARK 923 INTER-LIGAND FREE ENERGY PREDICTED BY IDOCK:  -10.29 KCAL/MOL
REMARK 924 INTRA-LIGAND FREE ENERGY PREDICTED BY IDOCK:   -1.94 KCAL/MOL
REMARK 927      BINDING AFFINITY PREDICTED BY RF-SCORE:    0.00 PKD
ROOT
HETATM    1  C   UNL     1      -7.650   7.922  73.238  1.00  0.00    -0.169 C  
HETATM    2  C   UNL     1      -9.176   7.928  73.309  1.00  0.00    -0.346 C  
ENDROOT
BRANCH   2   3
HETATM    3  C   UNL     1      -9.838   8.225  72.006  1.00  0.00    -0.257 A  
HETATM    4  C   UNL     1     -10.793   7.381  71.367  1.00  0.00    -0.229 A  
HETATM    5  C   UNL     1      -9.457   9.335  70.083  1.00  0.00    -0.226 A  
HETATM    6  N   UNL     1     -11.189   7.669  70.083  1.00  0.00    -0.226 NA 
HETATM    7  N   UNL     1      -9.235   9.259  71.408  1.00  0.00    -0.296 NA 
HETATM    8  C   UNL     1     -10.532   8.706  69.429  1.00  0.00    -0.218 A  
BRANCH   4   9
HETATM    9  N   UNL     1     -11.298   6.362  72.152  1.00  0.00    -0.276 NA 
HETATM   10  H   UNL     1     -12.144   6.681  72.624  1.00  0.00     0.000 HD 
BRANCH   9  11
HETATM   11  C   UNL     1     -11.017   4.973  72.527  1.00  0.00    -0.177 C  
HETATM   12  O   UNL     1      -8.614   3.727  73.458  1.00  0.00    -0.086 OA 
HETATM   13  C   UNL     1      -8.609   4.372  72.184  1.00  0.00    -0.113 C  
HETATM   14  C   UNL     1     -10.839   4.591  73.987  1.00  0.00    -0.316 C  
HETATM   15  C   UNL     1     -10.001   4.320  71.597  1.00  0.00    -0.250 C  
HETATM   16  C   UNL     1      -9.387   4.448  74.417  1.00  0.00    -0.110 C  
ENDBRANCH   9  11
ENDBRANCH   4   9
BRANCH   8  17
HETATM   17  N   UNL     1     -11.003   9.222  68.182  1.00  0.00    -0.486 NA 
HETATM   18  H   UNL     1     -11.336   8.529  67.511  1.00  0.00     0.000 HD 
BRANCH  17  19
HETATM   19  C   UNL     1     -11.070  10.582  67.754  1.00  0.00    -0.317 A  
HETATM   20  C   UNL     1     -10.203  11.051  66.769  1.00  0.00    -0.272 A  
HETATM   21  C   UNL     1      -9.983  12.435  66.595  1.00  0.00    -0.236 A  
HETATM   22  C   UNL     1     -10.586  13.412  67.414  1.00  0.00    -0.251 A  
HETATM   23  C   UNL     1     -11.561  12.941  68.320  1.00  0.00    -0.335 A  
HETATM   24  C   UNL     1     -11.822  11.555  68.442  1.00  0.00    -0.353 A  
BRANCH  22  25
HETATM   25  N   UNL     1     -10.112  14.721  67.358  1.00  0.00    -0.231 NA 
HETATM   26  C   UNL     1      -9.746  15.345  66.083  1.00  0.00    -0.318 C  
HETATM   27  C   UNL     1      -9.544  15.362  68.543  1.00  0.00    -0.201 C  
HETATM   28  C   UNL     1      -9.994  16.824  68.577  1.00  0.00    -0.271 C  
HETATM   29  C   UNL     1     -10.189  16.811  66.109  1.00  0.00    -0.363 C  
HETATM   30  C   UNL     1      -9.567  17.594  67.294  1.00  0.00    -0.271 C  
BRANCH  30  31
HETATM   31  N   UNL     1      -8.092  17.771  67.180  1.00  0.00    -0.210 NA 
HETATM   32  C   UNL     1      -7.687  18.719  66.112  1.00  0.00    -0.247 C  
HETATM   33  C   UNL     1      -7.965  20.208  66.433  1.00  0.00    -0.260 C  
HETATM   34  N   UNL     1      -7.373  20.680  67.701  1.00  0.00    -0.308 NA 
HETATM   35  C   UNL     1      -5.923  20.847  67.578  1.00  0.00    -0.279 C  
HETATM   36  C   UNL     1      -7.711  19.730  68.781  1.00  0.00    -0.238 C  
HETATM   37  C   UNL     1      -7.454  18.240  68.436  1.00  0.00    -0.281 C  
ENDBRANCH  30  31
ENDBRANCH  22  25
BRANCH  23  38
HETATM   38  O   UNL     1     -12.263  13.879  69.048  1.00  0.00    -0.350 OA 
HETATM   39  C   UNL     1     -12.299  13.682  70.457  1.00  0.00    -0.355 C  
ENDBRANCH  23  38
ENDBRANCH  17  19
ENDBRANCH   8  17
BRANCH   5  40
HETATM   40  C   UNL     1      -8.173   9.658  69.376  1.00  0.00    -0.132 C  
HETATM   41  H2  UNL     1      -7.274  10.461  70.954  1.00  0.00     0.000 HD 
HETATM   42  N   UNL     1      -7.448  10.673  69.971  1.00  0.00    -0.336 N  
HETATM   43  O   UNL     1      -7.698   8.996  68.467  1.00  0.00    -0.095 OA 
HETATM   44  H1  UNL     1      -6.575  10.892  69.492  1.00  0.00     0.000 HD 
ENDBRANCH   5  40
ENDBRANCH   2   3
TORSDOF 9
ENDMDL
MODEL       15
REMARK 921   NORMALIZED FREE ENERGY PREDICTED BY IDOCK:   -6.60 KCAL/MOL
REMARK 922        TOTAL FREE ENERGY PREDICTED BY IDOCK:  -12.21 KCAL/MOL
REMARK 923 INTER-LIGAND FREE ENERGY PREDICTED BY IDOCK:  -10.27 KCAL/MOL
REMARK 924 INTRA-LIGAND FREE ENERGY PREDICTED BY IDOCK:   -1.94 KCAL/MOL
REMARK 927      BINDING AFFINITY PREDICTED BY RF-SCORE:    0.00 PKD
ROOT
HETATM    1  C   UNL     1      -9.250   2.068  68.821  1.00  0.00    -0.218 C  
HETATM    2  C   UNL     1      -8.622   3.292  69.483  1.00  0.00    -0.112 C  
ENDROOT
BRANCH   2   3
HETATM    3  C   UNL     1      -8.594   4.502  68.611  1.00  0.00    -0.089 A  
HETATM    4  C   UNL     1      -8.778   5.839  69.068  1.00  0.00    -0.112 A  
HETATM    5  C   UNL     1      -9.024   5.116  66.486  1.00  0.00    -0.118 A  
HETATM    6  N   UNL     1      -8.920   6.849  68.147  1.00  0.00    -0.124 NA 
HETATM    7  N   UNL     1      -8.620   4.141  67.322  1.00  0.00    -0.100 NA 
HETATM    8  C   UNL     1      -9.005   6.485  66.807  1.00  0.00    -0.131 A  
BRANCH   4   9
HETATM    9  N   UNL     1      -8.722   6.008  70.438  1.00  0.00    -0.142 NA 
HETATM   10  H   UNL     1      -7.752   5.964  70.750  1.00  0.00     0.000 HD 
BRANCH   9  11
HETATM   11  C   UNL     1      -9.601   6.229  71.591  1.00  0.00    -0.154 C  
HETATM   12  O   UNL     1     -11.489   8.309  72.143  1.00  0.00    -0.309 OA 
HETATM   13  C   UNL     1     -10.121   8.657  71.928  1.00  0.00    -0.328 C  
HETATM   14  C   UNL     1     -11.097   5.989  71.476  1.00  0.00    -0.336 C  
HETATM   15  C   UNL     1      -9.243   7.502  72.351  1.00  0.00    -0.188 C  
HETATM   16  C   UNL     1     -11.914   7.257  71.276  1.00  0.00    -0.324 C  
ENDBRANCH   9  11
ENDBRANCH   4   9
BRANCH   8  17
HETATM   17  N   UNL     1      -8.942   7.458  65.761  1.00  0.00    -0.354 NA 
HETATM   18  H   UNL     1      -8.403   7.190  64.938  1.00  0.00     0.000 HD 
BRANCH  17  19
HETATM   19  C   UNL     1      -9.535   8.755  65.721  1.00  0.00    -0.169 A  
HETATM   20  C   UNL     1      -8.990   9.751  64.912  1.00  0.00    -0.257 A  
HETATM   21  C   UNL     1      -9.303  11.111  65.126  1.00  0.00    -0.237 A  
HETATM   22  C   UNL     1     -10.141  11.545  66.173  1.00  0.00    -0.229 A  
HETATM   23  C   UNL     1     -10.794  10.527  66.903  1.00  0.00    -0.187 A  
HETATM   24  C   UNL     1     -10.523   9.164  66.638  1.00  0.00    -0.237 A  
BRANCH  22  25
HETATM   25  N   UNL     1     -10.182  12.903  66.483  1.00  0.00    -0.254 NA 
HETATM   26  C   UNL     1     -10.973  13.844  65.684  1.00  0.00    -0.290 C  
HETATM   27  C   UNL     1      -9.131  13.516  67.296  1.00  0.00    -0.225 C  
HETATM   28  C   UNL     1      -9.771  14.532  68.244  1.00  0.00    -0.218 C  
HETATM   29  C   UNL     1     -11.614  14.868  66.626  1.00  0.00    -0.265 C  
HETATM   30  C   UNL     1     -10.563  15.628  67.475  1.00  0.00    -0.297 C  
BRANCH  30  31
HETATM   31  N   UNL     1      -9.688  16.527  66.670  1.00  0.00    -0.247 NA 
HETATM   32  C   UNL     1     -10.399  17.703  66.108  1.00  0.00    -0.334 C  
HETATM   33  C   UNL     1     -10.769  18.790  67.148  1.00  0.00    -0.403 C  
HETATM   34  N   UNL     1      -9.627  19.291  67.940  1.00  0.00    -0.319 NA 
HETATM   35  C   UNL     1      -8.773  20.170  67.139  1.00  0.00    -0.344 C  
HETATM   36  C   UNL     1      -8.862  18.144  68.473  1.00  0.00    -0.299 C  
HETATM   37  C   UNL     1      -8.523  17.051  67.427  1.00  0.00    -0.196 C  
ENDBRANCH  30  31
ENDBRANCH  22  25
BRANCH  23  38
HETATM   38  O   UNL     1     -11.719  10.914  67.851  1.00  0.00    -0.557 OA 
HETATM   39  C   UNL     1     -11.339  10.730  69.210  1.00  0.00    -0.286 C  
ENDBRANCH  23  38
ENDBRANCH  17  19
ENDBRANCH   8  17
BRANCH   5  40
HETATM   40  C   UNL     1      -9.978   4.547  65.476  1.00  0.00    -0.215 C  
HETATM   41  H2  UNL     1     -11.367   5.947  65.704  1.00  0.00     0.000 HD 
HETATM   42  N   UNL     1     -11.291   4.931  65.671  1.00  0.00    -0.911 N  
HETATM   43  O   UNL     1      -9.641   3.945  64.469  1.00  0.00    -0.152 OA 
HETATM   44  H1  UNL     1     -11.940   4.545  64.984  1.00  0.00     0.000 HD 
ENDBRANCH   5  40
ENDBRANCH   2   3
TORSDOF 9
ENDMDL
MODEL       16
REMARK 921   NORMALIZED FREE ENERGY PREDICTED BY IDOCK:   -6.57 KCAL/MOL
REMARK 922        TOTAL FREE ENERGY PREDICTED BY IDOCK:  -12.16 KCAL/MOL
REMARK 923 INTER-LIGAND FREE ENERGY PREDICTED BY IDOCK:  -10.93 KCAL/MOL
REMARK 924 INTRA-LIGAND FREE ENERGY PREDICTED BY IDOCK:   -1.23 KCAL/MOL
REMARK 927      BINDING AFFINITY PREDICTED BY RF-SCORE:    0.00 PKD
ROOT
HETATM    1  C   UNL     1      -9.264   2.052  69.531  1.00  0.00    -0.176 C  
HETATM    2  C   UNL     1      -9.456   3.297  70.394  1.00  0.00    -0.235 C  
ENDROOT
BRANCH   2   3
HETATM    3  C   UNL     1      -9.850   4.511  69.621  1.00  0.00    -0.218 A  
HETATM    4  C   UNL     1     -10.836   5.455  70.033  1.00  0.00    -0.137 A  
HETATM    5  C   UNL     1      -9.959   5.251  67.495  1.00  0.00    -0.171 A  
HETATM    6  N   UNL     1     -11.246   6.425  69.151  1.00  0.00    -0.366 NA 
HETATM    7  N   UNL     1      -9.336   4.458  68.387  1.00  0.00    -0.138 NA 
HETATM    8  C   UNL     1     -10.763   6.350  67.849  1.00  0.00    -0.299 A  
BRANCH   4   9
HETATM    9  N   UNL     1     -11.246   5.343  71.348  1.00  0.00    -0.014 NA 
HETATM   10  H   UNL     1     -11.638   4.415  71.507  1.00  0.00     0.000 HD 
BRANCH   9  11
HETATM   11  C   UNL     1     -11.301   6.122  72.589  1.00  0.00    -0.259 C  
HETATM   12  O   UNL     1      -9.214   7.172  74.243  1.00  0.00    -0.220 OA 
HETATM   13  C   UNL     1      -9.274   5.764  74.018  1.00  0.00    -0.127 C  
HETATM   14  C   UNL     1     -10.959   7.602  72.585  1.00  0.00    -0.405 C  
HETATM   15  C   UNL     1     -10.710   5.362  73.771  1.00  0.00    -0.324 C  
HETATM   16  C   UNL     1      -9.552   7.914  73.071  1.00  0.00    -0.276 C  
ENDBRANCH   9  11
ENDBRANCH   4   9
BRANCH   8  17
HETATM   17  N   UNL     1     -10.955   7.417  66.916  1.00  0.00    -0.572 NA 
HETATM   18  H   UNL     1     -11.560   7.209  66.122  1.00  0.00     0.000 HD 
BRANCH  17  19
HETATM   19  C   UNL     1     -10.409   8.735  66.953  1.00  0.00    -0.274 A  
HETATM   20  C   UNL     1     -10.438   9.474  68.135  1.00  0.00    -0.268 A  
HETATM   21  C   UNL     1     -10.263  10.875  68.119  1.00  0.00    -0.197 A  
HETATM   22  C   UNL     1     -10.088  11.608  66.928  1.00  0.00    -0.211 A  
HETATM   23  C   UNL     1      -9.928  10.844  65.751  1.00  0.00    -0.247 A  
HETATM   24  C   UNL     1     -10.040   9.433  65.787  1.00  0.00    -0.166 A  
BRANCH  22  25
HETATM   25  N   UNL     1     -10.196  12.996  66.971  1.00  0.00    -0.243 NA 
HETATM   26  C   UNL     1      -9.198  13.859  66.331  1.00  0.00    -0.152 C  
HETATM   27  C   UNL     1     -11.012  13.652  67.993  1.00  0.00    -0.250 C  
HETATM   28  C   UNL     1     -11.739  14.838  67.357  1.00  0.00    -0.371 C  
HETATM   29  C   UNL     1      -9.917  15.053  65.696  1.00  0.00    -0.387 C  
HETATM   30  C   UNL     1     -10.748  15.859  66.727  1.00  0.00    -0.281 C  
BRANCH  30  31
HETATM   31  N   UNL     1      -9.913  16.566  67.739  1.00  0.00    -0.248 NA 
HETATM   32  C   UNL     1      -8.609  17.039  67.209  1.00  0.00    -0.195 C  
HETATM   33  C   UNL     1      -8.704  18.255  66.255  1.00  0.00    -0.178 C  
HETATM   34  N   UNL     1      -9.408  19.423  66.823  1.00  0.00    -0.316 NA 
HETATM   35  C   UNL     1      -8.580  20.108  67.817  1.00  0.00    -0.254 C  
HETATM   36  C   UNL     1     -10.691  18.981  67.409  1.00  0.00    -0.473 C  
HETATM   37  C   UNL     1     -10.586  17.746  68.340  1.00  0.00    -0.291 C  
ENDBRANCH  30  31
ENDBRANCH  22  25
BRANCH  23  38
HETATM   38  O   UNL     1      -9.627  11.520  64.586  1.00  0.00    -0.226 OA 
HETATM   39  C   UNL     1     -10.666  11.590  63.616  1.00  0.00    -0.424 C  
ENDBRANCH  23  38
ENDBRANCH  17  19
ENDBRANCH   8  17
BRANCH   5  40
HETATM   40  C   UNL     1     -10.150   4.505  66.207  1.00  0.00    -0.254 C  
HETATM   41  H2  UNL     1     -11.442   5.792  65.422  1.00  0.00     0.000 HD 
HETATM   42  N   UNL     1     -11.344   4.788  65.570  1.00  0.00    -0.947 N  
HETATM   43  O   UNL     1      -9.286   3.841  65.657  1.00  0.00    -0.140 OA 
HETATM   44  H1  UNL     1     -11.474   4.281  64.694  1.00  0.00     0.000 HD 
ENDBRANCH   5  40
ENDBRANCH   2   3
TORSDOF 9
ENDMDL
MODEL       17
REMARK 921   NORMALIZED FREE ENERGY PREDICTED BY IDOCK:   -6.56 KCAL/MOL
REMARK 922        TOTAL FREE ENERGY PREDICTED BY IDOCK:  -12.16 KCAL/MOL
REMARK 923 INTER-LIGAND FREE ENERGY PREDICTED BY IDOCK:  -10.28 KCAL/MOL
REMARK 924 INTRA-LIGAND FREE ENERGY PREDICTED BY IDOCK:   -1.87 KCAL/MOL
REMARK 927      BINDING AFFINITY PREDICTED BY RF-SCORE:    0.00 PKD
ROOT
HETATM    1  C   UNL     1     -10.207   3.733  72.404  1.00  0.00    -0.219 C  
HETATM    2  C   UNL     1      -9.573   4.089  71.061  1.00  0.00    -0.249 C  
ENDROOT
BRANCH   2   3
HETATM    3  C   UNL     1     -10.046   5.386  70.496  1.00  0.00    -0.236 A  
HETATM    4  C   UNL     1      -9.389   6.111  69.459  1.00  0.00    -0.137 A  
HETATM    5  C   UNL     1     -11.217   7.214  71.100  1.00  0.00    -0.262 A  
HETATM    6  N   UNL     1      -9.815   7.382  69.156  1.00  0.00    -0.165 NA 
HETATM    7  N   UNL     1     -11.023   5.892  71.259  1.00  0.00    -0.271 NA 
HETATM    8  C   UNL     1     -10.790   7.941  69.975  1.00  0.00    -0.238 A  
BRANCH   4   9
HETATM    9  N   UNL     1      -8.402   5.415  68.788  1.00  0.00    -0.097 NA 
HETATM   10  H   UNL     1      -7.500   5.584  69.234  1.00  0.00     0.000 HD 
BRANCH   9  11
HETATM   11  C   UNL     1      -8.225   4.514  67.645  1.00  0.00    -0.099 C  
HETATM   12  O   UNL     1      -9.134   4.712  64.938  1.00  0.00    -0.153 OA 
HETATM   13  C   UNL     1     -10.097   4.710  65.991  1.00  0.00    -0.264 C  
HETATM   14  C   UNL     1      -7.275   4.878  66.517  1.00  0.00    -0.077 C  
HETATM   15  C   UNL     1      -9.549   3.930  67.164  1.00  0.00    -0.226 C  
HETATM   16  C   UNL     1      -7.964   5.451  65.287  1.00  0.00    -0.109 C  
ENDBRANCH   9  11
ENDBRANCH   4   9
BRANCH   8  17
HETATM   17  N   UNL     1     -11.449   9.162  69.627  1.00  0.00    -0.428 NA 
HETATM   18  H   UNL     1     -12.391   9.279  69.999  1.00  0.00     0.000 HD 
BRANCH  17  19
HETATM   19  C   UNL     1     -10.959  10.237  68.827  1.00  0.00    -0.243 A  
HETATM   20  C   UNL     1      -9.692  10.767  69.063  1.00  0.00    -0.201 A  
HETATM   21  C   UNL     1      -9.333  12.039  68.565  1.00  0.00    -0.127 A  
HETATM   22  C   UNL     1     -10.227  12.855  67.842  1.00  0.00    -0.233 A  
HETATM   23  C   UNL     1     -11.459  12.260  67.492  1.00  0.00    -0.347 A  
HETATM   24  C   UNL     1     -11.785  10.958  67.942  1.00  0.00    -0.152 A  
BRANCH  22  25
HETATM   25  N   UNL     1      -9.893  14.189  67.625  1.00  0.00    -0.226 NA 
HETATM   26  C   UNL     1      -8.919  14.575  66.598  1.00  0.00    -0.219 C  
HETATM   27  C   UNL     1     -10.131  15.197  68.657  1.00  0.00    -0.222 C  
HETATM   28  C   UNL     1     -10.620  16.483  67.989  1.00  0.00    -0.328 C  
HETATM   29  C   UNL     1      -9.399  15.865  65.926  1.00  0.00    -0.353 C  
HETATM   30  C   UNL     1      -9.601  17.019  66.941  1.00  0.00    -0.257 C  
BRANCH  30  31
HETATM   31  N   UNL     1      -8.330  17.501  67.552  1.00  0.00    -0.213 NA 
HETATM   32  C   UNL     1      -7.366  18.048  66.566  1.00  0.00    -0.238 C  
HETATM   33  C   UNL     1      -7.754  19.429  65.982  1.00  0.00    -0.296 C  
HETATM   34  N   UNL     1      -8.000  20.474  66.997  1.00  0.00    -0.310 NA 
HETATM   35  C   UNL     1      -6.745  20.938  67.593  1.00  0.00    -0.349 C  
HETATM   36  C   UNL     1      -8.917  19.946  68.028  1.00  0.00    -0.278 C  
HETATM   37  C   UNL     1      -8.532  18.550  68.584  1.00  0.00    -0.299 C  
ENDBRANCH  30  31
ENDBRANCH  22  25
BRANCH  23  38
HETATM   38  O   UNL     1     -12.307  12.980  66.676  1.00  0.00    -0.381 OA 
HETATM   39  C   UNL     1     -12.253  12.672  65.288  1.00  0.00    -0.475 C  
ENDBRANCH  23  38
ENDBRANCH  17  19
ENDBRANCH   8  17
BRANCH   5  40
HETATM   40  C   UNL     1     -11.402   7.859  72.443  1.00  0.00    -0.369 C  
HETATM   41  H2  UNL     1     -13.387   7.867  72.388  1.00  0.00     0.000 HD 
HETATM   42  N   UNL     1     -12.616   8.503  72.591  1.00  0.00    -0.572 N  
HETATM   43  O   UNL     1     -10.653   7.703  73.395  1.00  0.00    -0.368 OA 
HETATM   44  H1  UNL     1     -12.742   8.942  73.503  1.00  0.00     0.000 HD 
ENDBRANCH   5  40
ENDBRANCH   2   3
TORSDOF 9
ENDMDL
MODEL       18
REMARK 921   NORMALIZED FREE ENERGY PREDICTED BY IDOCK:   -6.54 KCAL/MOL
REMARK 922        TOTAL FREE ENERGY PREDICTED BY IDOCK:  -12.12 KCAL/MOL
REMARK 923 INTER-LIGAND FREE ENERGY PREDICTED BY IDOCK:  -11.18 KCAL/MOL
REMARK 924 INTRA-LIGAND FREE ENERGY PREDICTED BY IDOCK:   -0.94 KCAL/MOL
REMARK 927      BINDING AFFINITY PREDICTED BY RF-SCORE:    0.00 PKD
ROOT
HETATM    1  C   UNL     1      -7.393  20.104  65.525  1.00  0.00    -0.244 C  
HETATM    2  C   UNL     1      -7.225  18.719  66.145  1.00  0.00    -0.294 C  
ENDROOT
BRANCH   2   3
HETATM    3  C   UNL     1      -8.455  18.204  66.813  1.00  0.00    -0.259 A  
HETATM    4  C   UNL     1      -8.648  18.136  68.224  1.00  0.00    -0.288 A  
HETATM    5  C   UNL     1     -10.134  16.743  66.463  1.00  0.00    -0.315 A  
HETATM    6  N   UNL     1      -9.743  17.470  68.720  1.00  0.00    -0.305 NA 
HETATM    7  N   UNL     1      -9.243  17.593  65.920  1.00  0.00    -0.518 NA 
HETATM    8  C   UNL     1     -10.539  16.783  67.809  1.00  0.00    -0.341 A  
BRANCH   4   9
HETATM    9  N   UNL     1      -7.724  18.832  68.980  1.00  0.00    -0.255 NA 
HETATM   10  H   UNL     1      -8.164  19.657  69.385  1.00  0.00     0.000 HD 
BRANCH   9  11
HETATM   11  C   UNL     1      -6.317  18.771  69.390  1.00  0.00    -0.272 C  
HETATM   12  O   UNL     1      -5.125  18.541  71.982  1.00  0.00    -0.753 OA 
HETATM   13  C   UNL     1      -5.973  19.657  71.709  1.00  0.00    -0.091 C  
HETATM   14  C   UNL     1      -5.711  17.462  69.868  1.00  0.00    -0.236 C  
HETATM   15  C   UNL     1      -5.912  19.975  70.232  1.00  0.00    -0.375 C  
HETATM   16  C   UNL     1      -5.612  17.342  71.382  1.00  0.00     0.515 C  
ENDBRANCH   9  11
ENDBRANCH   4   9
BRANCH   8  17
HETATM   17  N   UNL     1     -11.806  16.238  68.185  1.00  0.00    -0.038 NA 
HETATM   18  H   UNL     1     -12.601  16.873  68.116  1.00  0.00     0.000 HD 
BRANCH  17  19
HETATM   19  C   UNL     1     -12.103  14.920  68.644  1.00  0.00    -0.170 A  
HETATM   20  C   UNL     1     -12.230  14.664  70.008  1.00  0.00    -0.385 A  
HETATM   21  C   UNL     1     -12.146  13.347  70.510  1.00  0.00    -0.399 A  
HETATM   22  C   UNL     1     -11.897  12.231  69.685  1.00  0.00    -0.324 A  
HETATM   23  C   UNL     1     -11.903  12.478  68.295  1.00  0.00    -0.309 A  
HETATM   24  C   UNL     1     -12.053  13.795  67.798  1.00  0.00    -0.325 A  
BRANCH  22  25
HETATM   25  N   UNL     1     -11.559  11.017  70.280  1.00  0.00    -0.324 NA 
HETATM   26  C   UNL     1     -12.176  10.588  71.540  1.00  0.00    -0.286 C  
HETATM   27  C   UNL     1     -10.302  10.346  69.949  1.00  0.00    -0.182 C  
HETATM   28  C   UNL     1     -10.553   8.839  69.873  1.00  0.00    -0.230 C  
HETATM   29  C   UNL     1     -12.426   9.078  71.473  1.00  0.00    -0.395 C  
HETATM   30  C   UNL     1     -11.127   8.276  71.204  1.00  0.00    -0.250 C  
BRANCH  30  31
HETATM   31  N   UNL     1     -10.153   8.328  72.332  1.00  0.00    -0.290 NA 
HETATM   32  C   UNL     1     -10.408   7.315  73.386  1.00  0.00    -0.363 C  
HETATM   33  C   UNL     1     -10.054   5.862  72.983  1.00  0.00    -0.181 C  
HETATM   34  N   UNL     1      -8.665   5.681  72.512  1.00  0.00    -0.124 NA 
HETATM   35  C   UNL     1      -7.717   5.737  73.627  1.00  0.00    -0.101 C  
HETATM   36  C   UNL     1      -8.356   6.709  71.497  1.00  0.00    -0.120 C  
HETATM   37  C   UNL     1      -8.743   8.155  71.901  1.00  0.00    -0.154 C  
ENDBRANCH  30  31
ENDBRANCH  22  25
BRANCH  23  38
HETATM   38  O   UNL     1     -11.790  11.391  67.452  1.00  0.00    -0.609 OA 
HETATM   39  C   UNL     1     -11.020  11.590  66.272  1.00  0.00    -0.275 C  
ENDBRANCH  23  38
ENDBRANCH  17  19
ENDBRANCH   8  17
BRANCH   5  40
HETATM   40  C   UNL     1     -10.180  15.480  65.653  1.00  0.00    -0.376 C  
HETATM   41  H2  UNL     1     -10.782  16.343  63.970  1.00  0.00     0.000 HD 
HETATM   42  N   UNL     1     -11.023  15.547  64.560  1.00  0.00    -0.689 N  
HETATM   43  O   UNL     1      -9.431  14.528  65.812  1.00  0.00    -0.251 OA 
HETATM   44  H1  UNL     1     -11.054  14.689  64.010  1.00  0.00     0.000 HD 
ENDBRANCH   5  40
ENDBRANCH   2   3
TORSDOF 9
ENDMDL
MODEL       19
REMARK 921   NORMALIZED FREE ENERGY PREDICTED BY IDOCK:   -6.42 KCAL/MOL
REMARK 922        TOTAL FREE ENERGY PREDICTED BY IDOCK:  -11.93 KCAL/MOL
REMARK 923 INTER-LIGAND FREE ENERGY PREDICTED BY IDOCK:  -10.66 KCAL/MOL
REMARK 924 INTRA-LIGAND FREE ENERGY PREDICTED BY IDOCK:   -1.27 KCAL/MOL
REMARK 927      BINDING AFFINITY PREDICTED BY RF-SCORE:    0.00 PKD
ROOT
HETATM    1  C   UNL     1      -9.984  18.935  67.586  1.00  0.00    -0.404 C  
HETATM    2  C   UNL     1     -10.611  18.218  68.780  1.00  0.00     0.058 C  
ENDROOT
BRANCH   2   3
HETATM    3  C   UNL     1     -11.035  16.818  68.486  1.00  0.00    -0.312 A  
HETATM    4  C   UNL     1     -11.407  15.857  69.471  1.00  0.00    -0.335 A  
HETATM    5  C   UNL     1     -10.720  15.198  66.952  1.00  0.00    -0.308 A  
HETATM    6  N   UNL     1     -11.595  14.549  69.095  1.00  0.00    -0.280 NA 
HETATM    7  N   UNL     1     -10.781  16.518  67.207  1.00  0.00    -0.287 NA 
HETATM    8  C   UNL     1     -11.282  14.211  67.782  1.00  0.00    -0.287 A  
BRANCH   4   9
HETATM    9  N   UNL     1     -11.621  16.364  70.739  1.00  0.00    -0.556 NA 
HETATM   10  H   UNL     1     -10.942  17.100  70.932  1.00  0.00     0.000 HD 
BRANCH   9  11
HETATM   11  C   UNL     1     -12.503  16.190  71.897  1.00  0.00    -0.320 C  
HETATM   12  O   UNL     1     -13.202  13.852  73.393  1.00  0.00    -0.432 OA 
HETATM   13  C   UNL     1     -13.488  13.888  71.995  1.00  0.00    -0.455 C  
HETATM   14  C   UNL     1     -11.921  15.931  73.276  1.00  0.00    -0.553 C  
HETATM   15  C   UNL     1     -13.714  15.322  71.572  1.00  0.00    -0.610 C  
HETATM   16  C   UNL     1     -11.951  14.469  73.697  1.00  0.00     0.117 C  
ENDBRANCH   9  11
ENDBRANCH   4   9
BRANCH   8  17
HETATM   17  N   UNL     1     -11.637  12.940  67.232  1.00  0.00    -0.339 NA 
HETATM   18  H   UNL     1     -11.883  12.937  66.242  1.00  0.00     0.000 HD 
BRANCH  17  19
HETATM   19  C   UNL     1     -11.691  11.674  67.888  1.00  0.00    -0.259 A  
HETATM   20  C   UNL     1     -12.207  11.573  69.179  1.00  0.00    -0.221 A  
HETATM   21  C   UNL     1     -11.936  10.446  69.984  1.00  0.00    -0.324 A  
HETATM   22  C   UNL     1     -11.110   9.385  69.557  1.00  0.00    -0.112 A  
HETATM   23  C   UNL     1     -10.700   9.428  68.207  1.00  0.00    -0.171 A  
HETATM   24  C   UNL     1     -11.032  10.533  67.387  1.00  0.00    -0.352 A  
BRANCH  22  25
HETATM   25  N   UNL     1     -10.674   8.454  70.496  1.00  0.00    -0.223 NA 
HETATM   26  C   UNL     1      -9.326   8.524  71.070  1.00  0.00    -0.185 C  
HETATM   27  C   UNL     1     -11.328   7.152  70.619  1.00  0.00    -0.292 C  
HETATM   28  C   UNL     1     -11.417   6.781  72.100  1.00  0.00    -0.319 C  
HETATM   29  C   UNL     1      -9.404   8.149  72.553  1.00  0.00    -0.329 C  
HETATM   30  C   UNL     1     -10.015   6.742  72.775  1.00  0.00    -0.173 C  
BRANCH  30  31
HETATM   31  N   UNL     1      -9.153   5.634  72.272  1.00  0.00    -0.139 NA 
HETATM   32  C   UNL     1      -7.934   5.411  73.090  1.00  0.00    -0.105 C  
HETATM   33  C   UNL     1      -8.194   4.751  74.467  1.00  0.00    -0.098 C  
HETATM   34  N   UNL     1      -8.932   3.472  74.401  1.00  0.00    -0.086 NA 
HETATM   35  C   UNL     1      -8.076   2.393  73.903  1.00  0.00    -0.055 C  
HETATM   36  C   UNL     1     -10.126   3.642  73.549  1.00  0.00    -0.130 C  
HETATM   37  C   UNL     1      -9.857   4.330  72.186  1.00  0.00    -0.167 C  
ENDBRANCH  30  31
ENDBRANCH  22  25
BRANCH  23  38
HETATM   38  O   UNL     1      -9.998   8.345  67.718  1.00  0.00    -0.166 OA 
HETATM   39  C   UNL     1     -10.776   7.220  67.326  1.00  0.00    -0.321 C  
ENDBRANCH  23  38
ENDBRANCH  17  19
ENDBRANCH   8  17
BRANCH   5  40
HETATM   40  C   UNL     1      -9.552  14.913  66.054  1.00  0.00    -0.313 C  
HETATM   41  H2  UNL     1     -10.610  14.023  64.628  1.00  0.00     0.000 HD 
HETATM   42  N   UNL     1      -9.764  13.866  65.177  1.00  0.00    -0.573 N  
HETATM   43  O   UNL     1      -8.564  15.624  65.957  1.00  0.00    -0.242 OA 
HETATM   44  H1  UNL     1      -8.970  13.673  64.566  1.00  0.00     0.000 HD 
ENDBRANCH   5  40
ENDBRANCH   2   3
TORSDOF 9
ENDMDL
MODEL       20
REMARK 921   NORMALIZED FREE ENERGY PREDICTED BY IDOCK:   -6.36 KCAL/MOL
REMARK 922        TOTAL FREE ENERGY PREDICTED BY IDOCK:  -11.85 KCAL/MOL
REMARK 923 INTER-LIGAND FREE ENERGY PREDICTED BY IDOCK:   -9.97 KCAL/MOL
REMARK 924 INTRA-LIGAND FREE ENERGY PREDICTED BY IDOCK:   -1.88 KCAL/MOL
REMARK 927      BINDING AFFINITY PREDICTED BY RF-SCORE:    0.00 PKD
ROOT
HETATM    1  C   UNL     1     -10.441  19.907  68.500  1.00  0.00    -0.341 C  
HETATM    2  C   UNL     1     -10.184  18.743  69.454  1.00  0.00     0.182 C  
ENDROOT
BRANCH   2   3
HETATM    3  C   UNL     1     -10.387  17.401  68.835  1.00  0.00    -0.340 A  
HETATM    4  C   UNL     1     -10.893  16.257  69.518  1.00  0.00    -0.342 A  
HETATM    5  C   UNL     1      -9.553  16.110  67.187  1.00  0.00    -0.229 A  
HETATM    6  N   UNL     1     -10.855  15.033  68.895  1.00  0.00    -0.234 NA 
HETATM    7  N   UNL     1      -9.802  17.356  67.632  1.00  0.00    -0.274 NA 
HETATM    8  C   UNL     1     -10.201  14.959  67.670  1.00  0.00    -0.236 A  
BRANCH   4   9
HETATM    9  N   UNL     1     -11.456  16.510  70.755  1.00  0.00    -0.529 NA 
HETATM   10  H   UNL     1     -10.866  17.160  71.274  1.00  0.00     0.000 HD 
BRANCH   9  11
HETATM   11  C   UNL     1     -12.624  16.149  71.565  1.00  0.00    -0.060 C  
HETATM   12  O   UNL     1     -13.193  13.803  73.102  1.00  0.00    -0.530 OA 
HETATM   13  C   UNL     1     -12.948  13.669  71.702  1.00  0.00    -0.362 C  
HETATM   14  C   UNL     1     -12.542  16.159  73.082  1.00  0.00    -0.599 C  
HETATM   15  C   UNL     1     -13.364  14.941  71.001  1.00  0.00    -0.449 C  
HETATM   16  C   UNL     1     -12.346  14.783  73.700  1.00  0.00    -0.352 C  
ENDBRANCH   9  11
ENDBRANCH   4   9
BRANCH   8  17
HETATM   17  N   UNL     1     -10.286  13.794  66.845  1.00  0.00    -0.264 NA 
HETATM   18  H   UNL     1     -10.335  13.964  65.841  1.00  0.00     0.000 HD 
BRANCH  17  19
HETATM   19  C   UNL     1     -10.311  12.425  67.245  1.00  0.00    -0.215 A  
HETATM   20  C   UNL     1     -11.500  11.842  67.680  1.00  0.00    -0.387 A  
HETATM   21  C   UNL     1     -11.491  10.641  68.423  1.00  0.00    -0.330 A  
HETATM   22  C   UNL     1     -10.300   9.986  68.798  1.00  0.00    -0.198 A  
HETATM   23  C   UNL     1      -9.109  10.506  68.244  1.00  0.00    -0.146 A  
HETATM   24  C   UNL     1      -9.136  11.674  67.445  1.00  0.00    -0.169 A  
BRANCH  22  25
HETATM   25  N   UNL     1     -10.362   8.972  69.750  1.00  0.00    -0.204 NA 
HETATM   26  C   UNL     1     -10.028   9.223  71.156  1.00  0.00    -0.286 C  
HETATM   27  C   UNL     1     -10.319   7.566  69.350  1.00  0.00    -0.213 C  
HETATM   28  C   UNL     1     -11.292   6.773  70.225  1.00  0.00    -0.404 C  
HETATM   29  C   UNL     1     -10.995   8.429  72.040  1.00  0.00    -0.394 C  
HETATM   30  C   UNL     1     -10.957   6.909  71.738  1.00  0.00    -0.230 C  
BRANCH  30  31
HETATM   31  N   UNL     1      -9.669   6.261  72.115  1.00  0.00    -0.154 NA 
HETATM   32  C   UNL     1      -9.330   6.403  73.553  1.00  0.00    -0.134 C  
HETATM   33  C   UNL     1     -10.188   5.534  74.506  1.00  0.00    -0.269 C  
HETATM   34  N   UNL     1     -10.189   4.093  74.183  1.00  0.00    -0.169 NA 
HETATM   35  C   UNL     1      -8.918   3.467  74.555  1.00  0.00    -0.086 C  
HETATM   36  C   UNL     1     -10.470   3.914  72.744  1.00  0.00    -0.153 C  
HETATM   37  C   UNL     1      -9.625   4.810  71.803  1.00  0.00    -0.155 C  
ENDBRANCH  30  31
ENDBRANCH  22  25
BRANCH  23  38
HETATM   38  O   UNL     1      -7.939   9.816  68.484  1.00  0.00    -0.087 OA 
HETATM   39  C   UNL     1      -6.915  10.535  69.162  1.00  0.00    -0.080 C  
ENDBRANCH  23  38
ENDBRANCH  17  19
ENDBRANCH   8  17
BRANCH   5  40
HETATM   40  C   UNL     1      -8.179  16.058  66.584  1.00  0.00    -0.289 C  
HETATM   41  H2  UNL     1      -7.959  18.024  66.419  1.00  0.00     0.000 HD 
HETATM   42  N   UNL     1      -7.847  17.183  65.853  1.00  0.00    -0.143 N  
HETATM   43  O   UNL     1      -7.345  15.202  66.836  1.00  0.00    -0.119 OA 
HETATM   44  H1  UNL     1      -6.913  17.147  65.444  1.00  0.00     0.000 HD 
ENDBRANCH   5  40
ENDBRANCH   2   3
TORSDOF 9
ENDMDL
MODEL       21
REMARK 921   NORMALIZED FREE ENERGY PREDICTED BY IDOCK:   -6.26 KCAL/MOL
REMARK 922        TOTAL FREE ENERGY PREDICTED BY IDOCK:  -11.69 KCAL/MOL
REMARK 923 INTER-LIGAND FREE ENERGY PREDICTED BY IDOCK:   -9.82 KCAL/MOL
REMARK 924 INTRA-LIGAND FREE ENERGY PREDICTED BY IDOCK:   -1.87 KCAL/MOL
REMARK 927      BINDING AFFINITY PREDICTED BY RF-SCORE:    0.00 PKD
ROOT
HETATM    1  C   UNL     1      -5.814  17.358  66.371  1.00  0.00    -0.244 C  
HETATM    2  C   UNL     1      -6.431  16.917  67.696  1.00  0.00    -0.165 C  
ENDROOT
BRANCH   2   3
HETATM    3  C   UNL     1      -7.711  16.166  67.543  1.00  0.00    -0.147 A  
HETATM    4  C   UNL     1      -8.964  16.573  68.088  1.00  0.00    -0.207 A  
HETATM    5  C   UNL     1      -8.462  14.060  67.262  1.00  0.00    -0.207 A  
HETATM    6  N   UNL     1     -10.029  15.706  68.042  1.00  0.00    -0.221 NA 
HETATM    7  N   UNL     1      -7.474  14.948  67.043  1.00  0.00    -0.074 NA 
HETATM    8  C   UNL     1      -9.785  14.418  67.577  1.00  0.00    -0.215 A  
BRANCH   4   9
HETATM    9  N   UNL     1      -9.008  17.871  68.561  1.00  0.00    -0.291 NA 
HETATM   10  H   UNL     1      -8.588  17.912  69.489  1.00  0.00     0.000 HD 
BRANCH   9  11
HETATM   11  C   UNL     1      -9.460  19.209  68.165  1.00  0.00    -0.342 C  
HETATM   12  O   UNL     1      -9.704  20.423  65.585  1.00  0.00    -0.201 OA 
HETATM   13  C   UNL     1      -8.424  19.955  66.010  1.00  0.00    -0.263 C  
HETATM   14  C   UNL     1     -10.816  19.399  67.507  1.00  0.00    -0.521 C  
HETATM   15  C   UNL     1      -8.346  20.024  67.518  1.00  0.00    -0.381 C  
HETATM   16  C   UNL     1     -10.754  19.547  65.994  1.00  0.00    -0.430 C  
ENDBRANCH   9  11
ENDBRANCH   4   9
BRANCH   8  17
HETATM   17  N   UNL     1     -10.852  13.511  67.291  1.00  0.00    -0.274 NA 
HETATM   18  H   UNL     1     -11.425  13.740  66.478  1.00  0.00     0.000 HD 
BRANCH  17  19
HETATM   19  C   UNL     1     -11.220  12.326  67.995  1.00  0.00    -0.269 A  
HETATM   20  C   UNL     1     -11.616  12.396  69.330  1.00  0.00    -0.379 A  
HETATM   21  C   UNL     1     -11.620  11.246  70.148  1.00  0.00    -0.393 A  
HETATM   22  C   UNL     1     -11.196   9.982  69.688  1.00  0.00    -0.239 A  
HETATM   23  C   UNL     1     -10.924   9.888  68.306  1.00  0.00    -0.196 A  
HETATM   24  C   UNL     1     -10.986  11.036  67.479  1.00  0.00    -0.338 A  
BRANCH  22  25
HETATM   25  N   UNL     1     -10.971   8.969  70.618  1.00  0.00    -0.244 NA 
HETATM   26  C   UNL     1      -9.611   8.552  70.977  1.00  0.00    -0.192 C  
HETATM   27  C   UNL     1     -12.017   7.997  70.932  1.00  0.00    -0.189 C  
HETATM   28  C   UNL     1     -11.984   7.705  72.434  1.00  0.00    -0.298 C  
HETATM   29  C   UNL     1      -9.571   8.254  72.479  1.00  0.00    -0.365 C  
HETATM   30  C   UNL     1     -10.598   7.169  72.892  1.00  0.00    -0.281 C  
BRANCH  30  31
HETATM   31  N   UNL     1     -10.283   5.816  72.350  1.00  0.00    -0.186 NA 
HETATM   32  C   UNL     1      -8.847   5.455  72.447  1.00  0.00    -0.131 C  
HETATM   33  C   UNL     1      -8.360   5.129  73.881  1.00  0.00    -0.111 C  
HETATM   34  N   UNL     1      -9.136   4.074  74.564  1.00  0.00    -0.099 NA 
HETATM   35  C   UNL     1      -8.822   2.751  74.022  1.00  0.00    -0.075 C  
HETATM   36  C   UNL     1     -10.578   4.372  74.442  1.00  0.00    -0.233 C  
HETATM   37  C   UNL     1     -11.047   4.725  73.007  1.00  0.00    -0.274 C  
ENDBRANCH  30  31
ENDBRANCH  22  25
BRANCH  23  38
HETATM   38  O   UNL     1     -10.631   8.640  67.795  1.00  0.00    -0.236 OA 
HETATM   39  C   UNL     1     -10.001   8.617  66.519  1.00  0.00    -0.282 C  
ENDBRANCH  23  38
ENDBRANCH  17  19
ENDBRANCH   8  17
BRANCH   5  40
HETATM   40  C   UNL     1      -7.871  12.746  67.683  1.00  0.00    -0.165 C  
HETATM   41  H2  UNL     1      -8.894  12.600  69.378  1.00  0.00     0.000 HD 
HETATM   42  N   UNL     1      -7.934  12.515  69.044  1.00  0.00    -0.327 N  
HETATM   43  O   UNL     1      -7.519  11.867  66.911  1.00  0.00    -0.139 OA 
HETATM   44  H1  UNL     1      -7.533  11.621  69.330  1.00  0.00     0.000 HD 
ENDBRANCH   5  40
ENDBRANCH   2   3
TORSDOF 9
ENDMDL
MODEL       22
REMARK 921   NORMALIZED FREE ENERGY PREDICTED BY IDOCK:   -6.10 KCAL/MOL
REMARK 922        TOTAL FREE ENERGY PREDICTED BY IDOCK:  -11.45 KCAL/MOL
REMARK 923 INTER-LIGAND FREE ENERGY PREDICTED BY IDOCK:   -9.42 KCAL/MOL
REMARK 924 INTRA-LIGAND FREE ENERGY PREDICTED BY IDOCK:   -2.02 KCAL/MOL
REMARK 927      BINDING AFFINITY PREDICTED BY RF-SCORE:    0.00 PKD
ROOT
HETATM    1  C   UNL     1     -10.044  18.639  68.571  1.00  0.00    -0.426 C  
HETATM    2  C   UNL     1     -11.114  17.569  68.777  1.00  0.00     0.344 C  
ENDROOT
BRANCH   2   3
HETATM    3  C   UNL     1     -10.818  16.280  68.086  1.00  0.00    -0.342 A  
HETATM    4  C   UNL     1     -11.258  14.999  68.530  1.00  0.00    -0.287 A  
HETATM    5  C   UNL     1      -9.248  15.341  66.771  1.00  0.00    -0.250 A  
HETATM    6  N   UNL     1     -10.764  13.872  67.919  1.00  0.00    -0.238 NA 
HETATM    7  N   UNL     1      -9.885  16.466  67.144  1.00  0.00    -0.244 NA 
HETATM    8  C   UNL     1      -9.755  14.045  66.978  1.00  0.00    -0.256 A  
BRANCH   4   9
HETATM    9  N   UNL     1     -12.225  15.017  69.517  1.00  0.00    -0.509 NA 
HETATM   10  H   UNL     1     -13.046  15.522  69.183  1.00  0.00     0.000 HD 
BRANCH   9  11
HETATM   11  C   UNL     1     -12.458  14.547  70.886  1.00  0.00    -0.345 C  
HETATM   12  O   UNL     1     -13.206  15.964  73.258  1.00  0.00    -0.540 OA 
HETATM   13  C   UNL     1     -12.001  16.329  72.586  1.00  0.00    -0.546 C  
HETATM   14  C   UNL     1     -13.870  14.467  71.443  1.00  0.00    -0.409 C  
HETATM   15  C   UNL     1     -11.445  15.119  71.871  1.00  0.00    -0.457 C  
HETATM   16  C   UNL     1     -14.249  15.635  72.340  1.00  0.00    -0.434 C  
ENDBRANCH   9  11
ENDBRANCH   4   9
BRANCH   8  17
HETATM   17  N   UNL     1      -9.322  12.972  66.138  1.00  0.00    -0.453 NA 
HETATM   18  H   UNL     1      -9.099  13.223  65.175  1.00  0.00     0.000 HD 
BRANCH  17  19
HETATM   19  C   UNL     1      -9.163  11.594  66.472  1.00  0.00    -0.198 A  
HETATM   20  C   UNL     1     -10.217  10.700  66.289  1.00  0.00    -0.304 A  
HETATM   21  C   UNL     1     -10.229   9.449  66.942  1.00  0.00    -0.318 A  
HETATM   22  C   UNL     1      -9.215   9.044  67.834  1.00  0.00    -0.141 A  
HETATM   23  C   UNL     1      -8.089   9.892  67.912  1.00  0.00    -0.109 A  
HETATM   24  C   UNL     1      -8.057  11.116  67.202  1.00  0.00    -0.138 A  
BRANCH  22  25
HETATM   25  N   UNL     1      -9.433   7.927  68.638  1.00  0.00    -0.149 NA 
HETATM   26  C   UNL     1      -9.813   8.066  70.048  1.00  0.00    -0.185 C  
HETATM   27  C   UNL     1      -8.879   6.624  68.275  1.00  0.00    -0.124 C  
HETATM   28  C   UNL     1      -9.907   5.541  68.604  1.00  0.00    -0.198 C  
HETATM   29  C   UNL     1     -10.841   6.982  70.388  1.00  0.00    -0.283 C  
HETATM   30  C   UNL     1     -10.306   5.554  70.108  1.00  0.00    -0.284 C  
BRANCH  30  31
HETATM   31  N   UNL     1      -9.192   5.150  71.013  1.00  0.00    -0.144 NA 
HETATM   32  C   UNL     1      -9.467   5.413  72.449  1.00  0.00    -0.143 C  
HETATM   33  C   UNL     1     -10.502   4.457  73.092  1.00  0.00    -0.184 C  
HETATM   34  N   UNL     1     -10.179   3.023  72.951  1.00  0.00    -0.148 NA 
HETATM   35  C   UNL     1      -9.082   2.638  73.842  1.00  0.00    -0.077 C  
HETATM   36  C   UNL     1      -9.847   2.733  71.541  1.00  0.00    -0.125 C  
HETATM   37  C   UNL     1      -8.831   3.714  70.900  1.00  0.00    -0.083 C  
ENDBRANCH  30  31
ENDBRANCH  22  25
BRANCH  23  38
HETATM   38  O   UNL     1      -7.021   9.466  68.675  1.00  0.00    -0.064 OA 
HETATM   39  C   UNL     1      -6.725  10.245  69.829  1.00  0.00    -0.103 C  
ENDBRANCH  23  38
ENDBRANCH  17  19
ENDBRANCH   8  17
BRANCH   5  40
HETATM   40  C   UNL     1      -7.776  15.612  66.655  1.00  0.00    -0.033 C  
HETATM   41  H2  UNL     1      -7.931  17.590  66.743  1.00  0.00     0.000 HD 
HETATM   42  N   UNL     1      -7.477  16.873  66.176  1.00  0.00    -0.247 N  
HETATM   43  O   UNL     1      -6.902  14.882  67.095  1.00  0.00    -0.252 OA 
HETATM   44  H1  UNL     1      -6.477  17.058  66.098  1.00  0.00     0.000 HD 
ENDBRANCH   5  40
ENDBRANCH   2   3
TORSDOF 9
ENDMDL
MODEL       23
REMARK 921   NORMALIZED FREE ENERGY PREDICTED BY IDOCK:   -6.03 KCAL/MOL
REMARK 922        TOTAL FREE ENERGY PREDICTED BY IDOCK:  -11.34 KCAL/MOL
REMARK 923 INTER-LIGAND FREE ENERGY PREDICTED BY IDOCK:   -9.50 KCAL/MOL
REMARK 924 INTRA-LIGAND FREE ENERGY PREDICTED BY IDOCK:   -1.84 KCAL/MOL
REMARK 927      BINDING AFFINITY PREDICTED BY RF-SCORE:    0.00 PKD
ROOT
HETATM    1  C   UNL     1     -12.081  16.508  73.220  1.00  0.00    -0.478 C  
HETATM    2  C   UNL     1     -11.416  16.622  71.850  1.00  0.00     0.053 C  
ENDROOT
BRANCH   2   3
HETATM    3  C   UNL     1     -11.574  15.406  71.001  1.00  0.00    -0.367 A  
HETATM    4  C   UNL     1     -11.702  15.416  69.581  1.00  0.00    -0.338 A  
HETATM    5  C   UNL     1     -12.398  13.311  71.110  1.00  0.00    -0.232 A  
HETATM    6  N   UNL     1     -12.032  14.252  68.929  1.00  0.00    -0.332 NA 
HETATM    7  N   UNL     1     -11.827  14.338  71.767  1.00  0.00    -0.044 NA 
HETATM    8  C   UNL     1     -12.351  13.149  69.714  1.00  0.00    -0.102 A  
BRANCH   4   9
HETATM    9  N   UNL     1     -11.401  16.618  68.970  1.00  0.00    -0.218 NA 
HETATM   10  H   UNL     1     -12.192  17.256  69.062  1.00  0.00     0.000 HD 
BRANCH   9  11
HETATM   11  C   UNL     1     -10.318  17.278  68.233  1.00  0.00    -0.361 C  
HETATM   12  O   UNL     1     -10.322  18.665  65.730  1.00  0.00    -0.573 OA 
HETATM   13  C   UNL     1     -10.735  17.300  65.763  1.00  0.00    -0.131 C  
HETATM   14  C   UNL     1     -10.242  18.794  68.170  1.00  0.00    -0.433 C  
HETATM   15  C   UNL     1     -10.032  16.596  66.900  1.00  0.00    -0.272 C  
HETATM   16  C   UNL     1     -10.776  19.387  66.875  1.00  0.00    -0.465 C  
ENDBRANCH   9  11
ENDBRANCH   4   9
BRANCH   8  17
HETATM   17  N   UNL     1     -12.501  11.845  69.146  1.00  0.00    -0.003 NA 
HETATM   18  H   UNL     1     -13.454  11.572  68.905  1.00  0.00     0.000 HD 
BRANCH  17  19
HETATM   19  C   UNL     1     -11.490  10.876  68.874  1.00  0.00    -0.300 A  
HETATM   20  C   UNL     1     -11.012  10.705  67.575  1.00  0.00    -0.371 A  
HETATM   21  C   UNL     1     -10.313   9.535  67.207  1.00  0.00    -0.319 A  
HETATM   22  C   UNL     1     -10.089   8.468  68.100  1.00  0.00    -0.200 A  
HETATM   23  C   UNL     1     -10.455   8.701  69.444  1.00  0.00    -0.218 A  
HETATM   24  C   UNL     1     -11.098   9.906  69.817  1.00  0.00    -0.294 A  
BRANCH  22  25
HETATM   25  N   UNL     1      -9.639   7.251  67.594  1.00  0.00    -0.133 NA 
HETATM   26  C   UNL     1      -8.208   6.974  67.432  1.00  0.00    -0.119 C  
HETATM   27  C   UNL     1     -10.525   6.397  66.803  1.00  0.00    -0.234 C  
HETATM   28  C   UNL     1     -10.271   4.937  67.183  1.00  0.00    -0.211 C  
HETATM   29  C   UNL     1      -7.946   5.512  67.807  1.00  0.00    -0.101 C  
HETATM   30  C   UNL     1      -8.788   4.525  66.958  1.00  0.00    -0.112 C  
BRANCH  30  31
HETATM   31  N   UNL     1      -8.399   4.499  65.519  1.00  0.00    -0.114 NA 
HETATM   32  C   UNL     1      -7.084   3.857  65.270  1.00  0.00    -0.063 C  
HETATM   33  C   UNL     1      -7.079   2.316  65.427  1.00  0.00    -0.056 C  
HETATM   34  N   UNL     1      -8.086   1.615  64.604  1.00  0.00    -0.069 NA 
HETATM   35  C   UNL     1      -7.695   1.597  63.192  1.00  0.00    -0.054 C  
HETATM   36  C   UNL     1      -9.401   2.262  64.785  1.00  0.00    -0.116 C  
HETATM   37  C   UNL     1      -9.387   3.807  64.653  1.00  0.00    -0.153 C  
ENDBRANCH  30  31
ENDBRANCH  22  25
BRANCH  23  38
HETATM   38  O   UNL     1     -10.135   7.731  70.371  1.00  0.00    -0.192 OA 
HETATM   39  C   UNL     1     -10.401   8.052  71.732  1.00  0.00    -0.217 C  
ENDBRANCH  23  38
ENDBRANCH  17  19
ENDBRANCH   8  17
BRANCH   5  40
HETATM   40  C   UNL     1     -13.507  12.737  71.943  1.00  0.00    -0.358 C  
HETATM   41  H2  UNL     1     -12.571  11.041  72.379  1.00  0.00     0.000 HD 
HETATM   42  N   UNL     1     -13.478  11.359  72.037  1.00  0.00    -0.454 N  
HETATM   43  O   UNL     1     -14.272  13.398  72.626  1.00  0.00    -0.747 OA 
HETATM   44  H1  UNL     1     -14.231  10.968  72.604  1.00  0.00     0.000 HD 
ENDBRANCH   5  40
ENDBRANCH   2   3
TORSDOF 9
ENDMDL
MODEL       24
REMARK 921   NORMALIZED FREE ENERGY PREDICTED BY IDOCK:   -6.01 KCAL/MOL
REMARK 922        TOTAL FREE ENERGY PREDICTED BY IDOCK:  -11.31 KCAL/MOL
REMARK 923 INTER-LIGAND FREE ENERGY PREDICTED BY IDOCK:   -9.58 KCAL/MOL
REMARK 924 INTRA-LIGAND FREE ENERGY PREDICTED BY IDOCK:   -1.73 KCAL/MOL
REMARK 927      BINDING AFFINITY PREDICTED BY RF-SCORE:    0.00 PKD
ROOT
HETATM    1  C   UNL     1      -8.408  18.932  67.044  1.00  0.00    -0.287 C  
HETATM    2  C   UNL     1      -9.107  18.076  68.097  1.00  0.00    -0.279 C  
ENDROOT
BRANCH   2   3
HETATM    3  C   UNL     1      -9.442  16.699  67.629  1.00  0.00    -0.226 A  
HETATM    4  C   UNL     1      -8.551  15.588  67.669  1.00  0.00    -0.165 A  
HETATM    5  C   UNL     1     -10.763  15.651  66.135  1.00  0.00    -0.303 A  
HETATM    6  N   UNL     1      -8.906  14.420  67.036  1.00  0.00    -0.230 NA 
HETATM    7  N   UNL     1     -10.592  16.712  66.946  1.00  0.00    -0.274 NA 
HETATM    8  C   UNL     1     -10.071  14.435  66.277  1.00  0.00    -0.297 A  
BRANCH   4   9
HETATM    9  N   UNL     1      -7.409  15.773  68.426  1.00  0.00    -0.114 NA 
HETATM   10  H   UNL     1      -7.404  16.716  68.812  1.00  0.00     0.000 HD 
BRANCH   9  11
HETATM   11  C   UNL     1      -6.204  15.057  68.855  1.00  0.00    -0.089 C  
HETATM   12  O   UNL     1      -5.414  12.328  68.504  1.00  0.00    -0.053 OA 
HETATM   13  C   UNL     1      -6.630  12.612  69.196  1.00  0.00    -0.099 C  
HETATM   14  C   UNL     1      -5.139  14.666  67.843  1.00  0.00    -0.059 C  
HETATM   15  C   UNL     1      -6.516  13.961  69.867  1.00  0.00    -0.077 C  
HETATM   16  C   UNL     1      -5.209  13.212  67.402  1.00  0.00     0.112 C  
ENDBRANCH   9  11
ENDBRANCH   4   9
BRANCH   8  17
HETATM   17  N   UNL     1     -10.639  13.230  65.756  1.00  0.00    -0.279 NA 
HETATM   18  H   UNL     1     -10.895  13.250  64.768  1.00  0.00     0.000 HD 
BRANCH  17  19
HETATM   19  C   UNL     1     -10.896  12.004  66.438  1.00  0.00    -0.278 A  
HETATM   20  C   UNL     1     -11.662  11.995  67.602  1.00  0.00    -0.365 A  
HETATM   21  C   UNL     1     -11.621  10.898  68.490  1.00  0.00    -0.360 A  
HETATM   22  C   UNL     1     -10.791   9.778  68.280  1.00  0.00    -0.210 A  
HETATM   23  C   UNL     1     -10.120   9.732  67.038  1.00  0.00    -0.218 A  
HETATM   24  C   UNL     1     -10.219  10.808  66.125  1.00  0.00    -0.308 A  
BRANCH  22  25
HETATM   25  N   UNL     1     -10.604   8.875  69.324  1.00  0.00    -0.226 NA 
HETATM   26  C   UNL     1     -10.002   9.293  70.595  1.00  0.00    -0.273 C  
HETATM   27  C   UNL     1     -10.569   7.435  69.071  1.00  0.00    -0.192 C  
HETATM   28  C   UNL     1     -11.299   6.717  70.208  1.00  0.00    -0.431 C  
HETATM   29  C   UNL     1     -10.724   8.574  71.739  1.00  0.00    -0.373 C  
HETATM   30  C   UNL     1     -10.669   7.032  71.595  1.00  0.00    -0.220 C  
BRANCH  30  31
HETATM   31  N   UNL     1      -9.299   6.469  71.759  1.00  0.00    -0.150 NA 
HETATM   32  C   UNL     1      -8.683   6.775  73.074  1.00  0.00    -0.119 C  
HETATM   33  C   UNL     1      -9.283   5.989  74.266  1.00  0.00    -0.139 C  
HETATM   34  N   UNL     1      -9.272   4.521  74.095  1.00  0.00    -0.110 NA 
HETATM   35  C   UNL     1      -7.921   3.979  74.255  1.00  0.00    -0.090 C  
HETATM   36  C   UNL     1      -9.831   4.180  72.771  1.00  0.00    -0.145 C  
HETATM   37  C   UNL     1      -9.242   4.995  71.590  1.00  0.00    -0.145 C  
ENDBRANCH  30  31
ENDBRANCH  22  25
BRANCH  23  38
HETATM   38  O   UNL     1      -9.399   8.592  66.743  1.00  0.00    -0.156 OA 
HETATM   39  C   UNL     1      -8.499   8.686  65.645  1.00  0.00    -0.156 C  
ENDBRANCH  23  38
ENDBRANCH  17  19
ENDBRANCH   8  17
BRANCH   5  40
HETATM   40  C   UNL     1     -11.304  16.111  64.813  1.00  0.00    -0.249 C  
HETATM   41  H2  UNL     1     -12.872  14.893  64.804  1.00  0.00     0.000 HD 
HETATM   42  N   UNL     1     -12.113  15.182  64.186  1.00  0.00    -0.864 N  
HETATM   43  O   UNL     1     -11.204  17.249  64.382  1.00  0.00    -1.082 OA 
HETATM   44  H1  UNL     1     -12.481  15.494  63.288  1.00  0.00     0.000 HD 
ENDBRANCH   5  40
ENDBRANCH   2   3
TORSDOF 9
ENDMDL
MODEL       25
REMARK 921   NORMALIZED FREE ENERGY PREDICTED BY IDOCK:   -5.94 KCAL/MOL
REMARK 922        TOTAL FREE ENERGY PREDICTED BY IDOCK:  -11.20 KCAL/MOL
REMARK 923 INTER-LIGAND FREE ENERGY PREDICTED BY IDOCK:   -9.39 KCAL/MOL
REMARK 924 INTRA-LIGAND FREE ENERGY PREDICTED BY IDOCK:   -1.80 KCAL/MOL
REMARK 927      BINDING AFFINITY PREDICTED BY RF-SCORE:    0.00 PKD
ROOT
HETATM    1  C   UNL     1     -12.216  15.418  70.185  1.00  0.00    -0.407 C  
HETATM    2  C   UNL     1     -11.765  15.932  68.820  1.00  0.00    -0.355 C  
ENDROOT
BRANCH   2   3
HETATM    3  C   UNL     1     -11.080  14.902  67.985  1.00  0.00    -0.295 A  
HETATM    4  C   UNL     1      -9.675  14.850  67.748  1.00  0.00    -0.212 A  
HETATM    5  C   UNL     1     -11.478  13.555  66.223  1.00  0.00    -0.326 A  
HETATM    6  N   UNL     1      -9.186  13.971  66.811  1.00  0.00    -0.268 NA 
HETATM    7  N   UNL     1     -11.982  14.193  67.296  1.00  0.00    -0.416 NA 
HETATM    8  C   UNL     1     -10.113  13.268  66.049  1.00  0.00    -0.299 A  
BRANCH   4   9
HETATM    9  N   UNL     1      -8.909  15.663  68.561  1.00  0.00    -0.179 NA 
HETATM   10  H   UNL     1      -8.785  15.219  69.470  1.00  0.00     0.000 HD 
BRANCH   9  11
HETATM   11  C   UNL     1      -8.215  16.955  68.543  1.00  0.00    -0.249 C  
HETATM   12  O   UNL     1      -7.880  18.879  66.452  1.00  0.00    -0.261 OA 
HETATM   13  C   UNL     1      -7.392  17.553  66.254  1.00  0.00    -0.320 C  
HETATM   14  C   UNL     1      -9.004  18.252  68.530  1.00  0.00    -0.329 C  
HETATM   15  C   UNL     1      -7.024  16.954  67.592  1.00  0.00    -0.156 C  
HETATM   16  C   UNL     1      -9.122  18.892  67.154  1.00  0.00    -0.287 C  
ENDBRANCH   9  11
ENDBRANCH   4   9
BRANCH   8  17
HETATM   17  N   UNL     1      -9.718  12.185  65.203  1.00  0.00    -0.417 NA 
HETATM   18  H   UNL     1      -9.293  12.447  64.314  1.00  0.00     0.000 HD 
BRANCH  17  19
HETATM   19  C   UNL     1      -9.842  10.783  65.442  1.00  0.00    -0.262 A  
HETATM   20  C   UNL     1     -10.521  10.320  66.568  1.00  0.00    -0.241 A  
HETATM   21  C   UNL     1     -10.344   8.998  67.029  1.00  0.00    -0.339 A  
HETATM   22  C   UNL     1      -9.458   8.089  66.417  1.00  0.00    -0.201 A  
HETATM   23  C   UNL     1      -8.875   8.518  65.204  1.00  0.00    -0.071 A  
HETATM   24  C   UNL     1      -9.111   9.824  64.713  1.00  0.00    -0.290 A  
BRANCH  22  25
HETATM   25  N   UNL     1      -9.136   6.909  67.085  1.00  0.00    -0.128 NA 
HETATM   26  C   UNL     1     -10.179   6.035  67.633  1.00  0.00    -0.181 C  
HETATM   27  C   UNL     1      -7.804   6.712  67.656  1.00  0.00    -0.111 C  
HETATM   28  C   UNL     1      -7.381   5.260  67.430  1.00  0.00    -0.083 C  
HETATM   29  C   UNL     1      -9.761   4.578  67.415  1.00  0.00    -0.218 C  
HETATM   30  C   UNL     1      -8.388   4.255  68.060  1.00  0.00    -0.094 C  
BRANCH  30  31
HETATM   31  N   UNL     1      -8.408   4.300  69.550  1.00  0.00    -0.062 NA 
HETATM   32  C   UNL     1      -9.452   3.439  70.158  1.00  0.00    -0.173 C  
HETATM   33  C   UNL     1      -9.159   1.920  70.084  1.00  0.00    -0.094 C  
HETATM   34  N   UNL     1      -7.857   1.521  70.658  1.00  0.00    -0.035 NA 
HETATM   35  C   UNL     1      -7.886   1.572  72.122  1.00  0.00    -0.041 C  
HETATM   36  C   UNL     1      -6.796   2.395  70.115  1.00  0.00    -0.033 C  
HETATM   37  C   UNL     1      -7.115   3.911  70.169  1.00  0.00    -0.041 C  
ENDBRANCH  30  31
ENDBRANCH  22  25
BRANCH  23  38
HETATM   38  O   UNL     1      -8.104   7.609  64.509  1.00  0.00    -0.141 OA 
HETATM   39  C   UNL     1      -7.686   8.006  63.208  1.00  0.00    -0.143 C  
ENDBRANCH  23  38
ENDBRANCH  17  19
ENDBRANCH   8  17
BRANCH   5  40
HETATM   40  C   UNL     1     -12.414  13.715  65.060  1.00  0.00    -0.414 C  
HETATM   41  H2  UNL     1     -13.345  11.980  65.315  1.00  0.00     0.000 HD 
HETATM   42  N   UNL     1     -12.904  12.519  64.570  1.00  0.00    -0.726 N  
HETATM   43  O   UNL     1     -12.857  14.783  64.670  1.00  0.00    -0.495 OA 
HETATM   44  H1  UNL     1     -13.540  12.627  63.779  1.00  0.00     0.000 HD 
ENDBRANCH   5  40
ENDBRANCH   2   3
TORSDOF 9
ENDMDL
MODEL       26
REMARK 921   NORMALIZED FREE ENERGY PREDICTED BY IDOCK:   -5.92 KCAL/MOL
REMARK 922        TOTAL FREE ENERGY PREDICTED BY IDOCK:  -11.18 KCAL/MOL
REMARK 923 INTER-LIGAND FREE ENERGY PREDICTED BY IDOCK:   -9.25 KCAL/MOL
REMARK 924 INTRA-LIGAND FREE ENERGY PREDICTED BY IDOCK:   -1.93 KCAL/MOL
REMARK 927      BINDING AFFINITY PREDICTED BY RF-SCORE:    0.00 PKD
ROOT
HETATM    1  C   UNL     1      -9.429   1.796  68.415  1.00  0.00    -0.239 C  
HETATM    2  C   UNL     1      -9.311   2.879  69.484  1.00  0.00    -0.199 C  
ENDROOT
BRANCH   2   3
HETATM    3  C   UNL     1      -9.398   4.268  68.946  1.00  0.00    -0.158 A  
HETATM    4  C   UNL     1     -10.120   5.334  69.557  1.00  0.00    -0.252 A  
HETATM    5  C   UNL     1      -9.329   5.373  66.983  1.00  0.00    -0.121 A  
HETATM    6  N   UNL     1     -10.282   6.514  68.871  1.00  0.00    -0.170 NA 
HETATM    7  N   UNL     1      -8.916   4.309  67.698  1.00  0.00    -0.111 NA 
HETATM    8  C   UNL     1      -9.837   6.553  67.554  1.00  0.00    -0.124 A  
BRANCH   4   9
HETATM    9  N   UNL     1     -10.540   5.097  70.852  1.00  0.00    -0.183 NA 
HETATM   10  H   UNL     1     -10.382   4.118  71.089  1.00  0.00     0.000 HD 
BRANCH   9  11
HETATM   11  C   UNL     1     -11.138   5.792  71.996  1.00  0.00    -0.260 C  
HETATM   12  O   UNL     1     -11.457   8.583  72.542  1.00  0.00    -0.371 OA 
HETATM   13  C   UNL     1     -10.142   8.064  72.345  1.00  0.00    -0.266 C  
HETATM   14  C   UNL     1     -12.489   6.473  71.863  1.00  0.00    -0.291 C  
HETATM   15  C   UNL     1     -10.112   6.614  72.769  1.00  0.00    -0.195 C  
HETATM   16  C   UNL     1     -12.406   7.980  71.663  1.00  0.00    -0.314 C  
ENDBRANCH   9  11
ENDBRANCH   4   9
BRANCH   8  17
HETATM   17  N   UNL     1      -9.764   7.782  66.824  1.00  0.00    -0.210 NA 
HETATM   18  H   UNL     1      -9.764   7.695  65.808  1.00  0.00     0.000 HD 
BRANCH  17  19
HETATM   19  C   UNL     1      -9.693   9.112  67.335  1.00  0.00    -0.162 A  
HETATM   20  C   UNL     1     -10.851   9.769  67.747  1.00  0.00    -0.306 A  
HETATM   21  C   UNL     1     -10.876  11.173  67.894  1.00  0.00    -0.285 A  
HETATM   22  C   UNL     1      -9.764  11.990  67.603  1.00  0.00    -0.187 A  
HETATM   23  C   UNL     1      -8.559  11.312  67.315  1.00  0.00    -0.143 A  
HETATM   24  C   UNL     1      -8.529   9.899  67.234  1.00  0.00    -0.121 A  
BRANCH  22  25
HETATM   25  N   UNL     1      -9.948  13.368  67.509  1.00  0.00    -0.227 NA 
HETATM   26  C   UNL     1      -9.918  14.055  66.214  1.00  0.00    -0.307 C  
HETATM   27  C   UNL     1      -9.734  14.231  68.670  1.00  0.00    -0.213 C  
HETATM   28  C   UNL     1     -10.807  15.321  68.679  1.00  0.00    -0.253 C  
HETATM   29  C   UNL     1     -10.987  15.152  66.216  1.00  0.00    -0.335 C  
HETATM   30  C   UNL     1     -10.790  16.166  67.372  1.00  0.00    -0.265 C  
BRANCH  30  31
HETATM   31  N   UNL     1      -9.563  16.999  67.228  1.00  0.00    -0.240 NA 
HETATM   32  C   UNL     1      -9.561  17.850  66.011  1.00  0.00    -0.083 C  
HETATM   33  C   UNL     1     -10.526  19.060  66.070  1.00  0.00    -0.458 C  
HETATM   34  N   UNL     1     -10.327  19.943  67.237  1.00  0.00    -0.434 NA 
HETATM   35  C   UNL     1      -9.117  20.755  67.087  1.00  0.00    -0.180 C  
HETATM   36  C   UNL     1     -10.270  19.124  68.465  1.00  0.00    -0.367 C  
HETATM   37  C   UNL     1      -9.322  17.900  68.383  1.00  0.00    -0.288 C  
ENDBRANCH  30  31
ENDBRANCH  22  25
BRANCH  23  38
HETATM   38  O   UNL     1      -7.421  12.074  67.151  1.00  0.00    -0.142 OA 
HETATM   39  C   UNL     1      -6.222  11.359  66.872  1.00  0.00    -0.135 C  
ENDBRANCH  23  38
ENDBRANCH  17  19
ENDBRANCH   8  17
BRANCH   5  40
HETATM   40  C   UNL     1      -9.702   4.932  65.598  1.00  0.00    -0.145 C  
HETATM   41  H2  UNL     1      -7.948   5.362  64.772  1.00  0.00     0.000 HD 
HETATM   42  N   UNL     1      -8.942   5.516  64.602  1.00  0.00    -0.363 N  
HETATM   43  O   UNL     1     -10.475   4.021  65.346  1.00  0.00    -0.144 OA 
HETATM   44  H1  UNL     1      -9.195   5.216  63.660  1.00  0.00     0.000 HD 
ENDBRANCH   5  40
ENDBRANCH   2   3
TORSDOF 9
ENDMDL
MODEL       27
REMARK 921   NORMALIZED FREE ENERGY PREDICTED BY IDOCK:   -5.91 KCAL/MOL
REMARK 922        TOTAL FREE ENERGY PREDICTED BY IDOCK:  -11.15 KCAL/MOL
REMARK 923 INTER-LIGAND FREE ENERGY PREDICTED BY IDOCK:   -9.16 KCAL/MOL
REMARK 924 INTRA-LIGAND FREE ENERGY PREDICTED BY IDOCK:   -1.99 KCAL/MOL
REMARK 927      BINDING AFFINITY PREDICTED BY RF-SCORE:    0.00 PKD
ROOT
HETATM    1  C   UNL     1     -10.790  19.230  67.520  1.00  0.00    -0.524 C  
HETATM    2  C   UNL     1     -10.460  18.281  68.670  1.00  0.00    -0.185 C  
ENDROOT
BRANCH   2   3
HETATM    3  C   UNL     1     -10.157  16.887  68.232  1.00  0.00    -0.302 A  
HETATM    4  C   UNL     1     -10.537  15.711  68.943  1.00  0.00    -0.228 A  
HETATM    5  C   UNL     1      -8.625  15.737  67.047  1.00  0.00    -0.218 A  
HETATM    6  N   UNL     1     -10.039  14.495  68.541  1.00  0.00    -0.236 NA 
HETATM    7  N   UNL     1      -9.278  16.901  67.224  1.00  0.00    -0.224 NA 
HETATM    8  C   UNL     1      -9.081  14.499  67.532  1.00  0.00    -0.193 A  
BRANCH   4   9
HETATM    9  N   UNL     1     -11.456  15.904  69.957  1.00  0.00    -0.337 NA 
HETATM   10  H   UNL     1     -11.161  16.686  70.542  1.00  0.00     0.000 HD 
BRANCH   9  11
HETATM   11  C   UNL     1     -12.716  15.355  70.466  1.00  0.00    -0.405 C  
HETATM   12  O   UNL     1     -13.226  13.305  72.398  1.00  0.00    -0.474 OA 
HETATM   13  C   UNL     1     -12.468  12.982  71.233  1.00  0.00    -0.218 C  
HETATM   14  C   UNL     1     -13.191  15.692  71.870  1.00  0.00    -0.537 C  
HETATM   15  C   UNL     1     -12.892  13.886  70.098  1.00  0.00    -0.053 C  
HETATM   16  C   UNL     1     -12.910  14.605  72.897  1.00  0.00    -0.461 C  
ENDBRANCH   9  11
ENDBRANCH   4   9
BRANCH   8  17
HETATM   17  N   UNL     1      -8.657  13.289  66.898  1.00  0.00    -0.391 NA 
HETATM   18  H   UNL     1      -8.505  13.344  65.891  1.00  0.00     0.000 HD 
BRANCH  17  19
HETATM   19  C   UNL     1      -8.419  12.013  67.493  1.00  0.00    -0.165 A  
HETATM   20  C   UNL     1      -9.242  10.931  67.186  1.00  0.00    -0.159 A  
HETATM   21  C   UNL     1      -9.276   9.788  68.015  1.00  0.00    -0.131 A  
HETATM   22  C   UNL     1      -8.524   9.685  69.203  1.00  0.00    -0.143 A  
HETATM   23  C   UNL     1      -7.596  10.723  69.437  1.00  0.00    -0.112 A  
HETATM   24  C   UNL     1      -7.522  11.835  68.564  1.00  0.00    -0.110 A  
BRANCH  22  25
HETATM   25  N   UNL     1      -8.816   8.657  70.096  1.00  0.00    -0.136 NA 
HETATM   26  C   UNL     1      -8.293   7.301  69.896  1.00  0.00    -0.135 C  
HETATM   27  C   UNL     1      -9.974   8.745  70.985  1.00  0.00    -0.234 C  
HETATM   28  C   UNL     1      -9.593   8.171  72.350  1.00  0.00    -0.335 C  
HETATM   29  C   UNL     1      -7.912   6.717  71.260  1.00  0.00    -0.107 C  
HETATM   30  C   UNL     1      -9.107   6.696  72.247  1.00  0.00    -0.137 C  
BRANCH  30  31
HETATM   31  N   UNL     1     -10.188   5.749  71.851  1.00  0.00    -0.195 NA 
HETATM   32  C   UNL     1      -9.693   4.394  71.501  1.00  0.00    -0.174 C  
HETATM   33  C   UNL     1      -9.223   3.547  72.709  1.00  0.00    -0.100 C  
HETATM   34  N   UNL     1     -10.233   3.395  73.777  1.00  0.00    -0.129 NA 
HETATM   35  C   UNL     1     -11.291   2.465  73.376  1.00  0.00    -0.154 C  
HETATM   36  C   UNL     1     -10.788   4.721  74.116  1.00  0.00    -0.192 C  
HETATM   37  C   UNL     1     -11.228   5.570  72.896  1.00  0.00    -0.305 C  
ENDBRANCH  30  31
ENDBRANCH  22  25
BRANCH  23  38
HETATM   38  O   UNL     1      -6.752  10.592  70.521  1.00  0.00    -0.312 OA 
HETATM   39  C   UNL     1      -5.449  10.090  70.245  1.00  0.00    -0.047 C  
ENDBRANCH  23  38
ENDBRANCH  17  19
ENDBRANCH   8  17
BRANCH   5  40
HETATM   40  C   UNL     1      -7.169  16.010  66.802  1.00  0.00    -0.107 C  
HETATM   41  H2  UNL     1      -7.333  17.989  66.812  1.00  0.00     0.000 HD 
HETATM   42  N   UNL     1      -6.920  17.249  66.244  1.00  0.00    -0.269 N  
HETATM   43  O   UNL     1      -6.256  15.306  67.203  1.00  0.00    -0.293 OA 
HETATM   44  H1  UNL     1      -5.930  17.435  66.078  1.00  0.00     0.000 HD 
ENDBRANCH   5  40
ENDBRANCH   2   3
TORSDOF 9
ENDMDL
MODEL       28
REMARK 921   NORMALIZED FREE ENERGY PREDICTED BY IDOCK:   -5.89 KCAL/MOL
REMARK 922        TOTAL FREE ENERGY PREDICTED BY IDOCK:  -11.12 KCAL/MOL
REMARK 923 INTER-LIGAND FREE ENERGY PREDICTED BY IDOCK:   -9.58 KCAL/MOL
REMARK 924 INTRA-LIGAND FREE ENERGY PREDICTED BY IDOCK:   -1.54 KCAL/MOL
REMARK 927      BINDING AFFINITY PREDICTED BY RF-SCORE:    0.00 PKD
ROOT
HETATM    1  C   UNL     1     -10.129   3.835  64.317  1.00  0.00    -0.221 C  
HETATM    2  C   UNL     1      -9.322   4.300  65.527  1.00  0.00    -0.162 C  
ENDROOT
BRANCH   2   3
HETATM    3  C   UNL     1      -9.719   5.646  66.034  1.00  0.00    -0.051 A  
HETATM    4  C   UNL     1      -9.015   6.856  65.768  1.00  0.00    -0.009 A  
HETATM    5  C   UNL     1     -10.792   6.594  67.774  1.00  0.00    -0.294 A  
HETATM    6  N   UNL     1      -9.367   8.000  66.444  1.00  0.00    -0.197 NA 
HETATM    7  N   UNL     1     -10.672   5.525  66.966  1.00  0.00    -0.253 NA 
HETATM    8  C   UNL     1     -10.316   7.878  67.453  1.00  0.00    -0.279 A  
BRANCH   4   9
HETATM    9  N   UNL     1      -8.061   6.777  64.771  1.00  0.00    -0.191 NA 
HETATM   10  H   UNL     1      -7.785   5.805  64.638  1.00  0.00     0.000 HD 
BRANCH   9  11
HETATM   11  C   UNL     1      -7.317   7.634  63.842  1.00  0.00    -0.092 C  
HETATM   12  O   UNL     1      -7.517  10.437  63.300  1.00  0.00    -0.135 OA 
HETATM   13  C   UNL     1      -8.663   9.611  63.097  1.00  0.00    -0.230 C  
HETATM   14  C   UNL     1      -6.280   8.615  64.362  1.00  0.00    -0.067 C  
HETATM   15  C   UNL     1      -8.211   8.211  62.751  1.00  0.00    -0.131 C  
HETATM   16  C   UNL     1      -6.779  10.049  64.458  1.00  0.00    -0.128 C  
ENDBRANCH   9  11
ENDBRANCH   4   9
BRANCH   8  17
HETATM   17  N   UNL     1     -10.905   9.027  68.070  1.00  0.00    -0.472 NA 
HETATM   18  H   UNL     1     -11.383   8.860  68.955  1.00  0.00     0.000 HD 
BRANCH  17  19
HETATM   19  C   UNL     1     -10.909  10.377  67.606  1.00  0.00    -0.306 A  
HETATM   20  C   UNL     1      -9.909  10.827  66.747  1.00  0.00    -0.233 A  
HETATM   21  C   UNL     1      -9.666  12.208  66.576  1.00  0.00    -0.234 A  
HETATM   22  C   UNL     1     -10.381  13.200  67.277  1.00  0.00    -0.243 A  
HETATM   23  C   UNL     1     -11.478  12.745  68.042  1.00  0.00    -0.318 A  
HETATM   24  C   UNL     1     -11.753  11.362  68.156  1.00  0.00    -0.355 A  
BRANCH  22  25
HETATM   25  N   UNL     1      -9.905  14.509  67.260  1.00  0.00    -0.233 NA 
HETATM   26  C   UNL     1      -9.735  15.243  66.002  1.00  0.00    -0.335 C  
HETATM   27  C   UNL     1      -9.150  15.045  68.393  1.00  0.00    -0.184 C  
HETATM   28  C   UNL     1      -9.570  16.497  68.623  1.00  0.00    -0.241 C  
HETATM   29  C   UNL     1     -10.149  16.701  66.225  1.00  0.00    -0.342 C  
HETATM   30  C   UNL     1      -9.339  17.377  67.360  1.00  0.00    -0.237 C  
BRANCH  30  31
HETATM   31  N   UNL     1      -7.897  17.564  67.031  1.00  0.00    -0.205 NA 
HETATM   32  C   UNL     1      -7.652  18.599  65.996  1.00  0.00    -0.202 C  
HETATM   33  C   UNL     1      -7.858  20.056  66.480  1.00  0.00    -0.306 C  
HETATM   34  N   UNL     1      -7.070  20.419  67.675  1.00  0.00    -0.291 NA 
HETATM   35  C   UNL     1      -5.655  20.597  67.341  1.00  0.00    -0.191 C  
HETATM   36  C   UNL     1      -7.247  19.381  68.711  1.00  0.00    -0.355 C  
HETATM   37  C   UNL     1      -7.066  17.926  68.207  1.00  0.00    -0.232 C  
ENDBRANCH  30  31
ENDBRANCH  22  25
BRANCH  23  38
HETATM   38  O   UNL     1     -12.279  13.698  68.639  1.00  0.00    -0.339 OA 
HETATM   39  C   UNL     1     -12.197  13.786  70.057  1.00  0.00    -0.342 C  
ENDBRANCH  23  38
ENDBRANCH  17  19
ENDBRANCH   8  17
BRANCH   5  40
HETATM   40  C   UNL     1     -10.953   6.135  69.194  1.00  0.00    -0.381 C  
HETATM   41  H2  UNL     1      -9.011   6.085  69.607  1.00  0.00     0.000 HD 
HETATM   42  N   UNL     1      -9.839   5.496  69.703  1.00  0.00    -0.176 N  
HETATM   43  O   UNL     1     -11.892   6.432  69.915  1.00  0.00    -0.384 OA 
HETATM   44  H1  UNL     1      -9.947   5.184  70.668  1.00  0.00     0.000 HD 
ENDBRANCH   5  40
ENDBRANCH   2   3
TORSDOF 9
ENDMDL
MODEL       29
REMARK 921   NORMALIZED FREE ENERGY PREDICTED BY IDOCK:   -5.88 KCAL/MOL
REMARK 922        TOTAL FREE ENERGY PREDICTED BY IDOCK:  -11.11 KCAL/MOL
REMARK 923 INTER-LIGAND FREE ENERGY PREDICTED BY IDOCK:   -9.82 KCAL/MOL
REMARK 924 INTRA-LIGAND FREE ENERGY PREDICTED BY IDOCK:   -1.29 KCAL/MOL
REMARK 927      BINDING AFFINITY PREDICTED BY RF-SCORE:    0.00 PKD
ROOT
HETATM    1  C   UNL     1      -9.816   4.190  70.853  1.00  0.00    -0.247 C  
HETATM    2  C   UNL     1      -9.112   5.385  70.216  1.00  0.00    -0.166 C  
ENDROOT
BRANCH   2   3
HETATM    3  C   UNL     1      -9.865   6.667  70.345  1.00  0.00    -0.175 A  
HETATM    4  C   UNL     1      -9.292   7.911  70.740  1.00  0.00    -0.157 A  
HETATM    5  C   UNL     1     -11.939   7.419  70.803  1.00  0.00    -0.230 A  
HETATM    6  N   UNL     1     -10.119   8.976  71.006  1.00  0.00    -0.256 NA 
HETATM    7  N   UNL     1     -11.181   6.436  70.282  1.00  0.00    -0.351 NA 
HETATM    8  C   UNL     1     -11.490   8.737  70.998  1.00  0.00    -0.285 A  
BRANCH   4   9
HETATM    9  N   UNL     1      -7.911   7.949  70.748  1.00  0.00    -0.089 NA 
HETATM   10  H   UNL     1      -7.578   8.471  69.938  1.00  0.00     0.000 HD 
BRANCH   9  11
HETATM   11  C   UNL     1      -6.767   7.485  71.540  1.00  0.00    -0.049 C  
HETATM   12  O   UNL     1      -5.292   8.761  73.635  1.00  0.00    -0.082 OA 
HETATM   13  C   UNL     1      -5.350   9.385  72.353  1.00  0.00    -0.065 C  
HETATM   14  C   UNL     1      -6.951   7.083  72.994  1.00  0.00    -0.073 C  
HETATM   15  C   UNL     1      -5.518   8.322  71.291  1.00  0.00    -0.033 C  
HETATM   16  C   UNL     1      -6.535   8.155  73.990  1.00  0.00    -0.120 C  
ENDBRANCH   9  11
ENDBRANCH   4   9
BRANCH   8  17
HETATM   17  N   UNL     1     -12.436   9.808  71.052  1.00  0.00    -0.360 NA 
HETATM   18  H   UNL     1     -13.252   9.651  71.643  1.00  0.00     0.000 HD 
BRANCH  17  19
HETATM   19  C   UNL     1     -12.386  11.069  70.385  1.00  0.00    -0.356 A  
HETATM   20  C   UNL     1     -11.866  11.161  69.095  1.00  0.00    -0.419 A  
HETATM   21  C   UNL     1     -11.458  12.404  68.564  1.00  0.00    -0.350 A  
HETATM   22  C   UNL     1     -11.515  13.604  69.302  1.00  0.00    -0.291 A  
HETATM   23  C   UNL     1     -12.165  13.528  70.554  1.00  0.00    -0.361 A  
HETATM   24  C   UNL     1     -12.630  12.286  71.050  1.00  0.00    -0.352 A  
BRANCH  22  25
HETATM   25  N   UNL     1     -10.849  14.725  68.814  1.00  0.00    -0.246 NA 
HETATM   26  C   UNL     1     -10.593  14.896  67.380  1.00  0.00    -0.263 C  
HETATM   27  C   UNL     1     -10.002  15.533  69.691  1.00  0.00    -0.284 C  
HETATM   28  C   UNL     1     -10.195  17.009  69.341  1.00  0.00    -0.190 C  
HETATM   29  C   UNL     1     -10.779  16.374  67.021  1.00  0.00    -0.217 C  
HETATM   30  C   UNL     1      -9.857  17.303  67.851  1.00  0.00    -0.283 C  
BRANCH  30  31
HETATM   31  N   UNL     1      -8.409  17.140  67.535  1.00  0.00    -0.189 NA 
HETATM   32  C   UNL     1      -8.014  17.734  66.233  1.00  0.00    -0.247 C  
HETATM   33  C   UNL     1      -7.970  19.282  66.218  1.00  0.00    -0.308 C  
HETATM   34  N   UNL     1      -7.113  19.878  67.263  1.00  0.00    -0.219 NA 
HETATM   35  C   UNL     1      -5.693  19.709  66.944  1.00  0.00    -0.173 C  
HETATM   36  C   UNL     1      -7.441  19.270  68.569  1.00  0.00    -0.325 C  
HETATM   37  C   UNL     1      -7.511  17.721  68.564  1.00  0.00    -0.272 C  
ENDBRANCH  30  31
ENDBRANCH  22  25
BRANCH  23  38
HETATM   38  O   UNL     1     -12.355  14.705  71.248  1.00  0.00    -0.303 OA 
HETATM   39  C   UNL     1     -13.410  14.707  72.203  1.00  0.00    -0.375 C  
ENDBRANCH  23  38
ENDBRANCH  17  19
ENDBRANCH   8  17
BRANCH   5  40
HETATM   40  C   UNL     1     -13.037   6.820  71.633  1.00  0.00    -0.195 C  
HETATM   41  H2  UNL     1     -11.864   6.242  73.127  1.00  0.00     0.000 HD 
HETATM   42  N   UNL     1     -12.600   5.864  72.531  1.00  0.00    -0.431 N  
HETATM   43  O   UNL     1     -14.185   7.233  71.664  1.00  0.00    -0.430 OA 
HETATM   44  H1  UNL     1     -13.346   5.457  73.095  1.00  0.00     0.000 HD 
ENDBRANCH   5  40
ENDBRANCH   2   3
TORSDOF 9
ENDMDL
MODEL       30
REMARK 921   NORMALIZED FREE ENERGY PREDICTED BY IDOCK:   -5.88 KCAL/MOL
REMARK 922        TOTAL FREE ENERGY PREDICTED BY IDOCK:  -11.11 KCAL/MOL
REMARK 923 INTER-LIGAND FREE ENERGY PREDICTED BY IDOCK:   -9.25 KCAL/MOL
REMARK 924 INTRA-LIGAND FREE ENERGY PREDICTED BY IDOCK:   -1.86 KCAL/MOL
REMARK 927      BINDING AFFINITY PREDICTED BY RF-SCORE:    0.00 PKD
ROOT
HETATM    1  C   UNL     1      -6.859   5.210  70.434  1.00  0.00    -0.044 C  
HETATM    2  C   UNL     1      -6.484   6.541  69.786  1.00  0.00    -0.043 C  
ENDROOT
BRANCH   2   3
HETATM    3  C   UNL     1      -7.657   7.402  69.455  1.00  0.00    -0.099 A  
HETATM    4  C   UNL     1      -8.489   8.047  70.416  1.00  0.00    -0.130 A  
HETATM    5  C   UNL     1      -9.220   7.659  67.853  1.00  0.00    -0.136 A  
HETATM    6  N   UNL     1      -9.648   8.656  69.998  1.00  0.00    -0.167 NA 
HETATM    7  N   UNL     1      -7.964   7.284  68.158  1.00  0.00    -0.121 NA 
HETATM    8  C   UNL     1     -10.009   8.494  68.664  1.00  0.00    -0.184 A  
BRANCH   4   9
HETATM    9  N   UNL     1      -7.999   8.060  71.708  1.00  0.00    -0.103 NA 
HETATM   10  H   UNL     1      -7.033   8.388  71.704  1.00  0.00     0.000 HD 
BRANCH   9  11
HETATM   11  C   UNL     1      -8.413   7.759  73.082  1.00  0.00    -0.163 C  
HETATM   12  O   UNL     1     -10.033   5.647  74.135  1.00  0.00    -0.183 OA 
HETATM   13  C   UNL     1     -10.593   6.527  73.161  1.00  0.00    -0.265 C  
HETATM   14  C   UNL     1      -7.797   6.590  73.832  1.00  0.00    -0.097 C  
HETATM   15  C   UNL     1      -9.921   7.877  73.267  1.00  0.00    -0.331 C  
HETATM   16  C   UNL     1      -8.667   5.341  73.855  1.00  0.00    -0.118 C  
ENDBRANCH   9  11
ENDBRANCH   4   9
BRANCH   8  17
HETATM   17  N   UNL     1     -11.071   9.252  68.079  1.00  0.00    -0.501 NA 
HETATM   18  H   UNL     1     -11.926   8.735  67.874  1.00  0.00     0.000 HD 
BRANCH  17  19
HETATM   19  C   UNL     1     -11.090  10.639  67.744  1.00  0.00    -0.321 A  
HETATM   20  C   UNL     1     -10.234  11.137  66.764  1.00  0.00    -0.272 A  
HETATM   21  C   UNL     1      -9.958  12.519  66.675  1.00  0.00    -0.243 A  
HETATM   22  C   UNL     1     -10.491  13.463  67.576  1.00  0.00    -0.236 A  
HETATM   23  C   UNL     1     -11.458  12.973  68.481  1.00  0.00    -0.304 A  
HETATM   24  C   UNL     1     -11.777  11.595  68.519  1.00  0.00    -0.378 A  
BRANCH  22  25
HETATM   25  N   UNL     1      -9.962  14.751  67.591  1.00  0.00    -0.226 NA 
HETATM   26  C   UNL     1     -10.305  15.729  66.553  1.00  0.00    -0.294 C  
HETATM   27  C   UNL     1      -8.740  15.050  68.338  1.00  0.00    -0.175 C  
HETATM   28  C   UNL     1      -8.888  16.421  68.999  1.00  0.00    -0.240 C  
HETATM   29  C   UNL     1     -10.451  17.107  67.206  1.00  0.00    -0.313 C  
HETATM   30  C   UNL     1      -9.167  17.542  67.957  1.00  0.00    -0.275 C  
BRANCH  30  31
HETATM   31  N   UNL     1      -8.011  17.804  67.054  1.00  0.00    -0.211 NA 
HETATM   32  C   UNL     1      -8.243  18.917  66.098  1.00  0.00    -0.204 C  
HETATM   33  C   UNL     1      -8.224  20.328  66.735  1.00  0.00    -0.264 C  
HETATM   34  N   UNL     1      -6.996  20.638  67.497  1.00  0.00    -0.326 NA 
HETATM   35  C   UNL     1      -5.867  20.890  66.599  1.00  0.00    -0.226 C  
HETATM   36  C   UNL     1      -6.703  19.525  68.423  1.00  0.00    -0.280 C  
HETATM   37  C   UNL     1      -6.753  18.116  67.779  1.00  0.00    -0.204 C  
ENDBRANCH  30  31
ENDBRANCH  22  25
BRANCH  23  38
HETATM   38  O   UNL     1     -12.096  13.890  69.292  1.00  0.00    -0.336 OA 
HETATM   39  C   UNL     1     -11.696  13.902  70.658  1.00  0.00    -0.119 C  
ENDBRANCH  23  38
ENDBRANCH  17  19
ENDBRANCH   8  17
BRANCH   5  40
HETATM   40  C   UNL     1      -9.825   6.663  66.907  1.00  0.00    -0.171 C  
HETATM   41  H2  UNL     1     -11.533   7.643  66.653  1.00  0.00     0.000 HD 
HETATM   42  N   UNL     1     -11.206   6.701  66.865  1.00  0.00    -0.784 N  
HETATM   43  O   UNL     1      -9.190   5.992  66.109  1.00  0.00    -0.157 OA 
HETATM   44  H1  UNL     1     -11.618   6.025  66.222  1.00  0.00     0.000 HD 
ENDBRANCH   5  40
ENDBRANCH   2   3
TORSDOF 9
ENDMDL
MODEL       31
REMARK 921   NORMALIZED FREE ENERGY PREDICTED BY IDOCK:   -5.86 KCAL/MOL
REMARK 922        TOTAL FREE ENERGY PREDICTED BY IDOCK:  -11.08 KCAL/MOL
REMARK 923 INTER-LIGAND FREE ENERGY PREDICTED BY IDOCK:   -9.15 KCAL/MOL
REMARK 924 INTRA-LIGAND FREE ENERGY PREDICTED BY IDOCK:   -1.92 KCAL/MOL
REMARK 927      BINDING AFFINITY PREDICTED BY RF-SCORE:    0.00 PKD
ROOT
HETATM    1  C   UNL     1     -10.784  19.151  67.408  1.00  0.00    -0.578 C  
HETATM    2  C   UNL     1     -10.280  18.556  66.095  1.00  0.00    -0.424 C  
ENDROOT
BRANCH   2   3
HETATM    3  C   UNL     1      -9.238  17.503  66.272  1.00  0.00    -0.203 A  
HETATM    4  C   UNL     1      -9.433  16.114  66.017  1.00  0.00    -0.339 A  
HETATM    5  C   UNL     1      -7.406  17.070  67.509  1.00  0.00    -0.154 A  
HETATM    6  N   UNL     1      -8.462  15.220  66.397  1.00  0.00    -0.174 NA 
HETATM    7  N   UNL     1      -8.186  18.002  66.932  1.00  0.00    -0.234 NA 
HETATM    8  C   UNL     1      -7.390  15.715  67.132  1.00  0.00    -0.212 A  
BRANCH   4   9
HETATM    9  N   UNL     1     -10.587  15.797  65.325  1.00  0.00    -0.409 NA 
HETATM   10  H   UNL     1     -10.568  16.240  64.407  1.00  0.00     0.000 HD 
BRANCH   9  11
HETATM   11  C   UNL     1     -11.829  15.033  65.479  1.00  0.00    -0.071 C  
HETATM   12  O   UNL     1     -12.341  12.223  65.295  1.00  0.00    -0.555 OA 
HETATM   13  C   UNL     1     -11.793  12.901  64.164  1.00  0.00    -0.414 C  
HETATM   14  C   UNL     1     -12.065  14.190  66.721  1.00  0.00    -0.474 C  
HETATM   15  C   UNL     1     -12.243  14.343  64.184  1.00  0.00    -0.393 C  
HETATM   16  C   UNL     1     -11.794  12.706  66.522  1.00  0.00    -0.396 C  
ENDBRANCH   9  11
ENDBRANCH   4   9
BRANCH   8  17
HETATM   17  N   UNL     1      -6.230  14.920  67.394  1.00  0.00    -0.325 NA 
HETATM   18  H   UNL     1      -5.339  15.330  67.116  1.00  0.00     0.000 HD 
BRANCH  17  19
HETATM   19  C   UNL     1      -6.159  13.627  67.993  1.00  0.00    -0.138 A  
HETATM   20  C   UNL     1      -6.671  12.515  67.326  1.00  0.00    -0.122 A  
HETATM   21  C   UNL     1      -6.958  11.320  68.021  1.00  0.00    -0.068 A  
HETATM   22  C   UNL     1      -6.783  11.188  69.414  1.00  0.00    -0.120 A  
HETATM   23  C   UNL     1      -6.142  12.267  70.060  1.00  0.00    -0.130 A  
HETATM   24  C   UNL     1      -5.799  13.437  69.341  1.00  0.00    -0.093 A  
BRANCH  22  25
HETATM   25  N   UNL     1      -7.340  10.086  70.059  1.00  0.00    -0.155 NA 
HETATM   26  C   UNL     1      -6.496   9.070  70.698  1.00  0.00    -0.056 C  
HETATM   27  C   UNL     1      -8.704   9.653  69.758  1.00  0.00    -0.208 C  
HETATM   28  C   UNL     1      -9.380   9.214  71.058  1.00  0.00    -0.333 C  
HETATM   29  C   UNL     1      -7.168   8.621  71.999  1.00  0.00    -0.074 C  
HETATM   30  C   UNL     1      -8.598   8.069  71.764  1.00  0.00    -0.133 C  
BRANCH  30  31
HETATM   31  N   UNL     1      -8.621   6.787  71.004  1.00  0.00    -0.136 NA 
HETATM   32  C   UNL     1      -7.763   5.729  71.594  1.00  0.00    -0.101 C  
HETATM   33  C   UNL     1      -8.314   5.108  72.902  1.00  0.00    -0.109 C  
HETATM   34  N   UNL     1      -9.684   4.566  72.790  1.00  0.00    -0.137 NA 
HETATM   35  C   UNL     1      -9.695   3.309  72.039  1.00  0.00    -0.165 C  
HETATM   36  C   UNL     1     -10.557   5.574  72.156  1.00  0.00    -0.226 C  
HETATM   37  C   UNL     1      -9.982   6.209  70.864  1.00  0.00    -0.185 C  
ENDBRANCH  30  31
ENDBRANCH  22  25
BRANCH  23  38
HETATM   38  O   UNL     1      -5.839  12.121  71.399  1.00  0.00    -0.324 OA 
HETATM   39  C   UNL     1      -5.204  13.232  72.022  1.00  0.00    -0.085 C  
ENDBRANCH  23  38
ENDBRANCH  17  19
ENDBRANCH   8  17
BRANCH   5  40
HETATM   40  C   UNL     1      -7.029  17.517  68.892  1.00  0.00    -0.252 C  
HETATM   41  H2  UNL     1      -8.343  19.003  68.985  1.00  0.00     0.000 HD 
HETATM   42  N   UNL     1      -7.353  18.834  69.160  1.00  0.00    -0.243 N  
HETATM   43  O   UNL     1      -6.635  16.774  69.777  1.00  0.00    -0.207 OA 
HETATM   44  H1  UNL     1      -7.097  19.138  70.100  1.00  0.00     0.000 HD 
ENDBRANCH   5  40
ENDBRANCH   2   3
TORSDOF 9
ENDMDL
MODEL       32
REMARK 921   NORMALIZED FREE ENERGY PREDICTED BY IDOCK:   -5.84 KCAL/MOL
REMARK 922        TOTAL FREE ENERGY PREDICTED BY IDOCK:  -11.05 KCAL/MOL
REMARK 923 INTER-LIGAND FREE ENERGY PREDICTED BY IDOCK:   -9.14 KCAL/MOL
REMARK 924 INTRA-LIGAND FREE ENERGY PREDICTED BY IDOCK:   -1.91 KCAL/MOL
REMARK 927      BINDING AFFINITY PREDICTED BY RF-SCORE:    0.00 PKD
ROOT
HETATM    1  C   UNL     1      -9.731   3.629  71.237  1.00  0.00    -0.239 C  
HETATM    2  C   UNL     1      -9.519   3.616  69.725  1.00  0.00    -0.254 C  
ENDROOT
BRANCH   2   3
HETATM    3  C   UNL     1      -9.902   4.891  69.052  1.00  0.00    -0.180 A  
HETATM    4  C   UNL     1      -9.208   5.470  67.950  1.00  0.00    -0.108 A  
HETATM    5  C   UNL     1     -10.924   6.848  69.502  1.00  0.00    -0.250 A  
HETATM    6  N   UNL     1      -9.542   6.739  67.539  1.00  0.00    -0.126 NA 
HETATM    7  N   UNL     1     -10.827   5.534  69.775  1.00  0.00    -0.298 NA 
HETATM    8  C   UNL     1     -10.460   7.440  68.314  1.00  0.00    -0.189 A  
BRANCH   4   9
HETATM    9  N   UNL     1      -8.285   4.646  67.335  1.00  0.00    -0.101 NA 
HETATM   10  H   UNL     1      -7.540   4.417  67.991  1.00  0.00     0.000 HD 
BRANCH   9  11
HETATM   11  C   UNL     1      -8.027   3.994  66.047  1.00  0.00    -0.094 C  
HETATM   12  O   UNL     1      -9.322   4.267  63.509  1.00  0.00    -0.147 OA 
HETATM   13  C   UNL     1     -10.091   3.844  64.635  1.00  0.00    -0.213 C  
HETATM   14  C   UNL     1      -7.381   4.766  64.909  1.00  0.00    -0.071 C  
HETATM   15  C   UNL     1      -9.191   3.114  65.605  1.00  0.00    -0.141 C  
HETATM   16  C   UNL     1      -8.366   5.266  63.862  1.00  0.00    -0.122 C  
ENDBRANCH   9  11
ENDBRANCH   4   9
BRANCH   8  17
HETATM   17  N   UNL     1     -11.032   8.672  67.865  1.00  0.00    -0.487 NA 
HETATM   18  H   UNL     1     -11.782   8.590  67.179  1.00  0.00     0.000 HD 
BRANCH  17  19
HETATM   19  C   UNL     1     -10.688  10.001  68.253  1.00  0.00    -0.240 A  
HETATM   20  C   UNL     1     -11.669  10.989  68.320  1.00  0.00    -0.301 A  
HETATM   21  C   UNL     1     -11.322  12.358  68.326  1.00  0.00    -0.332 A  
HETATM   22  C   UNL     1      -9.988  12.806  68.231  1.00  0.00    -0.230 A  
HETATM   23  C   UNL     1      -8.995  11.805  68.298  1.00  0.00    -0.180 A  
HETATM   24  C   UNL     1      -9.352  10.437  68.357  1.00  0.00    -0.150 A  
BRANCH  22  25
HETATM   25  N   UNL     1      -9.750  14.154  67.971  1.00  0.00    -0.219 NA 
HETATM   26  C   UNL     1      -9.310  14.608  66.647  1.00  0.00    -0.271 C  
HETATM   27  C   UNL     1      -9.490  15.092  69.062  1.00  0.00    -0.221 C  
HETATM   28  C   UNL     1     -10.190  16.416  68.751  1.00  0.00    -0.258 C  
HETATM   29  C   UNL     1     -10.002  15.937  66.330  1.00  0.00    -0.318 C  
HETATM   30  C   UNL     1      -9.715  17.022  67.399  1.00  0.00    -0.252 C  
BRANCH  30  31
HETATM   31  N   UNL     1      -8.294  17.470  67.423  1.00  0.00    -0.209 NA 
HETATM   32  C   UNL     1      -7.883  18.214  66.206  1.00  0.00    -0.245 C  
HETATM   33  C   UNL     1      -8.462  19.647  66.101  1.00  0.00    -0.334 C  
HETATM   34  N   UNL     1      -8.181  20.506  67.269  1.00  0.00    -0.337 NA 
HETATM   35  C   UNL     1      -6.782  20.937  67.285  1.00  0.00    -0.352 C  
HETATM   36  C   UNL     1      -8.528  19.776  68.506  1.00  0.00    -0.228 C  
HETATM   37  C   UNL     1      -7.967  18.333  68.586  1.00  0.00    -0.289 C  
ENDBRANCH  30  31
ENDBRANCH  22  25
BRANCH  23  38
HETATM   38  O   UNL     1      -7.677  12.215  68.337  1.00  0.00    -0.123 OA 
HETATM   39  C   UNL     1      -6.781  11.375  69.056  1.00  0.00    -0.092 C  
ENDBRANCH  23  38
ENDBRANCH  17  19
ENDBRANCH   8  17
BRANCH   5  40
HETATM   40  C   UNL     1     -11.041   7.620  70.784  1.00  0.00    -0.264 C  
HETATM   41  H2  UNL     1     -13.023   7.738  70.766  1.00  0.00     0.000 HD 
HETATM   42  N   UNL     1     -12.213   8.344  70.896  1.00  0.00    -0.486 N  
HETATM   43  O   UNL     1     -10.279   7.507  71.732  1.00  0.00    -0.186 OA 
HETATM   44  H1  UNL     1     -12.292   8.868  71.767  1.00  0.00     0.000 HD 
ENDBRANCH   5  40
ENDBRANCH   2   3
TORSDOF 9
ENDMDL
MODEL       33
REMARK 921   NORMALIZED FREE ENERGY PREDICTED BY IDOCK:   -5.84 KCAL/MOL
REMARK 922        TOTAL FREE ENERGY PREDICTED BY IDOCK:  -11.04 KCAL/MOL
REMARK 923 INTER-LIGAND FREE ENERGY PREDICTED BY IDOCK:   -9.08 KCAL/MOL
REMARK 924 INTRA-LIGAND FREE ENERGY PREDICTED BY IDOCK:   -1.96 KCAL/MOL
REMARK 927      BINDING AFFINITY PREDICTED BY RF-SCORE:    0.00 PKD
ROOT
HETATM    1  C   UNL     1     -12.002  15.532  70.408  1.00  0.00    -0.398 C  
HETATM    2  C   UNL     1     -11.212  16.202  69.287  1.00  0.00    -0.337 C  
ENDROOT
BRANCH   2   3
HETATM    3  C   UNL     1     -10.424  15.249  68.452  1.00  0.00    -0.236 A  
HETATM    4  C   UNL     1      -9.507  15.629  67.430  1.00  0.00    -0.215 A  
HETATM    5  C   UNL     1     -10.547  13.154  67.633  1.00  0.00    -0.228 A  
HETATM    6  N   UNL     1      -8.985  14.662  66.603  1.00  0.00    -0.256 NA 
HETATM    7  N   UNL     1     -10.879  14.002  68.624  1.00  0.00    -0.251 NA 
HETATM    8  C   UNL     1      -9.489  13.372  66.733  1.00  0.00    -0.261 A  
BRANCH   4   9
HETATM    9  N   UNL     1      -9.162  16.967  67.413  1.00  0.00    -0.232 NA 
HETATM   10  H   UNL     1      -8.603  17.187  68.237  1.00  0.00     0.000 HD 
BRANCH   9  11
HETATM   11  C   UNL     1      -9.337  18.174  66.598  1.00  0.00    -0.297 C  
HETATM   12  O   UNL     1      -9.289  20.945  67.311  1.00  0.00    -0.369 OA 
HETATM   13  C   UNL     1     -10.247  20.089  67.933  1.00  0.00    -0.405 C  
HETATM   14  C   UNL     1      -8.146  19.055  66.263  1.00  0.00    -0.298 C  
HETATM   15  C   UNL     1     -10.585  18.957  66.991  1.00  0.00    -0.510 C  
HETATM   16  C   UNL     1      -8.030  20.297  67.135  1.00  0.00    -0.339 C  
ENDBRANCH   9  11
ENDBRANCH   4   9
BRANCH   8  17
HETATM   17  N   UNL     1      -8.874  12.260  66.077  1.00  0.00    -0.415 NA 
HETATM   18  H   UNL     1      -8.651  12.393  65.091  1.00  0.00     0.000 HD 
BRANCH  17  19
HETATM   19  C   UNL     1      -8.533  10.987  66.625  1.00  0.00    -0.153 A  
HETATM   20  C   UNL     1      -9.319   9.870  66.348  1.00  0.00    -0.213 A  
HETATM   21  C   UNL     1      -9.241   8.711  67.151  1.00  0.00    -0.175 A  
HETATM   22  C   UNL     1      -8.406   8.622  68.284  1.00  0.00    -0.127 A  
HETATM   23  C   UNL     1      -7.518   9.702  68.480  1.00  0.00    -0.079 A  
HETATM   24  C   UNL     1      -7.558  10.833  67.631  1.00  0.00    -0.096 A  
BRANCH  22  25
HETATM   25  N   UNL     1      -8.586   7.563  69.170  1.00  0.00    -0.136 NA 
HETATM   26  C   UNL     1      -8.416   6.171  68.740  1.00  0.00    -0.118 C  
HETATM   27  C   UNL     1      -9.364   7.737  70.396  1.00  0.00    -0.160 C  
HETATM   28  C   UNL     1      -8.683   6.964  71.527  1.00  0.00    -0.122 C  
HETATM   29  C   UNL     1      -7.738   5.388  69.869  1.00  0.00    -0.080 C  
HETATM   30  C   UNL     1      -8.539   5.451  71.194  1.00  0.00    -0.125 C  
BRANCH  30  31
HETATM   31  N   UNL     1      -9.847   4.738  71.132  1.00  0.00    -0.180 NA 
HETATM   32  C   UNL     1      -9.719   3.284  70.859  1.00  0.00    -0.117 C  
HETATM   33  C   UNL     1      -9.180   2.450  72.047  1.00  0.00    -0.089 C  
HETATM   34  N   UNL     1      -9.946   2.607  73.300  1.00  0.00    -0.101 NA 
HETATM   35  C   UNL     1     -11.229   1.905  73.227  1.00  0.00    -0.164 C  
HETATM   36  C   UNL     1     -10.140   4.045  73.577  1.00  0.00    -0.133 C  
HETATM   37  C   UNL     1     -10.653   4.874  72.371  1.00  0.00    -0.200 C  
ENDBRANCH  30  31
ENDBRANCH  22  25
BRANCH  23  38
HETATM   38  O   UNL     1      -6.598   9.594  69.503  1.00  0.00    -0.046 OA 
HETATM   39  C   UNL     1      -6.295  10.795  70.204  1.00  0.00    -0.147 C  
ENDBRANCH  23  38
ENDBRANCH  17  19
ENDBRANCH   8  17
BRANCH   5  40
HETATM   40  C   UNL     1     -11.736  12.310  67.276  1.00  0.00    -0.324 C  
HETATM   41  H2  UNL     1     -11.328  12.202  65.336  1.00  0.00     0.000 HD 
HETATM   42  N   UNL     1     -12.115  12.411  65.951  1.00  0.00    -0.370 N  
HETATM   43  O   UNL     1     -12.236  11.473  68.011  1.00  0.00    -0.582 OA 
HETATM   44  H1  UNL     1     -12.923  11.837  65.708  1.00  0.00     0.000 HD 
ENDBRANCH   5  40
ENDBRANCH   2   3
TORSDOF 9
ENDMDL
MODEL       34
REMARK 921   NORMALIZED FREE ENERGY PREDICTED BY IDOCK:   -5.77 KCAL/MOL
REMARK 922        TOTAL FREE ENERGY PREDICTED BY IDOCK:  -10.94 KCAL/MOL
REMARK 923 INTER-LIGAND FREE ENERGY PREDICTED BY IDOCK:   -8.92 KCAL/MOL
REMARK 924 INTRA-LIGAND FREE ENERGY PREDICTED BY IDOCK:   -2.03 KCAL/MOL
REMARK 927      BINDING AFFINITY PREDICTED BY RF-SCORE:    0.00 PKD
ROOT
HETATM    1  C   UNL     1     -10.635  19.239  66.802  1.00  0.00    -0.543 C  
HETATM    2  C   UNL     1     -10.651  18.062  65.830  1.00  0.00    -0.225 C  
ENDROOT
BRANCH   2   3
HETATM    3  C   UNL     1      -9.627  17.019  66.131  1.00  0.00    -0.240 A  
HETATM    4  C   UNL     1      -9.918  15.706  66.604  1.00  0.00    -0.258 A  
HETATM    5  C   UNL     1      -7.482  16.838  66.795  1.00  0.00    -0.244 A  
HETATM    6  N   UNL     1      -8.886  14.901  67.025  1.00  0.00    -0.219 NA 
HETATM    7  N   UNL     1      -8.404  17.561  66.133  1.00  0.00    -0.489 NA 
HETATM    8  C   UNL     1      -7.618  15.469  67.086  1.00  0.00    -0.218 A  
BRANCH   4   9
HETATM    9  N   UNL     1     -11.245  15.330  66.524  1.00  0.00    -0.281 NA 
HETATM   10  H   UNL     1     -11.774  16.046  66.026  1.00  0.00     0.000 HD 
BRANCH   9  11
HETATM   11  C   UNL     1     -12.141  14.239  66.919  1.00  0.00    -0.409 C  
HETATM   12  O   UNL     1     -11.678  11.426  67.176  1.00  0.00    -0.556 OA 
HETATM   13  C   UNL     1     -11.464  12.049  65.910  1.00  0.00    -0.333 C  
HETATM   14  C   UNL     1     -12.000  13.583  68.282  1.00  0.00    -0.377 C  
HETATM   15  C   UNL     1     -12.375  13.248  65.785  1.00  0.00    -0.505 C  
HETATM   16  C   UNL     1     -11.254  12.257  68.257  1.00  0.00    -0.267 C  
ENDBRANCH   9  11
ENDBRANCH   4   9
BRANCH   8  17
HETATM   17  N   UNL     1      -6.451  14.671  67.304  1.00  0.00    -0.326 NA 
HETATM   18  H   UNL     1      -5.559  15.127  67.113  1.00  0.00     0.000 HD 
BRANCH  17  19
HETATM   19  C   UNL     1      -6.373  13.319  67.755  1.00  0.00    -0.159 A  
HETATM   20  C   UNL     1      -6.880  12.287  66.969  1.00  0.00    -0.034 A  
HETATM   21  C   UNL     1      -7.161  11.020  67.526  1.00  0.00    -0.091 A  
HETATM   22  C   UNL     1      -6.985  10.734  68.896  1.00  0.00    -0.077 A  
HETATM   23  C   UNL     1      -6.349  11.738  69.658  1.00  0.00    -0.129 A  
HETATM   24  C   UNL     1      -6.011  12.982  69.074  1.00  0.00    -0.084 A  
BRANCH  22  25
HETATM   25  N   UNL     1      -7.536   9.564  69.414  1.00  0.00    -0.082 NA 
HETATM   26  C   UNL     1      -8.810   9.577  70.139  1.00  0.00    -0.235 C  
HETATM   27  C   UNL     1      -6.700   8.389  69.658  1.00  0.00    -0.037 C  
HETATM   28  C   UNL     1      -7.487   7.136  69.270  1.00  0.00    -0.093 C  
HETATM   29  C   UNL     1      -9.603   8.323  69.760  1.00  0.00    -0.171 C  
HETATM   30  C   UNL     1      -8.822   7.018  70.061  1.00  0.00    -0.142 C  
BRANCH  30  31
HETATM   31  N   UNL     1      -8.621   6.769  71.517  1.00  0.00    -0.120 NA 
HETATM   32  C   UNL     1      -9.851   6.951  72.327  1.00  0.00    -0.150 C  
HETATM   33  C   UNL     1     -10.909   5.832  72.155  1.00  0.00    -0.244 C  
HETATM   34  N   UNL     1     -10.401   4.469  72.409  1.00  0.00    -0.195 NA 
HETATM   35  C   UNL     1     -10.204   4.236  73.842  1.00  0.00    -0.174 C  
HETATM   36  C   UNL     1      -9.144   4.268  71.659  1.00  0.00    -0.123 C  
HETATM   37  C   UNL     1      -8.106   5.409  71.817  1.00  0.00    -0.118 C  
ENDBRANCH  30  31
ENDBRANCH  22  25
BRANCH  23  38
HETATM   38  O   UNL     1      -6.044  11.445  70.972  1.00  0.00    -0.360 OA 
HETATM   39  C   UNL     1      -5.154  12.344  71.625  1.00  0.00    -0.054 C  
ENDBRANCH  23  38
ENDBRANCH  17  19
ENDBRANCH   8  17
BRANCH   5  40
HETATM   40  C   UNL     1      -6.636  17.751  67.635  1.00  0.00    -0.182 C  
HETATM   41  H2  UNL     1      -8.155  18.636  68.558  1.00  0.00     0.000 HD 
HETATM   42  N   UNL     1      -7.298  18.885  68.066  1.00  0.00    -0.245 N  
HETATM   43  O   UNL     1      -5.528  17.469  68.062  1.00  0.00    -0.131 OA 
HETATM   44  H1  UNL     1      -6.723  19.506  68.637  1.00  0.00     0.000 HD 
ENDBRANCH   5  40
ENDBRANCH   2   3
TORSDOF 9
ENDMDL
MODEL       35
REMARK 921   NORMALIZED FREE ENERGY PREDICTED BY IDOCK:   -5.72 KCAL/MOL
REMARK 922        TOTAL FREE ENERGY PREDICTED BY IDOCK:  -10.86 KCAL/MOL
REMARK 923 INTER-LIGAND FREE ENERGY PREDICTED BY IDOCK:   -9.19 KCAL/MOL
REMARK 924 INTRA-LIGAND FREE ENERGY PREDICTED BY IDOCK:   -1.67 KCAL/MOL
REMARK 927      BINDING AFFINITY PREDICTED BY RF-SCORE:    0.00 PKD
ROOT
HETATM    1  C   UNL     1      -8.332   4.252  69.604  1.00  0.00    -0.076 C  
HETATM    2  C   UNL     1      -9.784   4.099  70.051  1.00  0.00    -0.282 C  
ENDROOT
BRANCH   2   3
HETATM    3  C   UNL     1     -10.528   5.390  70.136  1.00  0.00    -0.290 A  
HETATM    4  C   UNL     1     -11.000   6.132  69.015  1.00  0.00    -0.367 A  
HETATM    5  C   UNL     1     -10.723   7.191  71.475  1.00  0.00    -0.223 A  
HETATM    6  N   UNL     1     -11.502   7.396  69.211  1.00  0.00     0.234 NA 
HETATM    7  N   UNL     1     -10.472   5.872  71.383  1.00  0.00    -0.227 NA 
HETATM    8  C   UNL     1     -11.400   7.932  70.490  1.00  0.00    -0.234 A  
BRANCH   4   9
HETATM    9  N   UNL     1     -10.973   5.460  67.808  1.00  0.00    -0.031 NA 
HETATM   10  H   UNL     1     -11.466   4.572  67.899  1.00  0.00     0.000 HD 
BRANCH   9  11
HETATM   11  C   UNL     1     -10.468   5.605  66.439  1.00  0.00    -0.198 C  
HETATM   12  O   UNL     1      -8.001   4.776  65.248  1.00  0.00    -0.093 OA 
HETATM   13  C   UNL     1      -7.965   5.672  66.358  1.00  0.00    -0.101 C  
HETATM   14  C   UNL     1     -10.403   4.404  65.511  1.00  0.00    -0.247 C  
HETATM   15  C   UNL     1      -9.232   6.495  66.373  1.00  0.00    -0.178 C  
HETATM   16  C   UNL     1      -9.018   3.785  65.395  1.00  0.00    -0.134 C  
ENDBRANCH   9  11
ENDBRANCH   4   9
BRANCH   8  17
HETATM   17  N   UNL     1     -12.074   9.141  70.851  1.00  0.00    -0.420 NA 
HETATM   18  H   UNL     1     -12.634   9.101  71.702  1.00  0.00     0.000 HD 
BRANCH  17  19
HETATM   19  C   UNL     1     -12.064  10.397  70.173  1.00  0.00    -0.256 A  
HETATM   20  C   UNL     1     -11.531  10.498  68.890  1.00  0.00    -0.292 A  
HETATM   21  C   UNL     1     -11.164  11.751  68.353  1.00  0.00    -0.307 A  
HETATM   22  C   UNL     1     -11.276  12.955  69.079  1.00  0.00    -0.267 A  
HETATM   23  C   UNL     1     -11.938  12.864  70.323  1.00  0.00    -0.283 A  
HETATM   24  C   UNL     1     -12.361  11.610  70.825  1.00  0.00    -0.454 A  
BRANCH  22  25
HETATM   25  N   UNL     1     -10.647  14.097  68.589  1.00  0.00    -0.244 NA 
HETATM   26  C   UNL     1      -9.285  14.453  69.002  1.00  0.00    -0.012 C  
HETATM   27  C   UNL     1     -11.427  15.197  68.024  1.00  0.00    -0.342 C  
HETATM   28  C   UNL     1     -10.686  15.754  66.808  1.00  0.00    -0.293 C  
HETATM   29  C   UNL     1      -8.537  15.016  67.790  1.00  0.00    -0.165 C  
HETATM   30  C   UNL     1      -9.254  16.243  67.171  1.00  0.00    -0.213 C  
BRANCH  30  31
HETATM   31  N   UNL     1      -9.252  17.442  68.058  1.00  0.00    -0.259 NA 
HETATM   32  C   UNL     1      -7.891  17.905  68.429  1.00  0.00    -0.286 C  
HETATM   33  C   UNL     1      -7.111  18.597  67.284  1.00  0.00    -0.205 C  
HETATM   34  N   UNL     1      -7.820  19.735  66.663  1.00  0.00    -0.283 NA 
HETATM   35  C   UNL     1      -7.814  20.905  67.544  1.00  0.00    -0.133 C  
HETATM   36  C   UNL     1      -9.200  19.326  66.328  1.00  0.00    -0.331 C  
HETATM   37  C   UNL     1      -9.959  18.609  67.474  1.00  0.00    -0.338 C  
ENDBRANCH  30  31
ENDBRANCH  22  25
BRANCH  23  38
HETATM   38  O   UNL     1     -12.181  14.039  71.004  1.00  0.00    -0.335 OA 
HETATM   39  C   UNL     1     -13.549  14.368  71.219  1.00  0.00    -0.323 C  
ENDBRANCH  23  38
ENDBRANCH  17  19
ENDBRANCH   8  17
BRANCH   5  40
HETATM   40  C   UNL     1      -9.739   7.825  72.414  1.00  0.00    -0.192 C  
HETATM   41  H2  UNL     1      -9.594   9.539  71.422  1.00  0.00     0.000 HD 
HETATM   42  N   UNL     1      -8.988   8.833  71.838  1.00  0.00    -0.225 N  
HETATM   43  O   UNL     1      -9.698   7.619  73.617  1.00  0.00    -0.287 OA 
HETATM   44  H1  UNL     1      -8.318   9.264  72.476  1.00  0.00     0.000 HD 
ENDBRANCH   5  40
ENDBRANCH   2   3
TORSDOF 9
ENDMDL
MODEL       36
REMARK 921   NORMALIZED FREE ENERGY PREDICTED BY IDOCK:   -5.64 KCAL/MOL
REMARK 922        TOTAL FREE ENERGY PREDICTED BY IDOCK:  -10.74 KCAL/MOL
REMARK 923 INTER-LIGAND FREE ENERGY PREDICTED BY IDOCK:   -8.53 KCAL/MOL
REMARK 924 INTRA-LIGAND FREE ENERGY PREDICTED BY IDOCK:   -2.21 KCAL/MOL
REMARK 927      BINDING AFFINITY PREDICTED BY RF-SCORE:    0.00 PKD
ROOT
HETATM    1  C   UNL     1     -10.757  19.037  67.220  1.00  0.00    -0.556 C  
HETATM    2  C   UNL     1     -10.531  18.170  65.984  1.00  0.00    -0.346 C  
ENDROOT
BRANCH   2   3
HETATM    3  C   UNL     1      -9.574  17.046  66.203  1.00  0.00    -0.240 A  
HETATM    4  C   UNL     1      -9.894  15.665  66.061  1.00  0.00    -0.333 A  
HETATM    5  C   UNL     1      -7.733  16.548  67.403  1.00  0.00    -0.149 A  
HETATM    6  N   UNL     1      -8.985  14.720  66.472  1.00  0.00    -0.259 NA 
HETATM    7  N   UNL     1      -8.457  17.499  66.785  1.00  0.00    -0.239 NA 
HETATM    8  C   UNL     1      -7.846  15.173  67.129  1.00  0.00    -0.205 A  
BRANCH   4   9
HETATM    9  N   UNL     1     -11.098  15.399  65.436  1.00  0.00    -0.342 NA 
HETATM   10  H   UNL     1     -11.466  16.256  65.024  1.00  0.00     0.000 HD 
BRANCH   9  11
HETATM   11  C   UNL     1     -12.018  14.289  65.171  1.00  0.00    -0.395 C  
HETATM   12  O   UNL     1     -11.518  11.573  64.419  1.00  0.00    -0.271 OA 
HETATM   13  C   UNL     1     -11.048  12.621  63.572  1.00  0.00    -0.395 C  
HETATM   14  C   UNL     1     -12.161  13.153  66.170  1.00  0.00    -0.451 C  
HETATM   15  C   UNL     1     -11.953  13.822  63.721  1.00  0.00    -0.365 C  
HETATM   16  C   UNL     1     -11.379  11.901  65.801  1.00  0.00    -0.299 C  
ENDBRANCH   9  11
ENDBRANCH   4   9
BRANCH   8  17
HETATM   17  N   UNL     1      -6.746  14.302  67.408  1.00  0.00    -0.360 NA 
HETATM   18  H   UNL     1      -5.823  14.736  67.403  1.00  0.00     0.000 HD 
BRANCH  17  19
HETATM   19  C   UNL     1      -6.773  12.904  67.694  1.00  0.00    -0.153 A  
HETATM   20  C   UNL     1      -6.031  12.015  66.919  1.00  0.00    -0.076 A  
HETATM   21  C   UNL     1      -6.319  10.633  66.923  1.00  0.00    -0.082 A  
HETATM   22  C   UNL     1      -7.379  10.077  67.669  1.00  0.00    -0.089 A  
HETATM   23  C   UNL     1      -8.041  10.959  68.551  1.00  0.00    -0.137 A  
HETATM   24  C   UNL     1      -7.701  12.333  68.587  1.00  0.00    -0.076 A  
BRANCH  22  25
HETATM   25  N   UNL     1      -7.767   8.765  67.410  1.00  0.00    -0.096 NA 
HETATM   26  C   UNL     1      -7.193   7.639  68.157  1.00  0.00    -0.093 C  
HETATM   27  C   UNL     1      -8.390   8.405  66.137  1.00  0.00    -0.125 C  
HETATM   28  C   UNL     1      -9.501   7.388  66.402  1.00  0.00    -0.194 C  
HETATM   29  C   UNL     1      -8.299   6.613  68.422  1.00  0.00    -0.122 C  
HETATM   30  C   UNL     1      -8.965   6.113  67.115  1.00  0.00    -0.111 C  
BRANCH  30  31
HETATM   31  N   UNL     1      -8.056   5.300  66.258  1.00  0.00    -0.108 NA 
HETATM   32  C   UNL     1      -7.666   4.003  66.866  1.00  0.00    -0.088 C  
HETATM   33  C   UNL     1      -8.792   2.940  66.895  1.00  0.00    -0.143 C  
HETATM   34  N   UNL     1      -9.396   2.655  65.577  1.00  0.00    -0.094 NA 
HETATM   35  C   UNL     1      -8.493   1.859  64.743  1.00  0.00    -0.088 C  
HETATM   36  C   UNL     1      -9.749   3.928  64.916  1.00  0.00    -0.188 C  
HETATM   37  C   UNL     1      -8.623   4.994  64.920  1.00  0.00    -0.150 C  
ENDBRANCH  30  31
ENDBRANCH  22  25
BRANCH  23  38
HETATM   38  O   UNL     1      -8.998  10.425  69.390  1.00  0.00    -0.194 OA 
HETATM   39  C   UNL     1     -10.335  10.436  68.903  1.00  0.00    -0.209 C  
ENDBRANCH  23  38
ENDBRANCH  17  19
ENDBRANCH   8  17
BRANCH   5  40
HETATM   40  C   UNL     1      -7.263  17.060  68.734  1.00  0.00    -0.226 C  
HETATM   41  H2  UNL     1      -8.418  18.676  68.744  1.00  0.00     0.000 HD 
HETATM   42  N   UNL     1      -7.443  18.420  68.904  1.00  0.00    -0.275 N  
HETATM   43  O   UNL     1      -6.914  16.351  69.664  1.00  0.00    -0.211 OA 
HETATM   44  H1  UNL     1      -7.124  18.768  69.808  1.00  0.00     0.000 HD 
ENDBRANCH   5  40
ENDBRANCH   2   3
TORSDOF 9
ENDMDL
MODEL       37
REMARK 921   NORMALIZED FREE ENERGY PREDICTED BY IDOCK:   -5.60 KCAL/MOL
REMARK 922        TOTAL FREE ENERGY PREDICTED BY IDOCK:  -10.68 KCAL/MOL
REMARK 923 INTER-LIGAND FREE ENERGY PREDICTED BY IDOCK:   -8.63 KCAL/MOL
REMARK 924 INTRA-LIGAND FREE ENERGY PREDICTED BY IDOCK:   -2.05 KCAL/MOL
REMARK 927      BINDING AFFINITY PREDICTED BY RF-SCORE:    0.00 PKD
ROOT
HETATM    1  C   UNL     1     -12.265  15.401  70.342  1.00  0.00    -0.430 C  
HETATM    2  C   UNL     1     -11.821  15.985  69.003  1.00  0.00    -0.258 C  
ENDROOT
BRANCH   2   3
HETATM    3  C   UNL     1     -10.995  15.052  68.183  1.00  0.00    -0.279 A  
HETATM    4  C   UNL     1      -9.632  15.269  67.829  1.00  0.00    -0.206 A  
HETATM    5  C   UNL     1     -11.224  13.510  66.556  1.00  0.00    -0.306 A  
HETATM    6  N   UNL     1      -9.035  14.435  66.914  1.00  0.00    -0.242 NA 
HETATM    7  N   UNL     1     -11.773  14.118  67.624  1.00  0.00    -0.366 NA 
HETATM    8  C   UNL     1      -9.844  13.495  66.284  1.00  0.00    -0.299 A  
BRANCH   4   9
HETATM    9  N   UNL     1      -8.998  16.288  68.516  1.00  0.00    -0.210 NA 
HETATM   10  H   UNL     1      -9.452  16.426  69.418  1.00  0.00     0.000 HD 
BRANCH   9  11
HETATM   11  C   UNL     1      -7.888  17.234  68.372  1.00  0.00    -0.254 C  
HETATM   12  O   UNL     1      -5.633  17.231  66.608  1.00  0.00    -0.169 OA 
HETATM   13  C   UNL     1      -5.815  16.131  67.498  1.00  0.00    -0.153 C  
HETATM   14  C   UNL     1      -7.821  18.166  67.173  1.00  0.00    -0.230 C  
HETATM   15  C   UNL     1      -6.547  16.606  68.733  1.00  0.00    -0.169 C  
HETATM   16  C   UNL     1      -6.873  17.699  66.078  1.00  0.00    -0.273 C  
ENDBRANCH   9  11
ENDBRANCH   4   9
BRANCH   8  17
HETATM   17  N   UNL     1      -9.291  12.449  65.482  1.00  0.00    -0.439 NA 
HETATM   18  H   UNL     1      -9.019  12.712  64.534  1.00  0.00     0.000 HD 
BRANCH  17  19
HETATM   19  C   UNL     1      -9.069  11.084  65.835  1.00  0.00    -0.197 A  
HETATM   20  C   UNL     1     -10.149  10.224  66.024  1.00  0.00    -0.311 A  
HETATM   21  C   UNL     1      -9.994   9.007  66.724  1.00  0.00    -0.332 A  
HETATM   22  C   UNL     1      -8.770   8.609  67.299  1.00  0.00    -0.129 A  
HETATM   23  C   UNL     1      -7.653   9.417  66.991  1.00  0.00    -0.091 A  
HETATM   24  C   UNL     1      -7.807  10.601  66.232  1.00  0.00    -0.150 A  
BRANCH  22  25
HETATM   25  N   UNL     1      -8.763   7.544  68.196  1.00  0.00    -0.123 NA 
HETATM   26  C   UNL     1      -8.555   6.165  67.741  1.00  0.00    -0.114 C  
HETATM   27  C   UNL     1      -9.389   7.670  69.512  1.00  0.00    -0.153 C  
HETATM   28  C   UNL     1      -8.519   6.950  70.543  1.00  0.00    -0.137 C  
HETATM   29  C   UNL     1      -7.687   5.435  68.771  1.00  0.00    -0.083 C  
HETATM   30  C   UNL     1      -8.316   5.449  70.188  1.00  0.00    -0.114 C  
BRANCH  30  31
HETATM   31  N   UNL     1      -9.570   4.648  70.289  1.00  0.00    -0.180 NA 
HETATM   32  C   UNL     1      -9.378   3.205  70.000  1.00  0.00    -0.156 C  
HETATM   33  C   UNL     1      -8.639   2.417  71.110  1.00  0.00    -0.059 C  
HETATM   34  N   UNL     1      -9.251   2.530  72.449  1.00  0.00    -0.082 NA 
HETATM   35  C   UNL     1     -10.482   1.742  72.536  1.00  0.00    -0.156 C  
HETATM   36  C   UNL     1      -9.506   3.954  72.751  1.00  0.00    -0.122 C  
HETATM   37  C   UNL     1     -10.221   4.737  71.621  1.00  0.00    -0.179 C  
ENDBRANCH  30  31
ENDBRANCH  22  25
BRANCH  23  38
HETATM   38  O   UNL     1      -6.416   8.989  67.428  1.00  0.00    -0.062 OA 
HETATM   39  C   UNL     1      -5.294   9.445  66.680  1.00  0.00    -0.045 C  
ENDBRANCH  23  38
ENDBRANCH  17  19
ENDBRANCH   8  17
BRANCH   5  40
HETATM   40  C   UNL     1     -12.252  13.376  65.471  1.00  0.00    -0.455 C  
HETATM   41  H2  UNL     1     -13.087  15.153  65.767  1.00  0.00     0.000 HD 
HETATM   42  N   UNL     1     -13.363  14.178  65.652  1.00  0.00    -0.545 N  
HETATM   43  O   UNL     1     -12.082  12.763  64.429  1.00  0.00    -0.370 OA 
HETATM   44  H1  UNL     1     -14.062  14.088  64.914  1.00  0.00     0.000 HD 
ENDBRANCH   5  40
ENDBRANCH   2   3
TORSDOF 9
ENDMDL
MODEL       38
REMARK 921   NORMALIZED FREE ENERGY PREDICTED BY IDOCK:   -5.58 KCAL/MOL
REMARK 922        TOTAL FREE ENERGY PREDICTED BY IDOCK:  -10.65 KCAL/MOL
REMARK 923 INTER-LIGAND FREE ENERGY PREDICTED BY IDOCK:   -9.49 KCAL/MOL
REMARK 924 INTRA-LIGAND FREE ENERGY PREDICTED BY IDOCK:   -1.16 KCAL/MOL
REMARK 927      BINDING AFFINITY PREDICTED BY RF-SCORE:    0.00 PKD
ROOT
HETATM    1  C   UNL     1     -10.958  19.643  66.115  1.00  0.00    -0.289 C  
HETATM    2  C   UNL     1     -10.718  18.899  67.426  1.00  0.00    -0.519 C  
ENDROOT
BRANCH   2   3
HETATM    3  C   UNL     1     -10.032  17.585  67.256  1.00  0.00    -0.312 A  
HETATM    4  C   UNL     1      -8.649  17.422  66.949  1.00  0.00    -0.249 A  
HETATM    5  C   UNL     1     -10.474  15.470  66.618  1.00  0.00    -0.299 A  
HETATM    6  N   UNL     1      -8.175  16.172  66.631  1.00  0.00    -0.258 NA 
HETATM    7  N   UNL     1     -10.934  16.600  67.186  1.00  0.00    -0.110 NA 
HETATM    8  C   UNL     1      -9.109  15.150  66.499  1.00  0.00    -0.294 A  
BRANCH   4   9
HETATM    9  N   UNL     1      -7.878  18.562  67.076  1.00  0.00    -0.223 NA 
HETATM   10  H   UNL     1      -7.325  18.508  67.931  1.00  0.00     0.000 HD 
BRANCH   9  11
HETATM   11  C   UNL     1      -7.595  19.823  66.383  1.00  0.00    -0.295 C  
HETATM   12  O   UNL     1      -5.194  21.372  66.208  1.00  0.00    -0.215 OA 
HETATM   13  C   UNL     1      -5.759  21.117  67.494  1.00  0.00    -0.318 C  
HETATM   14  C   UNL     1      -6.752  19.834  65.119  1.00  0.00    -0.286 C  
HETATM   15  C   UNL     1      -7.254  20.948  67.354  1.00  0.00    -0.396 C  
HETATM   16  C   UNL     1      -5.303  20.241  65.344  1.00  0.00    -0.165 C  
ENDBRANCH   9  11
ENDBRANCH   4   9
BRANCH   8  17
HETATM   17  N   UNL     1      -8.710  13.782  66.381  1.00  0.00    -0.427 NA 
HETATM   18  H   UNL     1      -7.851  13.614  65.857  1.00  0.00     0.000 HD 
BRANCH  17  19
HETATM   19  C   UNL     1      -9.357  12.621  66.900  1.00  0.00    -0.228 A  
HETATM   20  C   UNL     1      -9.593  12.501  68.268  1.00  0.00    -0.209 A  
HETATM   21  C   UNL     1      -9.874  11.245  68.849  1.00  0.00    -0.153 A  
HETATM   22  C   UNL     1      -9.899  10.049  68.103  1.00  0.00    -0.142 A  
HETATM   23  C   UNL     1      -9.793  10.193  66.702  1.00  0.00    -0.200 A  
HETATM   24  C   UNL     1      -9.575  11.466  66.123  1.00  0.00    -0.242 A  
BRANCH  22  25
HETATM   25  N   UNL     1      -9.912   8.833  68.783  1.00  0.00    -0.180 NA 
HETATM   26  C   UNL     1     -10.548   8.701  70.098  1.00  0.00    -0.225 C  
HETATM   27  C   UNL     1      -8.945   7.785  68.460  1.00  0.00    -0.133 C  
HETATM   28  C   UNL     1      -9.649   6.428  68.519  1.00  0.00    -0.122 C  
HETATM   29  C   UNL     1     -11.253   7.343  70.168  1.00  0.00    -0.239 C  
HETATM   30  C   UNL     1     -10.282   6.161  69.915  1.00  0.00    -0.192 C  
BRANCH  30  31
HETATM   31  N   UNL     1      -9.269   5.985  70.994  1.00  0.00    -0.156 NA 
HETATM   32  C   UNL     1      -9.853   5.587  72.300  1.00  0.00    -0.161 C  
HETATM   33  C   UNL     1     -10.357   4.124  72.362  1.00  0.00    -0.147 C  
HETATM   34  N   UNL     1      -9.342   3.113  71.997  1.00  0.00    -0.114 NA 
HETATM   35  C   UNL     1      -8.351   2.950  73.062  1.00  0.00    -0.075 C  
HETATM   36  C   UNL     1      -8.699   3.505  70.725  1.00  0.00    -0.074 C  
HETATM   37  C   UNL     1      -8.226   4.980  70.666  1.00  0.00    -0.102 C  
ENDBRANCH  30  31
ENDBRANCH  22  25
BRANCH  23  38
HETATM   38  O   UNL     1      -9.941   9.059  65.930  1.00  0.00    -0.276 OA 
HETATM   39  C   UNL     1      -9.005   8.895  64.871  1.00  0.00    -0.076 C  
ENDBRANCH  23  38
ENDBRANCH  17  19
ENDBRANCH   8  17
BRANCH   5  40
HETATM   40  C   UNL     1     -11.505  14.928  65.671  1.00  0.00    -0.290 C  
HETATM   41  H2  UNL     1     -10.240  14.570  64.183  1.00  0.00     0.000 HD 
HETATM   42  N   UNL     1     -11.143  15.017  64.340  1.00  0.00    -0.657 N  
HETATM   43  O   UNL     1     -12.497  14.303  66.012  1.00  0.00    -0.442 OA 
HETATM   44  H1  UNL     1     -11.843  14.649  63.697  1.00  0.00     0.000 HD 
ENDBRANCH   5  40
ENDBRANCH   2   3
TORSDOF 9
ENDMDL
MODEL       39
REMARK 921   NORMALIZED FREE ENERGY PREDICTED BY IDOCK:   -5.57 KCAL/MOL
REMARK 922        TOTAL FREE ENERGY PREDICTED BY IDOCK:  -10.64 KCAL/MOL
REMARK 923 INTER-LIGAND FREE ENERGY PREDICTED BY IDOCK:   -8.62 KCAL/MOL
REMARK 924 INTRA-LIGAND FREE ENERGY PREDICTED BY IDOCK:   -2.02 KCAL/MOL
REMARK 927      BINDING AFFINITY PREDICTED BY RF-SCORE:    0.00 PKD
ROOT
HETATM    1  C   UNL     1      -6.218  18.749  66.683  1.00  0.00    -0.200 C  
HETATM    2  C   UNL     1      -6.871  18.011  67.850  1.00  0.00    -0.199 C  
ENDROOT
BRANCH   2   3
HETATM    3  C   UNL     1      -7.846  16.963  67.429  1.00  0.00    -0.170 A  
HETATM    4  C   UNL     1      -7.494  15.656  66.983  1.00  0.00    -0.193 A  
HETATM    5  C   UNL     1      -9.902  16.772  66.528  1.00  0.00    -0.290 A  
HETATM    6  N   UNL     1      -8.465  14.847  66.444  1.00  0.00    -0.009 NA 
HETATM    7  N   UNL     1      -9.066  17.496  67.294  1.00  0.00    -0.236 NA 
HETATM    8  C   UNL     1      -9.724  15.405  66.245  1.00  0.00    -0.299 A  
BRANCH   4   9
HETATM    9  N   UNL     1      -6.181  15.288  67.209  1.00  0.00    -0.305 NA 
HETATM   10  H   UNL     1      -5.568  15.799  66.573  1.00  0.00     0.000 HD 
BRANCH   9  11
HETATM   11  C   UNL     1      -5.380  14.406  68.063  1.00  0.00    -0.107 C  
HETATM   12  O   UNL     1      -6.117  12.784  70.304  1.00  0.00    -0.148 OA 
HETATM   13  C   UNL     1      -6.345  14.192  70.366  1.00  0.00    -0.103 C  
HETATM   14  C   UNL     1      -5.503  12.896  67.940  1.00  0.00    -0.112 C  
HETATM   15  C   UNL     1      -5.323  14.898  69.505  1.00  0.00    -0.088 C  
HETATM   16  C   UNL     1      -6.383  12.258  69.004  1.00  0.00    -0.088 C  
ENDBRANCH   9  11
ENDBRANCH   4   9
BRANCH   8  17
HETATM   17  N   UNL     1     -10.852  14.601  65.892  1.00  0.00    -0.303 NA 
HETATM   18  H   UNL     1     -11.664  15.106  65.538  1.00  0.00     0.000 HD 
BRANCH  17  19
HETATM   19  C   UNL     1     -10.990  13.183  65.972  1.00  0.00    -0.279 A  
HETATM   20  C   UNL     1     -11.280  12.573  67.191  1.00  0.00    -0.352 A  
HETATM   21  C   UNL     1     -11.053  11.193  67.384  1.00  0.00    -0.370 A  
HETATM   22  C   UNL     1     -10.494  10.365  66.389  1.00  0.00    -0.177 A  
HETATM   23  C   UNL     1     -10.326  10.957  65.118  1.00  0.00    -0.278 A  
HETATM   24  C   UNL     1     -10.619  12.327  64.916  1.00  0.00    -0.329 A  
BRANCH  22  25
HETATM   25  N   UNL     1     -10.052   9.093  66.743  1.00  0.00    -0.254 NA 
HETATM   26  C   UNL     1     -10.786   8.273  67.714  1.00  0.00     0.009 C  
HETATM   27  C   UNL     1      -8.659   8.699  66.534  1.00  0.00    -0.116 C  
HETATM   28  C   UNL     1      -8.624   7.245  66.060  1.00  0.00    -0.160 C  
HETATM   29  C   UNL     1     -10.751   6.814  67.249  1.00  0.00    -0.423 C  
HETATM   30  C   UNL     1      -9.305   6.285  67.077  1.00  0.00    -0.126 C  
BRANCH  30  31
HETATM   31  N   UNL     1      -8.559   6.166  68.362  1.00  0.00    -0.113 NA 
HETATM   32  C   UNL     1      -9.277   5.380  69.397  1.00  0.00    -0.117 C  
HETATM   33  C   UNL     1      -9.316   3.854  69.135  1.00  0.00    -0.170 C  
HETATM   34  N   UNL     1      -7.989   3.235  68.940  1.00  0.00    -0.057 NA 
HETATM   35  C   UNL     1      -7.264   3.126  70.208  1.00  0.00    -0.040 C  
HETATM   36  C   UNL     1      -7.223   4.023  67.953  1.00  0.00    -0.060 C  
HETATM   37  C   UNL     1      -7.215   5.552  68.210  1.00  0.00    -0.071 C  
ENDBRANCH  30  31
ENDBRANCH  22  25
BRANCH  23  38
HETATM   38  O   UNL     1      -9.902  10.145  64.086  1.00  0.00    -0.305 OA 
HETATM   39  C   UNL     1      -9.673  10.786  62.837  1.00  0.00    -0.304 C  
ENDBRANCH  23  38
ENDBRANCH  17  19
ENDBRANCH   8  17
BRANCH   5  40
HETATM   40  C   UNL     1     -10.655  17.684  65.604  1.00  0.00    -0.135 C  
HETATM   41  H2  UNL     1      -9.598  19.311  66.026  1.00  0.00     0.000 HD 
HETATM   42  N   UNL     1     -10.572  19.020  65.949  1.00  0.00    -0.464 N  
HETATM   43  O   UNL     1     -11.157  17.339  64.546  1.00  0.00    -1.082 OA 
HETATM   44  H1  UNL     1     -11.084  19.641  65.322  1.00  0.00     0.000 HD 
ENDBRANCH   5  40
ENDBRANCH   2   3
TORSDOF 9
ENDMDL
MODEL       40
REMARK 921   NORMALIZED FREE ENERGY PREDICTED BY IDOCK:   -5.56 KCAL/MOL
REMARK 922        TOTAL FREE ENERGY PREDICTED BY IDOCK:  -10.63 KCAL/MOL
REMARK 923 INTER-LIGAND FREE ENERGY PREDICTED BY IDOCK:   -8.93 KCAL/MOL
REMARK 924 INTRA-LIGAND FREE ENERGY PREDICTED BY IDOCK:   -1.70 KCAL/MOL
REMARK 927      BINDING AFFINITY PREDICTED BY RF-SCORE:    0.00 PKD
ROOT
HETATM    1  C   UNL     1     -12.569   6.836  71.888  1.00  0.00    -0.328 C  
HETATM    2  C   UNL     1     -11.300   6.073  71.513  1.00  0.00    -0.309 C  
ENDROOT
BRANCH   2   3
HETATM    3  C   UNL     1     -10.719   6.479  70.200  1.00  0.00    -0.252 A  
HETATM    4  C   UNL     1      -9.972   5.622  69.341  1.00  0.00    -0.197 A  
HETATM    5  C   UNL     1      -9.930   8.308  69.146  1.00  0.00    -0.196 A  
HETATM    6  N   UNL     1      -9.329   6.159  68.252  1.00  0.00    -0.116 NA 
HETATM    7  N   UNL     1     -10.784   7.808  70.059  1.00  0.00    -0.243 NA 
HETATM    8  C   UNL     1      -9.340   7.544  68.123  1.00  0.00    -0.136 A  
BRANCH   4   9
HETATM    9  N   UNL     1     -10.027   4.278  69.656  1.00  0.00    -0.173 NA 
HETATM   10  H   UNL     1     -10.840   3.854  69.210  1.00  0.00     0.000 HD 
BRANCH   9  11
HETATM   11  C   UNL     1      -9.298   3.260  70.420  1.00  0.00    -0.167 C  
HETATM   12  O   UNL     1      -8.365   3.254  73.126  1.00  0.00    -0.076 OA 
HETATM   13  C   UNL     1      -7.899   4.269  72.237  1.00  0.00    -0.086 C  
HETATM   14  C   UNL     1     -10.004   2.455  71.497  1.00  0.00    -0.126 C  
HETATM   15  C   UNL     1      -7.906   3.733  70.824  1.00  0.00    -0.051 C  
HETATM   16  C   UNL     1      -9.743   2.950  72.912  1.00  0.00    -0.116 C  
ENDBRANCH   9  11
ENDBRANCH   4   9
BRANCH   8  17
HETATM   17  N   UNL     1      -8.889   8.188  66.929  1.00  0.00    -0.127 NA 
HETATM   18  H   UNL     1      -8.350   7.607  66.287  1.00  0.00     0.000 HD 
BRANCH  17  19
HETATM   19  C   UNL     1      -9.095   9.539  66.518  1.00  0.00    -0.151 A  
HETATM   20  C   UNL     1      -8.047  10.457  66.569  1.00  0.00    -0.122 A  
HETATM   21  C   UNL     1      -8.297  11.846  66.537  1.00  0.00    -0.062 A  
HETATM   22  C   UNL     1      -9.598  12.386  66.491  1.00  0.00    -0.240 A  
HETATM   23  C   UNL     1     -10.645  11.457  66.306  1.00  0.00    -0.263 A  
HETATM   24  C   UNL     1     -10.378  10.067  66.273  1.00  0.00    -0.235 A  
BRANCH  22  25
HETATM   25  N   UNL     1      -9.770  13.746  66.737  1.00  0.00    -0.267 NA 
HETATM   26  C   UNL     1      -9.704  14.732  65.653  1.00  0.00    -0.278 C  
HETATM   27  C   UNL     1      -9.578  14.294  68.079  1.00  0.00    -0.223 C  
HETATM   28  C   UNL     1     -10.644  15.362  68.334  1.00  0.00    -0.247 C  
HETATM   29  C   UNL     1     -10.765  15.808  65.902  1.00  0.00    -0.320 C  
HETATM   30  C   UNL     1     -10.589  16.502  67.277  1.00  0.00    -0.285 C  
BRANCH  30  31
HETATM   31  N   UNL     1      -9.353  17.330  67.370  1.00  0.00    -0.234 NA 
HETATM   32  C   UNL     1      -9.165  18.250  66.221  1.00  0.00    -0.203 C  
HETATM   33  C   UNL     1     -10.126  19.465  66.203  1.00  0.00    -0.452 C  
HETATM   34  N   UNL     1     -10.106  20.277  67.438  1.00  0.00    -0.412 NA 
HETATM   35  C   UNL     1      -8.886  21.083  67.520  1.00  0.00     0.119 C  
HETATM   36  C   UNL     1     -10.237  19.387  68.609  1.00  0.00    -0.371 C  
HETATM   37  C   UNL     1      -9.290  18.159  68.600  1.00  0.00    -0.297 C  
ENDBRANCH  30  31
ENDBRANCH  22  25
BRANCH  23  38
HETATM   38  O   UNL     1     -11.919  11.957  66.127  1.00  0.00    -0.537 OA 
HETATM   39  C   UNL     1     -12.284  12.278  64.790  1.00  0.00    -0.365 C  
ENDBRANCH  23  38
ENDBRANCH  17  19
ENDBRANCH   8  17
BRANCH   5  40
HETATM   40  C   UNL     1      -9.283   9.548  69.690  1.00  0.00    -0.200 C  
HETATM   41  H2  UNL     1     -10.944  10.321  70.454  1.00  0.00     0.000 HD 
HETATM   42  N   UNL     1     -10.158  10.602  69.868  1.00  0.00    -0.427 N  
HETATM   43  O   UNL     1      -8.137   9.605  70.108  1.00  0.00    -0.160 OA 
HETATM   44  H1  UNL     1      -9.719  11.446  70.237  1.00  0.00     0.000 HD 
ENDBRANCH   5  40
ENDBRANCH   2   3
TORSDOF 9
ENDMDL
MODEL       41
REMARK 921   NORMALIZED FREE ENERGY PREDICTED BY IDOCK:   -5.56 KCAL/MOL
REMARK 922        TOTAL FREE ENERGY PREDICTED BY IDOCK:  -10.62 KCAL/MOL
REMARK 923 INTER-LIGAND FREE ENERGY PREDICTED BY IDOCK:   -8.43 KCAL/MOL
REMARK 924 INTRA-LIGAND FREE ENERGY PREDICTED BY IDOCK:   -2.19 KCAL/MOL
REMARK 927      BINDING AFFINITY PREDICTED BY RF-SCORE:    0.00 PKD
ROOT
HETATM    1  C   UNL     1      -7.998   4.861  67.464  1.00  0.00    -0.095 C  
HETATM    2  C   UNL     1      -9.329   5.017  66.732  1.00  0.00    -0.136 C  
ENDROOT
BRANCH   2   3
HETATM    3  C   UNL     1      -9.936   6.373  66.867  1.00  0.00    -0.167 A  
HETATM    4  C   UNL     1      -9.596   7.501  66.065  1.00  0.00     0.112 A  
HETATM    5  C   UNL     1     -10.878   7.702  68.425  1.00  0.00     0.044 A  
HETATM    6  N   UNL     1     -10.083   8.740  66.408  1.00  0.00    -0.283 NA 
HETATM    7  N   UNL     1     -10.654   6.446  67.994  1.00  0.00    -0.223 NA 
HETATM    8  C   UNL     1     -10.783   8.841  67.606  1.00  0.00    -0.136 A  
BRANCH   4   9
HETATM    9  N   UNL     1      -8.842   7.220  64.941  1.00  0.00    -0.291 NA 
HETATM   10  H   UNL     1      -9.117   6.314  64.562  1.00  0.00     0.000 HD 
BRANCH   9  11
HETATM   11  C   UNL     1      -7.778   7.798  64.115  1.00  0.00    -0.125 C  
HETATM   12  O   UNL     1      -7.323  10.488  63.248  1.00  0.00    -0.096 OA 
HETATM   13  C   UNL     1      -8.543   9.843  62.885  1.00  0.00    -0.194 C  
HETATM   14  C   UNL     1      -6.696   8.659  64.745  1.00  0.00    -0.069 C  
HETATM   15  C   UNL     1      -8.310   8.352  62.797  1.00  0.00    -0.134 C  
HETATM   16  C   UNL     1      -6.918  10.155  64.576  1.00  0.00    -0.117 C  
ENDBRANCH   9  11
ENDBRANCH   4   9
BRANCH   8  17
HETATM   17  N   UNL     1     -11.507  10.025  67.951  1.00  0.00    -0.608 NA 
HETATM   18  H   UNL     1     -12.523   9.938  67.958  1.00  0.00     0.000 HD 
BRANCH  17  19
HETATM   19  C   UNL     1     -10.992  11.313  68.287  1.00  0.00    -0.224 A  
HETATM   20  C   UNL     1     -11.798  12.444  68.172  1.00  0.00    -0.372 A  
HETATM   21  C   UNL     1     -11.233  13.737  68.128  1.00  0.00    -0.298 A  
HETATM   22  C   UNL     1      -9.841  13.962  68.159  1.00  0.00    -0.240 A  
HETATM   23  C   UNL     1      -9.038  12.828  68.409  1.00  0.00    -0.129 A  
HETATM   24  C   UNL     1      -9.620  11.542  68.517  1.00  0.00    -0.180 A  
BRANCH  22  25
HETATM   25  N   UNL     1      -9.358  15.229  67.839  1.00  0.00    -0.188 NA 
HETATM   26  C   UNL     1      -8.767  15.510  66.526  1.00  0.00    -0.305 C  
HETATM   27  C   UNL     1      -9.007  16.183  68.890  1.00  0.00    -0.247 C  
HETATM   28  C   UNL     1      -9.447  17.582  68.454  1.00  0.00    -0.292 C  
HETATM   29  C   UNL     1      -9.199  16.911  66.084  1.00  0.00    -0.270 C  
HETATM   30  C   UNL     1      -8.794  18.004  67.106  1.00  0.00    -0.248 C  
BRANCH  30  31
HETATM   31  N   UNL     1      -7.320  18.206  67.206  1.00  0.00    -0.204 NA 
HETATM   32  C   UNL     1      -6.686  18.609  65.926  1.00  0.00    -0.267 C  
HETATM   33  C   UNL     1      -6.982  20.065  65.490  1.00  0.00    -0.310 C  
HETATM   34  N   UNL     1      -6.639  21.086  66.502  1.00  0.00    -0.273 NA 
HETATM   35  C   UNL     1      -5.190  21.274  66.594  1.00  0.00    -0.242 C  
HETATM   36  C   UNL     1      -7.210  20.691  67.806  1.00  0.00    -0.264 C  
HETATM   37  C   UNL     1      -6.931  19.222  68.217  1.00  0.00    -0.271 C  
ENDBRANCH  30  31
ENDBRANCH  22  25
BRANCH  23  38
HETATM   38  O   UNL     1      -7.683  13.028  68.574  1.00  0.00    -0.128 OA 
HETATM   39  C   UNL     1      -6.883  11.855  68.671  1.00  0.00    -0.086 C  
ENDBRANCH  23  38
ENDBRANCH  17  19
ENDBRANCH   8  17
BRANCH   5  40
HETATM   40  C   UNL     1     -10.671   7.768  69.910  1.00  0.00    -0.245 C  
HETATM   41  H2  UNL     1     -12.600   7.834  70.376  1.00  0.00     0.000 HD 
HETATM   42  N   UNL     1     -11.734   8.325  70.597  1.00  0.00    -0.451 N  
HETATM   43  O   UNL     1      -9.748   7.236  70.505  1.00  0.00    -0.176 OA 
HETATM   44  H1  UNL     1     -11.594   8.370  71.606  1.00  0.00     0.000 HD 
ENDBRANCH   5  40
ENDBRANCH   2   3
TORSDOF 9
ENDMDL
MODEL       42
REMARK 921   NORMALIZED FREE ENERGY PREDICTED BY IDOCK:   -5.55 KCAL/MOL
REMARK 922        TOTAL FREE ENERGY PREDICTED BY IDOCK:  -10.61 KCAL/MOL
REMARK 923 INTER-LIGAND FREE ENERGY PREDICTED BY IDOCK:   -9.05 KCAL/MOL
REMARK 924 INTRA-LIGAND FREE ENERGY PREDICTED BY IDOCK:   -1.56 KCAL/MOL
REMARK 927      BINDING AFFINITY PREDICTED BY RF-SCORE:    0.00 PKD
ROOT
HETATM    1  C   UNL     1     -11.882  15.461  71.837  1.00  0.00    -0.505 C  
HETATM    2  C   UNL     1     -12.254  15.748  70.384  1.00  0.00    -0.388 C  
ENDROOT
BRANCH   2   3
HETATM    3  C   UNL     1     -11.259  15.238  69.396  1.00  0.00    -0.285 A  
HETATM    4  C   UNL     1     -10.419  16.060  68.589  1.00  0.00    -0.251 A  
HETATM    5  C   UNL     1     -10.909  13.468  68.047  1.00  0.00    -0.250 A  
HETATM    6  N   UNL     1      -9.682  15.482  67.583  1.00  0.00    -0.212 NA 
HETATM    7  N   UNL     1     -11.440  13.928  69.195  1.00  0.00    -0.279 NA 
HETATM    8  C   UNL     1      -9.900  14.133  67.326  1.00  0.00    -0.238 A  
BRANCH   4   9
HETATM    9  N   UNL     1     -10.370  17.392  68.954  1.00  0.00    -0.348 NA 
HETATM   10  H   UNL     1     -11.077  17.579  69.664  1.00  0.00     0.000 HD 
BRANCH   9  11
HETATM   11  C   UNL     1      -9.633  18.624  68.655  1.00  0.00    -0.368 C  
HETATM   12  O   UNL     1      -8.895  19.813  66.159  1.00  0.00    -0.369 OA 
HETATM   13  C   UNL     1      -8.433  18.496  66.460  1.00  0.00    -0.277 C  
HETATM   14  C   UNL     1     -10.360  19.844  68.116  1.00  0.00    -0.533 C  
HETATM   15  C   UNL     1      -8.306  18.345  67.958  1.00  0.00    -0.287 C  
HETATM   16  C   UNL     1     -10.232  20.025  66.610  1.00  0.00    -0.471 C  
ENDBRANCH   9  11
ENDBRANCH   4   9
BRANCH   8  17
HETATM   17  N   UNL     1      -9.045  13.389  66.454  1.00  0.00    -0.459 NA 
HETATM   18  H   UNL     1      -8.779  13.857  65.588  1.00  0.00     0.000 HD 
BRANCH  17  19
HETATM   19  C   UNL     1      -8.516  12.077  66.639  1.00  0.00    -0.117 A  
HETATM   20  C   UNL     1      -9.207  10.967  66.156  1.00  0.00    -0.205 A  
HETATM   21  C   UNL     1      -8.922   9.670  66.636  1.00  0.00    -0.166 A  
HETATM   22  C   UNL     1      -7.965   9.421  67.641  1.00  0.00    -0.099 A  
HETATM   23  C   UNL     1      -7.178  10.528  68.029  1.00  0.00    -0.087 A  
HETATM   24  C   UNL     1      -7.428  11.814  67.494  1.00  0.00    -0.131 A  
BRANCH  22  25
HETATM   25  N   UNL     1      -7.937   8.168  68.247  1.00  0.00    -0.121 NA 
HETATM   26  C   UNL     1      -7.554   6.966  67.498  1.00  0.00    -0.109 C  
HETATM   27  C   UNL     1      -8.691   7.913  69.475  1.00  0.00    -0.134 C  
HETATM   28  C   UNL     1      -7.853   7.021  70.392  1.00  0.00    -0.108 C  
HETATM   29  C   UNL     1      -6.718   6.065  68.411  1.00  0.00    -0.064 C  
HETATM   30  C   UNL     1      -7.473   5.676  69.708  1.00  0.00    -0.074 C  
BRANCH  30  31
HETATM   31  N   UNL     1      -8.646   4.788  69.468  1.00  0.00    -0.085 NA 
HETATM   32  C   UNL     1      -8.277   3.432  68.987  1.00  0.00    -0.060 C  
HETATM   33  C   UNL     1      -7.646   2.516  70.064  1.00  0.00    -0.043 C  
HETATM   34  N   UNL     1      -8.464   2.354  71.284  1.00  0.00    -0.057 NA 
HETATM   35  C   UNL     1      -9.615   1.482  71.036  1.00  0.00    -0.124 C  
HETATM   36  C   UNL     1      -8.895   3.683  71.763  1.00  0.00    -0.099 C  
HETATM   37  C   UNL     1      -9.499   4.601  70.669  1.00  0.00    -0.172 C  
ENDBRANCH  30  31
ENDBRANCH  22  25
BRANCH  23  38
HETATM   38  O   UNL     1      -6.147  10.297  68.917  1.00  0.00    -0.041 OA 
HETATM   39  C   UNL     1      -6.248  10.947  70.179  1.00  0.00    -0.142 C  
ENDBRANCH  23  38
ENDBRANCH  17  19
ENDBRANCH   8  17
BRANCH   5  40
HETATM   40  C   UNL     1     -11.880  12.535  67.383  1.00  0.00    -0.312 C  
HETATM   41  H2  UNL     1     -11.362  13.000  65.523  1.00  0.00     0.000 HD 
HETATM   42  N   UNL     1     -12.205  12.896  66.089  1.00  0.00    -0.385 N  
HETATM   43  O   UNL     1     -12.234  11.462  67.844  1.00  0.00    -0.592 OA 
HETATM   44  H1  UNL     1     -12.864  12.262  65.637  1.00  0.00     0.000 HD 
ENDBRANCH   5  40
ENDBRANCH   2   3
TORSDOF 9
ENDMDL
MODEL       43
REMARK 921   NORMALIZED FREE ENERGY PREDICTED BY IDOCK:   -5.46 KCAL/MOL
REMARK 922        TOTAL FREE ENERGY PREDICTED BY IDOCK:  -10.47 KCAL/MOL
REMARK 923 INTER-LIGAND FREE ENERGY PREDICTED BY IDOCK:   -8.85 KCAL/MOL
REMARK 924 INTRA-LIGAND FREE ENERGY PREDICTED BY IDOCK:   -1.62 KCAL/MOL
REMARK 927      BINDING AFFINITY PREDICTED BY RF-SCORE:    0.00 PKD
ROOT
HETATM    1  C   UNL     1     -10.470  18.548  66.038  1.00  0.00    -0.433 C  
HETATM    2  C   UNL     1     -10.376  17.894  67.414  1.00  0.00    -0.383 C  
ENDROOT
BRANCH   2   3
HETATM    3  C   UNL     1     -10.472  16.406  67.381  1.00  0.00    -0.309 A  
HETATM    4  C   UNL     1      -9.465  15.514  67.855  1.00  0.00    -0.201 A  
HETATM    5  C   UNL     1     -11.439  14.758  66.187  1.00  0.00    -0.311 A  
HETATM    6  N   UNL     1      -9.585  14.170  67.599  1.00  0.00    -0.212 NA 
HETATM    7  N   UNL     1     -11.511  16.027  66.628  1.00  0.00     0.268 NA 
HETATM    8  C   UNL     1     -10.628  13.768  66.771  1.00  0.00    -0.273 A  
BRANCH   4   9
HETATM    9  N   UNL     1      -8.469  16.099  68.614  1.00  0.00    -0.204 NA 
HETATM   10  H   UNL     1      -8.734  16.081  69.599  1.00  0.00     0.000 HD 
BRANCH   9  11
HETATM   11  C   UNL     1      -7.157  16.736  68.468  1.00  0.00    -0.183 C  
HETATM   12  O   UNL     1      -6.274  18.845  66.746  1.00  0.00    -0.179 OA 
HETATM   13  C   UNL     1      -6.807  17.656  66.164  1.00  0.00    -0.293 C  
HETATM   14  C   UNL     1      -6.920  18.140  68.996  1.00  0.00    -0.262 C  
HETATM   15  C   UNL     1      -6.550  16.491  67.091  1.00  0.00    -0.229 C  
HETATM   16  C   UNL     1      -6.979  19.223  67.928  1.00  0.00    -0.237 C  
ENDBRANCH   9  11
ENDBRANCH   4   9
BRANCH   8  17
HETATM   17  N   UNL     1     -10.969  12.388  66.612  1.00  0.00    -0.257 NA 
HETATM   18  H   UNL     1     -11.740  12.191  65.974  1.00  0.00     0.000 HD 
BRANCH  17  19
HETATM   19  C   UNL     1     -10.369  11.251  67.230  1.00  0.00    -0.201 A  
HETATM   20  C   UNL     1     -10.839   9.969  66.950  1.00  0.00    -0.152 A  
HETATM   21  C   UNL     1     -10.540   8.883  67.801  1.00  0.00    -0.266 A  
HETATM   22  C   UNL     1      -9.790   9.028  68.986  1.00  0.00    -0.175 A  
HETATM   23  C   UNL     1      -9.206  10.297  69.195  1.00  0.00    -0.194 A  
HETATM   24  C   UNL     1      -9.459  11.364  68.300  1.00  0.00    -0.187 A  
BRANCH  22  25
HETATM   25  N   UNL     1      -9.770   7.978  69.901  1.00  0.00    -0.179 NA 
HETATM   26  C   UNL     1      -9.063   6.727  69.611  1.00  0.00    -0.143 C  
HETATM   27  C   UNL     1     -10.781   7.884  70.954  1.00  0.00    -0.221 C  
HETATM   28  C   UNL     1     -10.110   7.401  72.241  1.00  0.00    -0.234 C  
HETATM   29  C   UNL     1      -8.391   6.233  70.896  1.00  0.00    -0.127 C  
HETATM   30  C   UNL     1      -9.406   6.027  72.050  1.00  0.00    -0.149 C  
BRANCH  30  31
HETATM   31  N   UNL     1     -10.359   4.907  71.808  1.00  0.00    -0.198 NA 
HETATM   32  C   UNL     1      -9.701   3.646  71.384  1.00  0.00    -0.170 C  
HETATM   33  C   UNL     1      -8.930   2.911  72.509  1.00  0.00    -0.086 C  
HETATM   34  N   UNL     1      -9.738   2.615  73.710  1.00  0.00    -0.093 NA 
HETATM   35  C   UNL     1     -10.674   1.516  73.460  1.00  0.00    -0.113 C  
HETATM   36  C   UNL     1     -10.453   3.838  74.131  1.00  0.00    -0.207 C  
HETATM   37  C   UNL     1     -11.196   4.579  72.990  1.00  0.00    -0.187 C  
ENDBRANCH  30  31
ENDBRANCH  22  25
BRANCH  23  38
HETATM   38  O   UNL     1      -8.361  10.441  70.277  1.00  0.00     0.086 OA 
HETATM   39  C   UNL     1      -6.973  10.263  70.017  1.00  0.00    -0.151 C  
ENDBRANCH  23  38
ENDBRANCH  17  19
ENDBRANCH   8  17
BRANCH   5  40
HETATM   40  C   UNL     1     -11.846  14.705  64.743  1.00  0.00    -0.440 C  
HETATM   41  H2  UNL     1     -10.697  16.214  64.156  1.00  0.00     0.000 HD 
HETATM   42  N   UNL     1     -11.662  15.896  64.066  1.00  0.00    -0.937 N  
HETATM   43  O   UNL     1     -12.149  13.683  64.146  1.00  0.00    -0.430 OA 
HETATM   44  H1  UNL     1     -11.939  15.860  63.085  1.00  0.00     0.000 HD 
ENDBRANCH   5  40
ENDBRANCH   2   3
TORSDOF 9
ENDMDL
MODEL       44
REMARK 921   NORMALIZED FREE ENERGY PREDICTED BY IDOCK:   -5.38 KCAL/MOL
REMARK 922        TOTAL FREE ENERGY PREDICTED BY IDOCK:  -10.36 KCAL/MOL
REMARK 923 INTER-LIGAND FREE ENERGY PREDICTED BY IDOCK:   -8.60 KCAL/MOL
REMARK 924 INTRA-LIGAND FREE ENERGY PREDICTED BY IDOCK:   -1.76 KCAL/MOL
REMARK 927      BINDING AFFINITY PREDICTED BY RF-SCORE:    0.00 PKD
ROOT
HETATM    1  C   UNL     1     -13.577   7.490  71.584  1.00  0.00    -0.442 C  
HETATM    2  C   UNL     1     -12.336   6.609  71.708  1.00  0.00    -0.385 C  
ENDROOT
BRANCH   2   3
HETATM    3  C   UNL     1     -11.066   7.303  71.344  1.00  0.00    -0.243 A  
HETATM    4  C   UNL     1     -10.299   7.036  70.173  1.00  0.00    -0.197 A  
HETATM    5  C   UNL     1      -9.313   8.330  72.318  1.00  0.00    -0.253 A  
HETATM    6  N   UNL     1      -9.054   7.603  70.043  1.00  0.00    -0.151 NA 
HETATM    7  N   UNL     1     -10.623   8.025  72.380  1.00  0.00    -0.281 NA 
HETATM    8  C   UNL     1      -8.557   8.309  71.133  1.00  0.00    -0.142 A  
BRANCH   4   9
HETATM    9  N   UNL     1     -10.932   6.265  69.216  1.00  0.00    -0.335 NA 
HETATM   10  H   UNL     1     -11.648   5.690  69.659  1.00  0.00     0.000 HD 
BRANCH   9  11
HETATM   11  C   UNL     1     -10.911   6.003  67.773  1.00  0.00    -0.290 C  
HETATM   12  O   UNL     1      -8.903   6.519  65.800  1.00  0.00    -0.148 OA 
HETATM   13  C   UNL     1      -9.436   7.614  66.545  1.00  0.00    -0.190 C  
HETATM   14  C   UNL     1     -10.054   4.884  67.207  1.00  0.00    -0.212 C  
HETATM   15  C   UNL     1     -10.854   7.289  66.957  1.00  0.00    -0.350 C  
HETATM   16  C   UNL     1      -8.736   5.355  66.609  1.00  0.00    -0.115 C  
ENDBRANCH   9  11
ENDBRANCH   4   9
BRANCH   8  17
HETATM   17  N   UNL     1      -7.376   9.109  71.031  1.00  0.00    -0.179 NA 
HETATM   18  H   UNL     1      -6.613   8.857  71.659  1.00  0.00     0.000 HD 
BRANCH  17  19
HETATM   19  C   UNL     1      -7.127  10.215  70.164  1.00  0.00    -0.157 A  
HETATM   20  C   UNL     1      -6.161  11.163  70.495  1.00  0.00    -0.084 A  
HETATM   21  C   UNL     1      -6.150  12.434  69.880  1.00  0.00    -0.135 A  
HETATM   22  C   UNL     1      -7.118  12.832  68.936  1.00  0.00    -0.067 A  
HETATM   23  C   UNL     1      -8.012  11.826  68.507  1.00  0.00    -0.145 A  
HETATM   24  C   UNL     1      -7.973  10.534  69.084  1.00  0.00    -0.145 A  
BRANCH  22  25
HETATM   25  N   UNL     1      -7.200  14.177  68.584  1.00  0.00    -0.110 NA 
HETATM   26  C   UNL     1      -6.950  14.623  67.209  1.00  0.00     0.053 C  
HETATM   27  C   UNL     1      -7.092  15.224  69.599  1.00  0.00    -0.187 C  
HETATM   28  C   UNL     1      -8.085  16.339  69.267  1.00  0.00    -0.157 C  
HETATM   29  C   UNL     1      -7.938  15.743  66.869  1.00  0.00    -0.285 C  
HETATM   30  C   UNL     1      -7.837  16.937  67.852  1.00  0.00    -0.175 C  
BRANCH  30  31
HETATM   31  N   UNL     1      -6.551  17.684  67.748  1.00  0.00    -0.178 NA 
HETATM   32  C   UNL     1      -6.211  18.093  66.362  1.00  0.00    -0.191 C  
HETATM   33  C   UNL     1      -7.072  19.252  65.802  1.00  0.00    -0.279 C  
HETATM   34  N   UNL     1      -7.079  20.467  66.641  1.00  0.00    -0.267 NA 
HETATM   35  C   UNL     1      -5.811  21.191  66.534  1.00  0.00    -0.277 C  
HETATM   36  C   UNL     1      -7.363  20.093  68.042  1.00  0.00    -0.274 C  
HETATM   37  C   UNL     1      -6.514  18.913  68.581  1.00  0.00    -0.248 C  
ENDBRANCH  30  31
ENDBRANCH  22  25
BRANCH  23  38
HETATM   38  O   UNL     1      -8.890  12.142  67.491  1.00  0.00    -0.161 OA 
HETATM   39  C   UNL     1      -8.946  11.227  66.403  1.00  0.00    -0.188 C  
ENDBRANCH  23  38
ENDBRANCH  17  19
ENDBRANCH   8  17
BRANCH   5  40
HETATM   40  C   UNL     1      -8.687   8.130  73.668  1.00  0.00    -0.241 C  
HETATM   41  H2  UNL     1      -9.414   6.305  73.956  1.00  0.00     0.000 HD 
HETATM   42  N   UNL     1      -9.335   7.193  74.451  1.00  0.00    -0.400 N  
HETATM   43  O   UNL     1      -7.612   8.599  74.008  1.00  0.00    -0.386 OA 
HETATM   44  H1  UNL     1      -8.909   7.057  75.368  1.00  0.00     0.000 HD 
ENDBRANCH   5  40
ENDBRANCH   2   3
TORSDOF 9
ENDMDL
MODEL       45
REMARK 921   NORMALIZED FREE ENERGY PREDICTED BY IDOCK:   -5.32 KCAL/MOL
REMARK 922        TOTAL FREE ENERGY PREDICTED BY IDOCK:  -10.25 KCAL/MOL
REMARK 923 INTER-LIGAND FREE ENERGY PREDICTED BY IDOCK:   -8.82 KCAL/MOL
REMARK 924 INTRA-LIGAND FREE ENERGY PREDICTED BY IDOCK:   -1.43 KCAL/MOL
REMARK 927      BINDING AFFINITY PREDICTED BY RF-SCORE:    0.00 PKD
ROOT
HETATM    1  C   UNL     1     -10.129   3.314  73.072  1.00  0.00    -0.218 C  
HETATM    2  C   UNL     1      -9.644   3.461  71.632  1.00  0.00    -0.229 C  
ENDROOT
BRANCH   2   3
HETATM    3  C   UNL     1     -10.159   4.682  70.945  1.00  0.00    -0.187 A  
HETATM    4  C   UNL     1      -9.608   5.239  69.755  1.00  0.00    -0.167 A  
HETATM    5  C   UNL     1     -11.235   6.606  71.408  1.00  0.00    -0.274 A  
HETATM    6  N   UNL     1     -10.047   6.468  69.323  1.00  0.00    -0.163 NA 
HETATM    7  N   UNL     1     -11.041   5.313  71.728  1.00  0.00    -0.080 NA 
HETATM    8  C   UNL     1     -10.921   7.161  70.154  1.00  0.00    -0.267 A  
BRANCH   4   9
HETATM    9  N   UNL     1      -8.707   4.432  69.087  1.00  0.00    -0.082 NA 
HETATM   10  H   UNL     1      -8.445   3.646  69.682  1.00  0.00     0.000 HD 
BRANCH   9  11
HETATM   11  C   UNL     1      -8.004   4.334  67.803  1.00  0.00    -0.087 C  
HETATM   12  O   UNL     1      -6.480   6.269  66.345  1.00  0.00    -0.043 OA 
HETATM   13  C   UNL     1      -7.847   6.550  66.644  1.00  0.00    -0.104 C  
HETATM   14  C   UNL     1      -6.487   4.275  67.759  1.00  0.00    -0.038 C  
HETATM   15  C   UNL     1      -8.611   5.249  66.746  1.00  0.00    -0.106 C  
HETATM   16  C   UNL     1      -5.824   5.603  67.423  1.00  0.00    -0.017 C  
ENDBRANCH   9  11
ENDBRANCH   4   9
BRANCH   8  17
HETATM   17  N   UNL     1     -11.599   8.340  69.711  1.00  0.00    -0.320 NA 
HETATM   18  H   UNL     1     -12.526   8.196  69.312  1.00  0.00     0.000 HD 
BRANCH  17  19
HETATM   19  C   UNL     1     -11.145   9.692  69.754  1.00  0.00    -0.217 A  
HETATM   20  C   UNL     1     -11.965  10.692  70.272  1.00  0.00    -0.425 A  
HETATM   21  C   UNL     1     -11.716  12.053  69.992  1.00  0.00    -0.346 A  
HETATM   22  C   UNL     1     -10.664  12.479  69.156  1.00  0.00    -0.023 A  
HETATM   23  C   UNL     1      -9.760  11.476  68.743  1.00  0.00    -0.126 A  
HETATM   24  C   UNL     1      -9.982  10.120  69.084  1.00  0.00    -0.221 A  
BRANCH  22  25
HETATM   25  N   UNL     1     -10.651  13.800  68.712  1.00  0.00    -0.251 NA 
HETATM   26  C   UNL     1     -10.729  14.125  67.284  1.00  0.00    -0.279 C  
HETATM   27  C   UNL     1     -10.122  14.868  69.559  1.00  0.00    -0.108 C  
HETATM   28  C   UNL     1     -11.002  16.108  69.396  1.00  0.00    -0.333 C  
HETATM   29  C   UNL     1     -11.605  15.370  67.112  1.00  0.00    -0.058 C  
HETATM   30  C   UNL     1     -11.071  16.583  67.916  1.00  0.00    -0.229 C  
BRANCH  30  31
HETATM   31  N   UNL     1      -9.772  17.107  67.407  1.00  0.00    -0.249 NA 
HETATM   32  C   UNL     1      -9.911  17.992  66.223  1.00  0.00    -0.307 C  
HETATM   33  C   UNL     1     -10.497  19.392  66.530  1.00  0.00    -0.476 C  
HETATM   34  N   UNL     1      -9.767  20.145  67.572  1.00  0.00    -0.398 NA 
HETATM   35  C   UNL     1      -8.492  20.652  67.061  1.00  0.00    -0.162 C  
HETATM   36  C   UNL     1      -9.563  19.276  68.749  1.00  0.00    -0.425 C  
HETATM   37  C   UNL     1      -9.003  17.867  68.424  1.00  0.00    -0.282 C  
ENDBRANCH  30  31
ENDBRANCH  22  25
BRANCH  23  38
HETATM   38  O   UNL     1      -8.647  11.873  68.031  1.00  0.00    -0.152 OA 
HETATM   39  C   UNL     1      -7.480  12.156  68.796  1.00  0.00    -0.075 C  
ENDBRANCH  23  38
ENDBRANCH  17  19
ENDBRANCH   8  17
BRANCH   5  40
HETATM   40  C   UNL     1     -11.266   7.434  72.660  1.00  0.00    -0.332 C  
HETATM   41  H2  UNL     1     -13.245   7.563  72.763  1.00  0.00     0.000 HD 
HETATM   42  N   UNL     1     -12.426   8.169  72.814  1.00  0.00    -0.610 N  
HETATM   43  O   UNL     1     -10.446   7.357  73.561  1.00  0.00    -0.355 OA 
HETATM   44  H1  UNL     1     -12.448   8.732  73.665  1.00  0.00     0.000 HD 
ENDBRANCH   5  40
ENDBRANCH   2   3
TORSDOF 9
ENDMDL
MODEL       46
REMARK 921   NORMALIZED FREE ENERGY PREDICTED BY IDOCK:   -5.31 KCAL/MOL
REMARK 922        TOTAL FREE ENERGY PREDICTED BY IDOCK:  -10.24 KCAL/MOL
REMARK 923 INTER-LIGAND FREE ENERGY PREDICTED BY IDOCK:   -8.26 KCAL/MOL
REMARK 924 INTRA-LIGAND FREE ENERGY PREDICTED BY IDOCK:   -1.98 KCAL/MOL
REMARK 927      BINDING AFFINITY PREDICTED BY RF-SCORE:    0.00 PKD
ROOT
HETATM    1  C   UNL     1      -9.858   4.026  71.621  1.00  0.00    -0.253 C  
HETATM    2  C   UNL     1      -9.907   3.941  70.097  1.00  0.00    -0.163 C  
ENDROOT
BRANCH   2   3
HETATM    3  C   UNL     1     -10.185   5.247  69.430  1.00  0.00    -0.251 A  
HETATM    4  C   UNL     1      -9.361   5.842  68.432  1.00  0.00    -0.120 A  
HETATM    5  C   UNL     1     -11.205   7.215  69.833  1.00  0.00    -0.208 A  
HETATM    6  N   UNL     1      -9.618   7.131  68.030  1.00  0.00    -0.133 NA 
HETATM    7  N   UNL     1     -11.169   5.891  70.069  1.00  0.00    -0.346 NA 
HETATM    8  C   UNL     1     -10.600   7.832  68.723  1.00  0.00    -0.135 A  
BRANCH   4   9
HETATM    9  N   UNL     1      -8.394   5.014  67.893  1.00  0.00    -0.101 NA 
HETATM   10  H   UNL     1      -8.763   4.554  67.061  1.00  0.00     0.000 HD 
BRANCH   9  11
HETATM   11  C   UNL     1      -7.013   4.580  68.126  1.00  0.00    -0.056 C  
HETATM   12  O   UNL     1      -5.735   3.562  70.476  1.00  0.00    -0.012 OA 
HETATM   13  C   UNL     1      -6.328   4.860  70.520  1.00  0.00    -0.026 C  
HETATM   14  C   UNL     1      -6.684   3.104  68.270  1.00  0.00    -0.045 C  
HETATM   15  C   UNL     1      -6.295   5.468  69.136  1.00  0.00    -0.034 C  
HETATM   16  C   UNL     1      -6.515   2.645  69.711  1.00  0.00    -0.029 C  
ENDBRANCH   9  11
ENDBRANCH   4   9
BRANCH   8  17
HETATM   17  N   UNL     1     -11.090   9.092  68.257  1.00  0.00    -0.467 NA 
HETATM   18  H   UNL     1     -11.893   9.052  67.631  1.00  0.00     0.000 HD 
BRANCH  17  19
HETATM   19  C   UNL     1     -10.600  10.398  68.556  1.00  0.00    -0.209 A  
HETATM   20  C   UNL     1     -11.489  11.442  68.804  1.00  0.00    -0.354 A  
HETATM   21  C   UNL     1     -11.069  12.788  68.727  1.00  0.00    -0.303 A  
HETATM   22  C   UNL     1      -9.757  13.158  68.365  1.00  0.00    -0.196 A  
HETATM   23  C   UNL     1      -8.829  12.100  68.245  1.00  0.00    -0.182 A  
HETATM   24  C   UNL     1      -9.247  10.755  68.389  1.00  0.00    -0.164 A  
BRANCH  22  25
HETATM   25  N   UNL     1      -9.497  14.489  68.048  1.00  0.00    -0.204 NA 
HETATM   26  C   UNL     1      -9.102  14.887  66.693  1.00  0.00    -0.280 C  
HETATM   27  C   UNL     1      -9.169  15.457  69.095  1.00  0.00    -0.242 C  
HETATM   28  C   UNL     1      -9.849  16.787  68.767  1.00  0.00    -0.264 C  
HETATM   29  C   UNL     1      -9.776  16.222  66.358  1.00  0.00    -0.310 C  
HETATM   30  C   UNL     1      -9.417  17.335  67.376  1.00  0.00    -0.245 C  
BRANCH  30  31
HETATM   31  N   UNL     1      -7.986  17.746  67.326  1.00  0.00    -0.206 NA 
HETATM   32  C   UNL     1      -7.623  18.490  66.094  1.00  0.00    -0.239 C  
HETATM   33  C   UNL     1      -8.170  19.938  66.030  1.00  0.00    -0.289 C  
HETATM   34  N   UNL     1      -7.804  20.779  67.188  1.00  0.00    -0.291 NA 
HETATM   35  C   UNL     1      -6.395  21.175  67.130  1.00  0.00    -0.343 C  
HETATM   36  C   UNL     1      -8.102  20.048  68.437  1.00  0.00    -0.116 C  
HETATM   37  C   UNL     1      -7.574  18.591  68.476  1.00  0.00    -0.306 C  
ENDBRANCH  30  31
ENDBRANCH  22  25
BRANCH  23  38
HETATM   38  O   UNL     1      -7.509  12.431  68.019  1.00  0.00    -0.094 OA 
HETATM   39  C   UNL     1      -6.750  11.496  67.259  1.00  0.00    -0.112 C  
ENDBRANCH  23  38
ENDBRANCH  17  19
ENDBRANCH   8  17
BRANCH   5  40
HETATM   40  C   UNL     1     -11.445   7.949  71.120  1.00  0.00    -0.273 C  
HETATM   41  H2  UNL     1     -11.864   6.333  72.195  1.00  0.00     0.000 HD 
HETATM   42  N   UNL     1     -12.245   7.262  72.014  1.00  0.00    -0.385 N  
HETATM   43  O   UNL     1     -10.867   8.972  71.451  1.00  0.00    -0.274 OA 
HETATM   44  H1  UNL     1     -12.408   7.760  72.889  1.00  0.00     0.000 HD 
ENDBRANCH   5  40
ENDBRANCH   2   3
TORSDOF 9
ENDMDL
MODEL       47
REMARK 921   NORMALIZED FREE ENERGY PREDICTED BY IDOCK:   -5.24 KCAL/MOL
REMARK 922        TOTAL FREE ENERGY PREDICTED BY IDOCK:  -10.14 KCAL/MOL
REMARK 923 INTER-LIGAND FREE ENERGY PREDICTED BY IDOCK:   -8.44 KCAL/MOL
REMARK 924 INTRA-LIGAND FREE ENERGY PREDICTED BY IDOCK:   -1.70 KCAL/MOL
REMARK 927      BINDING AFFINITY PREDICTED BY RF-SCORE:    0.00 PKD
ROOT
HETATM    1  C   UNL     1      -9.718   2.225  71.671  1.00  0.00    -0.218 C  
HETATM    2  C   UNL     1      -9.344   2.706  70.271  1.00  0.00    -0.201 C  
ENDROOT
BRANCH   2   3
HETATM    3  C   UNL     1      -9.860   4.068  69.945  1.00  0.00    -0.115 A  
HETATM    4  C   UNL     1      -9.742   4.700  68.673  1.00  0.00    -0.149 A  
HETATM    5  C   UNL     1     -10.289   6.042  70.942  1.00  0.00    -0.222 A  
HETATM    6  N   UNL     1     -10.086   6.024  68.547  1.00  0.00    -0.148 NA 
HETATM    7  N   UNL     1     -10.223   4.704  71.065  1.00  0.00    -0.178 NA 
HETATM    8  C   UNL     1     -10.411   6.713  69.711  1.00  0.00    -0.193 A  
BRANCH   4   9
HETATM    9  N   UNL     1      -9.348   3.873  67.638  1.00  0.00    -0.175 NA 
HETATM   10  H   UNL     1      -8.933   3.022  68.017  1.00  0.00     0.000 HD 
BRANCH   9  11
HETATM   11  C   UNL     1      -9.332   3.818  66.172  1.00  0.00    -0.178 C  
HETATM   12  O   UNL     1      -7.191   3.347  64.333  1.00  0.00    -0.056 OA 
HETATM   13  C   UNL     1      -7.100   4.454  65.229  1.00  0.00    -0.066 C  
HETATM   14  C   UNL     1      -9.186   2.488  65.454  1.00  0.00    -0.096 C  
HETATM   15  C   UNL     1      -8.493   4.936  65.565  1.00  0.00    -0.130 C  
HETATM   16  C   UNL     1      -7.777   2.204  64.956  1.00  0.00    -0.069 C  
ENDBRANCH   9  11
ENDBRANCH   4   9
BRANCH   8  17
HETATM   17  N   UNL     1     -10.982   8.023  69.671  1.00  0.00    -0.419 NA 
HETATM   18  H   UNL     1     -11.858   8.142  70.180  1.00  0.00     0.000 HD 
BRANCH  17  19
HETATM   19  C   UNL     1     -10.486   9.186  69.010  1.00  0.00    -0.221 A  
HETATM   20  C   UNL     1      -9.252   9.726  69.370  1.00  0.00    -0.214 A  
HETATM   21  C   UNL     1      -8.909  11.050  69.021  1.00  0.00    -0.068 A  
HETATM   22  C   UNL     1      -9.790  11.909  68.332  1.00  0.00    -0.201 A  
HETATM   23  C   UNL     1     -10.980  11.318  67.855  1.00  0.00    -0.248 A  
HETATM   24  C   UNL     1     -11.286   9.969  68.154  1.00  0.00    -0.192 A  
BRANCH  22  25
HETATM   25  N   UNL     1      -9.490  13.268  68.267  1.00  0.00    -0.217 NA 
HETATM   26  C   UNL     1     -10.375  14.274  68.864  1.00  0.00    -0.215 C  
HETATM   27  C   UNL     1      -8.566  13.783  67.257  1.00  0.00    -0.212 C  
HETATM   28  C   UNL     1      -7.698  14.871  67.891  1.00  0.00    -0.151 C  
HETATM   29  C   UNL     1      -9.513  15.371  69.497  1.00  0.00    -0.250 C  
HETATM   30  C   UNL     1      -8.554  16.032  68.475  1.00  0.00    -0.190 C  
BRANCH  30  31
HETATM   31  N   UNL     1      -9.258  16.826  67.428  1.00  0.00    -0.217 NA 
HETATM   32  C   UNL     1     -10.208  17.825  67.977  1.00  0.00    -0.377 C  
HETATM   33  C   UNL     1      -9.538  19.056  68.637  1.00  0.00    -0.403 C  
HETATM   34  N   UNL     1      -8.585  19.773  67.765  1.00  0.00    -0.320 NA 
HETATM   35  C   UNL     1      -9.287  20.547  66.738  1.00  0.00    -0.244 C  
HETATM   36  C   UNL     1      -7.654  18.801  67.156  1.00  0.00    -0.230 C  
HETATM   37  C   UNL     1      -8.336  17.560  66.524  1.00  0.00    -0.270 C  
ENDBRANCH  30  31
ENDBRANCH  22  25
BRANCH  23  38
HETATM   38  O   UNL     1     -11.807  12.093  67.066  1.00  0.00    -0.547 OA 
HETATM   39  C   UNL     1     -11.563  12.043  65.665  1.00  0.00    -0.296 C  
ENDBRANCH  23  38
ENDBRANCH  17  19
ENDBRANCH   8  17
BRANCH   5  40
HETATM   40  C   UNL     1      -9.665   6.689  72.143  1.00  0.00    -0.153 C  
HETATM   41  H2  UNL     1     -11.320   7.591  72.767  1.00  0.00     0.000 HD 
HETATM   42  N   UNL     1     -10.340   7.810  72.589  1.00  0.00    -0.265 N  
HETATM   43  O   UNL     1      -8.753   6.204  72.795  1.00  0.00    -0.124 OA 
HETATM   44  H1  UNL     1      -9.916   8.250  73.406  1.00  0.00     0.000 HD 
ENDBRANCH   5  40
ENDBRANCH   2   3
TORSDOF 9
ENDMDL
MODEL       48
REMARK 921   NORMALIZED FREE ENERGY PREDICTED BY IDOCK:   -5.23 KCAL/MOL
REMARK 922        TOTAL FREE ENERGY PREDICTED BY IDOCK:  -10.11 KCAL/MOL
REMARK 923 INTER-LIGAND FREE ENERGY PREDICTED BY IDOCK:   -8.08 KCAL/MOL
REMARK 924 INTRA-LIGAND FREE ENERGY PREDICTED BY IDOCK:   -2.04 KCAL/MOL
REMARK 927      BINDING AFFINITY PREDICTED BY RF-SCORE:    0.00 PKD
ROOT
HETATM    1  C   UNL     1     -10.739   5.306  73.938  1.00  0.00    -0.320 C  
HETATM    2  C   UNL     1     -10.989   4.981  72.468  1.00  0.00    -0.241 C  
ENDROOT
BRANCH   2   3
HETATM    3  C   UNL     1     -10.187   5.812  71.523  1.00  0.00    -0.203 A  
HETATM    4  C   UNL     1      -9.522   5.315  70.364  1.00  0.00    -0.166 A  
HETATM    5  C   UNL     1      -8.939   7.688  71.496  1.00  0.00    -0.131 A  
HETATM    6  N   UNL     1      -8.662   6.139  69.679  1.00  0.00    -0.133 NA 
HETATM    7  N   UNL     1      -9.976   7.027  72.043  1.00  0.00    -0.160 NA 
HETATM    8  C   UNL     1      -8.389   7.383  70.238  1.00  0.00    -0.134 A  
BRANCH   4   9
HETATM    9  N   UNL     1      -9.873   4.033  69.987  1.00  0.00    -0.192 NA 
HETATM   10  H   UNL     1     -10.781   4.048  69.523  1.00  0.00     0.000 HD 
BRANCH   9  11
HETATM   11  C   UNL     1      -9.367   2.657  70.035  1.00  0.00    -0.122 C  
HETATM   12  O   UNL     1      -7.037   1.555  71.278  1.00  0.00    -0.030 OA 
HETATM   13  C   UNL     1      -6.877   2.577  70.294  1.00  0.00    -0.033 C  
HETATM   14  C   UNL     1      -9.464   1.846  71.316  1.00  0.00    -0.205 C  
HETATM   15  C   UNL     1      -8.029   2.511  69.319  1.00  0.00    -0.056 C  
HETATM   16  C   UNL     1      -8.169   1.792  72.114  1.00  0.00    -0.049 C  
ENDBRANCH   9  11
ENDBRANCH   4   9
BRANCH   8  17
HETATM   17  N   UNL     1      -7.682   8.392  69.511  1.00  0.00    -0.094 NA 
HETATM   18  H   UNL     1      -6.668   8.289  69.480  1.00  0.00     0.000 HD 
BRANCH  17  19
HETATM   19  C   UNL     1      -8.212   9.523  68.822  1.00  0.00    -0.112 A  
HETATM   20  C   UNL     1      -7.355  10.464  68.253  1.00  0.00    -0.088 A  
HETATM   21  C   UNL     1      -7.818  11.752  67.907  1.00  0.00    -0.135 A  
HETATM   22  C   UNL     1      -9.142  12.176  68.145  1.00  0.00    -0.196 A  
HETATM   23  C   UNL     1     -10.036  11.181  68.596  1.00  0.00    -0.200 A  
HETATM   24  C   UNL     1      -9.576   9.872  68.878  1.00  0.00    -0.172 A  
BRANCH  22  25
HETATM   25  N   UNL     1      -9.444  13.531  68.031  1.00  0.00    -0.214 NA 
HETATM   26  C   UNL     1      -9.743  14.139  66.730  1.00  0.00    -0.277 C  
HETATM   27  C   UNL     1      -9.053  14.475  69.076  1.00  0.00    -0.053 C  
HETATM   28  C   UNL     1     -10.178  15.493  69.268  1.00  0.00    -0.252 C  
HETATM   29  C   UNL     1     -10.866  15.164  66.913  1.00  0.00    -0.317 C  
HETATM   30  C   UNL     1     -10.504  16.256  67.952  1.00  0.00    -0.295 C  
BRANCH  30  31
HETATM   31  N   UNL     1      -9.402  17.156  67.507  1.00  0.00    -0.236 NA 
HETATM   32  C   UNL     1      -9.764  18.015  66.352  1.00  0.00    -0.321 C  
HETATM   33  C   UNL     1     -10.738  19.171  66.689  1.00  0.00    -0.377 C  
HETATM   34  N   UNL     1     -10.282  20.054  67.781  1.00  0.00    -0.418 NA 
HETATM   35  C   UNL     1      -9.197  20.931  67.334  1.00  0.00    -0.139 C  
HETATM   36  C   UNL     1      -9.861  19.230  68.932  1.00  0.00    -0.446 C  
HETATM   37  C   UNL     1      -8.909  18.059  68.577  1.00  0.00    -0.295 C  
ENDBRANCH  30  31
ENDBRANCH  22  25
BRANCH  23  38
HETATM   38  O   UNL     1     -11.367  11.525  68.717  1.00  0.00    -0.216 OA 
HETATM   39  C   UNL     1     -11.849  11.709  70.044  1.00  0.00    -0.355 C  
ENDBRANCH  23  38
ENDBRANCH  17  19
ENDBRANCH   8  17
BRANCH   5  40
HETATM   40  C   UNL     1      -8.134   8.344  72.580  1.00  0.00    -0.110 C  
HETATM   41  H2  UNL     1      -8.491   6.960  73.958  1.00  0.00     0.000 HD 
HETATM   42  N   UNL     1      -8.512   7.975  73.857  1.00  0.00    -0.255 N  
HETATM   43  O   UNL     1      -7.127   9.007  72.389  1.00  0.00    -0.326 OA 
HETATM   44  H1  UNL     1      -7.965   8.420  74.594  1.00  0.00     0.000 HD 
ENDBRANCH   5  40
ENDBRANCH   2   3
TORSDOF 9
ENDMDL
MODEL       49
REMARK 921   NORMALIZED FREE ENERGY PREDICTED BY IDOCK:   -5.14 KCAL/MOL
REMARK 922        TOTAL FREE ENERGY PREDICTED BY IDOCK:   -9.98 KCAL/MOL
REMARK 923 INTER-LIGAND FREE ENERGY PREDICTED BY IDOCK:   -8.38 KCAL/MOL
REMARK 924 INTRA-LIGAND FREE ENERGY PREDICTED BY IDOCK:   -1.59 KCAL/MOL
REMARK 927      BINDING AFFINITY PREDICTED BY RF-SCORE:    0.00 PKD
ROOT
HETATM    1  C   UNL     1      -9.609   1.737  71.613  1.00  0.00    -0.197 C  
HETATM    2  C   UNL     1      -9.023   2.231  70.293  1.00  0.00    -0.155 C  
ENDROOT
BRANCH   2   3
HETATM    3  C   UNL     1      -9.603   3.522  69.822  1.00  0.00    -0.136 A  
HETATM    4  C   UNL     1      -9.389   4.089  68.532  1.00  0.00    -0.160 A  
HETATM    5  C   UNL     1     -10.299   5.506  70.632  1.00  0.00    -0.262 A  
HETATM    6  N   UNL     1      -9.819   5.370  68.282  1.00  0.00    -0.142 NA 
HETATM    7  N   UNL     1     -10.142   4.187  70.851  1.00  0.00    -0.128 NA 
HETATM    8  C   UNL     1     -10.330   6.093  69.355  1.00  0.00    -0.227 A  
BRANCH   4   9
HETATM    9  N   UNL     1      -8.814   3.242  67.603  1.00  0.00    -0.119 NA 
HETATM   10  H   UNL     1      -8.505   2.387  68.065  1.00  0.00     0.000 HD 
BRANCH   9  11
HETATM   11  C   UNL     1      -8.504   3.169  66.172  1.00  0.00    -0.109 C  
HETATM   12  O   UNL     1      -9.306   4.838  63.989  1.00  0.00    -0.070 OA 
HETATM   13  C   UNL     1     -10.311   4.183  64.763  1.00  0.00    -0.188 C  
HETATM   14  C   UNL     1      -7.543   4.163  65.542  1.00  0.00    -0.085 C  
HETATM   15  C   UNL     1      -9.744   2.900  65.328  1.00  0.00     0.100 C  
HETATM   16  C   UNL     1      -8.227   5.301  64.800  1.00  0.00    -0.130 C  
ENDBRANCH   9  11
ENDBRANCH   4   9
BRANCH   8  17
HETATM   17  N   UNL     1     -10.994   7.345  69.165  1.00  0.00    -0.420 NA 
HETATM   18  H   UNL     1     -11.993   7.353  69.370  1.00  0.00     0.000 HD 
BRANCH  17  19
HETATM   19  C   UNL     1     -10.440   8.584  68.726  1.00  0.00    -0.184 A  
HETATM   20  C   UNL     1     -10.209   9.613  69.637  1.00  0.00    -0.239 A  
HETATM   21  C   UNL     1     -10.028  10.943  69.200  1.00  0.00    -0.181 A  
HETATM   22  C   UNL     1     -10.103  11.317  67.843  1.00  0.00    -0.178 A  
HETATM   23  C   UNL     1     -10.204  10.256  66.916  1.00  0.00    -0.230 A  
HETATM   24  C   UNL     1     -10.320   8.918  67.362  1.00  0.00    -0.337 A  
BRANCH  22  25
HETATM   25  N   UNL     1     -10.186  12.670  67.522  1.00  0.00    -0.213 NA 
HETATM   26  C   UNL     1      -8.985  13.456  67.220  1.00  0.00    -0.221 C  
HETATM   27  C   UNL     1     -11.360  13.457  67.896  1.00  0.00    -0.289 C  
HETATM   28  C   UNL     1     -11.691  14.422  66.756  1.00  0.00    -0.415 C  
HETATM   29  C   UNL     1      -9.309  14.429  66.082  1.00  0.00    -0.221 C  
HETATM   30  C   UNL     1     -10.498  15.363  66.424  1.00  0.00    -0.303 C  
BRANCH  30  31
HETATM   31  N   UNL     1     -10.195  16.332  67.516  1.00  0.00    -0.264 NA 
HETATM   32  C   UNL     1      -8.745  16.604  67.685  1.00  0.00    -0.202 C  
HETATM   33  C   UNL     1      -8.117  17.475  66.569  1.00  0.00    -0.270 C  
HETATM   34  N   UNL     1      -8.795  18.769  66.351  1.00  0.00    -0.364 NA 
HETATM   35  C   UNL     1      -8.493  19.712  67.430  1.00  0.00    -0.305 C  
HETATM   36  C   UNL     1     -10.250  18.544  66.231  1.00  0.00    -0.418 C  
HETATM   37  C   UNL     1     -10.861  17.648  67.339  1.00  0.00    -0.172 C  
ENDBRANCH  30  31
ENDBRANCH  22  25
BRANCH  23  38
HETATM   38  O   UNL     1     -10.151  10.573  65.574  1.00  0.00    -0.264 OA 
HETATM   39  C   UNL     1      -8.934  10.264  64.904  1.00  0.00    -0.201 C  
ENDBRANCH  23  38
ENDBRANCH  17  19
ENDBRANCH   8  17
BRANCH   5  40
HETATM   40  C   UNL     1      -9.871   6.271  71.851  1.00  0.00    -0.155 C  
HETATM   41  H2  UNL     1      -8.772   7.605  70.872  1.00  0.00     0.000 HD 
HETATM   42  N   UNL     1      -8.700   6.985  71.679  1.00  0.00    -0.117 N  
HETATM   43  O   UNL     1     -10.552   6.414  72.854  1.00  0.00    -0.212 OA 
HETATM   44  H1  UNL     1      -8.408   7.505  72.506  1.00  0.00     0.000 HD 
ENDBRANCH   5  40
ENDBRANCH   2   3
TORSDOF 9
ENDMDL
MODEL       50
REMARK 921   NORMALIZED FREE ENERGY PREDICTED BY IDOCK:   -5.03 KCAL/MOL
REMARK 922        TOTAL FREE ENERGY PREDICTED BY IDOCK:   -9.81 KCAL/MOL
REMARK 923 INTER-LIGAND FREE ENERGY PREDICTED BY IDOCK:   -7.78 KCAL/MOL
REMARK 924 INTRA-LIGAND FREE ENERGY PREDICTED BY IDOCK:   -2.04 KCAL/MOL
REMARK 927      BINDING AFFINITY PREDICTED BY RF-SCORE:    0.00 PKD
ROOT
HETATM    1  C   UNL     1      -9.814  19.183  66.243  1.00  0.00    -0.437 C  
HETATM    2  C   UNL     1     -10.298  17.755  65.998  1.00  0.00    -0.304 C  
ENDROOT
BRANCH   2   3
HETATM    3  C   UNL     1      -9.268  16.713  66.280  1.00  0.00    -0.294 A  
HETATM    4  C   UNL     1      -9.534  15.319  66.406  1.00  0.00    -0.298 A  
HETATM    5  C   UNL     1      -7.279  16.478  67.313  1.00  0.00    -0.168 A  
HETATM    6  N   UNL     1      -8.539  14.484  66.853  1.00  0.00    -0.207 NA 
HETATM    7  N   UNL     1      -8.115  17.290  66.640  1.00  0.00    -0.242 NA 
HETATM    8  C   UNL     1      -7.355  15.074  67.284  1.00  0.00    -0.161 A  
BRANCH   4   9
HETATM    9  N   UNL     1     -10.787  14.917  65.985  1.00  0.00    -0.320 NA 
HETATM   10  H   UNL     1     -11.000  15.345  65.084  1.00  0.00     0.000 HD 
BRANCH   9  11
HETATM   11  C   UNL     1     -11.911  14.076  66.408  1.00  0.00    -0.438 C  
HETATM   12  O   UNL     1     -11.965  11.492  67.638  1.00  0.00    -0.630 OA 
HETATM   13  C   UNL     1     -11.333  11.638  66.367  1.00  0.00    -0.245 C  
HETATM   14  C   UNL     1     -12.235  13.909  67.883  1.00  0.00    -0.194 C  
HETATM   15  C   UNL     1     -11.986  12.775  65.616  1.00  0.00    -0.503 C  
HETATM   16  C   UNL     1     -11.719  12.612  68.488  1.00  0.00    -0.330 C  
ENDBRANCH   9  11
ENDBRANCH   4   9
BRANCH   8  17
HETATM   17  N   UNL     1      -6.189  14.295  67.566  1.00  0.00    -0.337 NA 
HETATM   18  H   UNL     1      -5.313  14.813  67.626  1.00  0.00     0.000 HD 
BRANCH  17  19
HETATM   19  C   UNL     1      -6.094  12.887  67.774  1.00  0.00    -0.143 A  
HETATM   20  C   UNL     1      -5.462  12.078  66.830  1.00  0.00    -0.058 A  
HETATM   21  C   UNL     1      -5.675  10.683  66.811  1.00  0.00    -0.062 A  
HETATM   22  C   UNL     1      -6.552  10.033  67.703  1.00  0.00    -0.067 A  
HETATM   23  C   UNL     1      -7.084  10.834  68.738  1.00  0.00    -0.079 A  
HETATM   24  C   UNL     1      -6.812  12.222  68.787  1.00  0.00    -0.092 A  
BRANCH  22  25
HETATM   25  N   UNL     1      -6.914   8.712  67.447  1.00  0.00    -0.077 NA 
HETATM   26  C   UNL     1      -8.173   8.384  66.769  1.00  0.00    -0.102 C  
HETATM   27  C   UNL     1      -6.319   7.613  68.207  1.00  0.00    -0.041 C  
HETATM   28  C   UNL     1      -6.063   6.440  67.259  1.00  0.00    -0.025 C  
HETATM   29  C   UNL     1      -7.926   7.207  65.821  1.00  0.00    -0.123 C  
HETATM   30  C   UNL     1      -7.367   5.963  66.557  1.00  0.00    -0.078 C  
BRANCH  30  31
HETATM   31  N   UNL     1      -8.344   5.340  67.496  1.00  0.00    -0.107 NA 
HETATM   32  C   UNL     1      -9.408   4.559  66.816  1.00  0.00    -0.150 C  
HETATM   33  C   UNL     1      -8.935   3.211  66.217  1.00  0.00    -0.150 C  
HETATM   34  N   UNL     1      -8.267   2.316  67.183  1.00  0.00    -0.075 NA 
HETATM   35  C   UNL     1      -9.235   1.712  68.102  1.00  0.00    -0.174 C  
HETATM   36  C   UNL     1      -7.235   3.074  67.919  1.00  0.00    -0.050 C  
HETATM   37  C   UNL     1      -7.713   4.434  68.489  1.00  0.00    -0.074 C  
ENDBRANCH  30  31
ENDBRANCH  22  25
BRANCH  23  38
HETATM   38  O   UNL     1      -7.843  10.207  69.704  1.00  0.00    -0.147 OA 
HETATM   39  C   UNL     1      -9.255  10.332  69.572  1.00  0.00    -0.170 C  
ENDBRANCH  23  38
ENDBRANCH  17  19
ENDBRANCH   8  17
BRANCH   5  40
HETATM   40  C   UNL     1      -6.685  17.220  68.474  1.00  0.00    -0.185 C  
HETATM   41  H2  UNL     1      -8.250  18.404  68.776  1.00  0.00     0.000 HD 
HETATM   42  N   UNL     1      -7.237  18.471  68.679  1.00  0.00    -0.279 N  
HETATM   43  O   UNL     1      -5.913  16.733  69.285  1.00  0.00    -0.157 OA 
HETATM   44  H1  UNL     1      -6.833  18.975  69.469  1.00  0.00     0.000 HD 
ENDBRANCH   5  40
ENDBRANCH   2   3
TORSDOF 9
ENDMDL
MODEL       51
REMARK 921   NORMALIZED FREE ENERGY PREDICTED BY IDOCK:   -4.90 KCAL/MOL
REMARK 922        TOTAL FREE ENERGY PREDICTED BY IDOCK:   -9.62 KCAL/MOL
REMARK 923 INTER-LIGAND FREE ENERGY PREDICTED BY IDOCK:   -7.78 KCAL/MOL
REMARK 924 INTRA-LIGAND FREE ENERGY PREDICTED BY IDOCK:   -1.84 KCAL/MOL
REMARK 927      BINDING AFFINITY PREDICTED BY RF-SCORE:    0.00 PKD
ROOT
HETATM    1  C   UNL     1     -13.041   7.164  71.592  1.00  0.00    -0.410 C  
HETATM    2  C   UNL     1     -11.760   6.386  71.886  1.00  0.00    -0.378 C  
ENDROOT
BRANCH   2   3
HETATM    3  C   UNL     1     -10.528   7.025  71.338  1.00  0.00    -0.208 A  
HETATM    4  C   UNL     1      -9.899   6.661  70.112  1.00  0.00    -0.166 A  
HETATM    5  C   UNL     1      -8.664   8.077  72.040  1.00  0.00    -0.147 A  
HETATM    6  N   UNL     1      -8.668   7.189  69.807  1.00  0.00    -0.141 NA 
HETATM    7  N   UNL     1      -9.963   7.806  72.266  1.00  0.00    -0.188 NA 
HETATM    8  C   UNL     1      -8.043   7.957  70.784  1.00  0.00    -0.101 A  
BRANCH   4   9
HETATM    9  N   UNL     1     -10.645   5.840  69.287  1.00  0.00    -0.286 NA 
HETATM   10  H   UNL     1     -11.499   5.556  69.767  1.00  0.00     0.000 HD 
BRANCH   9  11
HETATM   11  C   UNL     1     -10.610   5.244  67.948  1.00  0.00    -0.024 C  
HETATM   12  O   UNL     1      -8.757   5.573  65.792  1.00  0.00    -0.142 OA 
HETATM   13  C   UNL     1      -9.449   6.719  66.289  1.00  0.00    -0.067 C  
HETATM   14  C   UNL     1      -9.592   4.168  67.610  1.00  0.00    -0.213 C  
HETATM   15  C   UNL     1     -10.784   6.287  66.850  1.00  0.00    -0.411 C  
HETATM   16  C   UNL     1      -8.383   4.680  66.840  1.00  0.00    -0.106 C  
ENDBRANCH   9  11
ENDBRANCH   4   9
BRANCH   8  17
HETATM   17  N   UNL     1      -6.869   8.721  70.498  1.00  0.00    -0.041 NA 
HETATM   18  H   UNL     1      -5.992   8.338  70.851  1.00  0.00     0.000 HD 
BRANCH  17  19
HETATM   19  C   UNL     1      -6.765   9.951  69.781  1.00  0.00    -0.076 A  
HETATM   20  C   UNL     1      -6.121  11.046  70.355  1.00  0.00    -0.131 A  
HETATM   21  C   UNL     1      -6.324  12.351  69.856  1.00  0.00    -0.048 A  
HETATM   22  C   UNL     1      -7.202  12.631  68.789  1.00  0.00    -0.083 A  
HETATM   23  C   UNL     1      -7.747  11.508  68.127  1.00  0.00    -0.120 A  
HETATM   24  C   UNL     1      -7.485  10.199  68.596  1.00  0.00    -0.084 A  
BRANCH  22  25
HETATM   25  N   UNL     1      -7.554  13.955  68.537  1.00  0.00    -0.129 NA 
HETATM   26  C   UNL     1      -8.944  14.409  68.644  1.00  0.00    -0.172 C  
HETATM   27  C   UNL     1      -6.682  14.823  67.746  1.00  0.00    -0.174 C  
HETATM   28  C   UNL     1      -6.685  16.222  68.365  1.00  0.00    -0.136 C  
HETATM   29  C   UNL     1      -8.957  15.812  69.259  1.00  0.00    -0.266 C  
HETATM   30  C   UNL     1      -8.118  16.824  68.436  1.00  0.00    -0.219 C  
BRANCH  30  31
HETATM   31  N   UNL     1      -8.697  17.122  67.095  1.00  0.00    -0.207 NA 
HETATM   32  C   UNL     1     -10.163  17.355  67.118  1.00  0.00    -0.323 C  
HETATM   33  C   UNL     1     -10.591  18.707  67.741  1.00  0.00    -0.385 C  
HETATM   34  N   UNL     1      -9.957  19.891  67.126  1.00  0.00    -0.394 NA 
HETATM   35  C   UNL     1     -10.530  20.173  65.808  1.00  0.00    -0.280 C  
HETATM   36  C   UNL     1      -8.498  19.673  67.037  1.00  0.00    -0.310 C  
HETATM   37  C   UNL     1      -8.084  18.304  66.438  1.00  0.00    -0.258 C  
ENDBRANCH  30  31
ENDBRANCH  22  25
BRANCH  23  38
HETATM   38  O   UNL     1      -8.508  11.738  67.000  1.00  0.00    -0.162 OA 
HETATM   39  C   UNL     1      -9.573  10.824  66.765  1.00  0.00    -0.172 C  
ENDBRANCH  23  38
ENDBRANCH  17  19
ENDBRANCH   8  17
BRANCH   5  40
HETATM   40  C   UNL     1      -7.895   7.956  73.324  1.00  0.00    -0.148 C  
HETATM   41  H2  UNL     1      -7.843   5.971  73.338  1.00  0.00     0.000 HD 
HETATM   42  N   UNL     1      -8.067   6.744  73.965  1.00  0.00    -0.116 N  
HETATM   43  O   UNL     1      -7.057   8.757  73.707  1.00  0.00    -0.351 OA 
HETATM   44  H1  UNL     1      -7.544   6.661  74.838  1.00  0.00     0.000 HD 
ENDBRANCH   5  40
ENDBRANCH   2   3
TORSDOF 9
ENDMDL
MODEL       52
REMARK 921   NORMALIZED FREE ENERGY PREDICTED BY IDOCK:   -4.89 KCAL/MOL
REMARK 922        TOTAL FREE ENERGY PREDICTED BY IDOCK:   -9.60 KCAL/MOL
REMARK 923 INTER-LIGAND FREE ENERGY PREDICTED BY IDOCK:   -7.85 KCAL/MOL
REMARK 924 INTRA-LIGAND FREE ENERGY PREDICTED BY IDOCK:   -1.75 KCAL/MOL
REMARK 927      BINDING AFFINITY PREDICTED BY RF-SCORE:    0.00 PKD
ROOT
HETATM    1  C   UNL     1     -13.096  14.038  64.714  1.00  0.00     0.243 C  
HETATM    2  C   UNL     1     -11.652  14.325  64.310  1.00  0.00    -0.299 C  
ENDROOT
BRANCH   2   3
HETATM    3  C   UNL     1     -10.647  13.913  65.333  1.00  0.00    -0.335 A  
HETATM    4  C   UNL     1      -9.714  14.792  65.957  1.00  0.00    -0.321 A  
HETATM    5  C   UNL     1      -9.441  12.113  65.951  1.00  0.00    -0.179 A  
HETATM    6  N   UNL     1      -8.716  14.264  66.740  1.00  0.00    -0.182 NA 
HETATM    7  N   UNL     1     -10.577  12.579  65.400  1.00  0.00    -0.274 NA 
HETATM    8  C   UNL     1      -8.596  12.879  66.774  1.00  0.00    -0.063 A  
BRANCH   4   9
HETATM    9  N   UNL     1      -9.954  16.140  65.766  1.00  0.00    -0.393 NA 
HETATM   10  H   UNL     1     -10.095  16.325  64.773  1.00  0.00     0.000 HD 
BRANCH   9  11
HETATM   11  C   UNL     1     -10.073  17.390  66.523  1.00  0.00    -0.320 C  
HETATM   12  O   UNL     1      -8.749  18.280  68.899  1.00  0.00    -0.243 OA 
HETATM   13  C   UNL     1      -9.520  17.080  68.947  1.00  0.00    -0.235 C  
HETATM   14  C   UNL     1      -8.967  18.430  66.469  1.00  0.00    -0.294 C  
HETATM   15  C   UNL     1     -10.629  17.162  67.924  1.00  0.00    -0.376 C  
HETATM   16  C   UNL     1      -8.034  18.406  67.670  1.00  0.00    -0.242 C  
ENDBRANCH   9  11
ENDBRANCH   4   9
BRANCH   8  17
HETATM   17  N   UNL     1      -7.737  12.225  67.712  1.00  0.00    -0.127 NA 
HETATM   18  H   UNL     1      -6.738  12.389  67.589  1.00  0.00     0.000 HD 
BRANCH  17  19
HETATM   19  C   UNL     1      -8.097  11.372  68.798  1.00  0.00    -0.112 A  
HETATM   20  C   UNL     1      -7.111  10.719  69.535  1.00  0.00    -0.132 A  
HETATM   21  C   UNL     1      -7.427   9.606  70.344  1.00  0.00    -0.168 A  
HETATM   22  C   UNL     1      -8.728   9.070  70.429  1.00  0.00    -0.199 A  
HETATM   23  C   UNL     1      -9.744   9.812  69.788  1.00  0.00    -0.229 A  
HETATM   24  C   UNL     1      -9.426  10.966  69.032  1.00  0.00    -0.160 A  
BRANCH  22  25
HETATM   25  N   UNL     1      -8.903   7.822  71.023  1.00  0.00    -0.139 NA 
HETATM   26  C   UNL     1      -8.802   6.584  70.243  1.00  0.00    -0.151 C  
HETATM   27  C   UNL     1      -9.617   7.692  72.293  1.00  0.00    -0.165 C  
HETATM   28  C   UNL     1      -8.911   6.640  73.150  1.00  0.00    -0.135 C  
HETATM   29  C   UNL     1      -8.100   5.523  71.095  1.00  0.00    -0.112 C  
HETATM   30  C   UNL     1      -8.836   5.261  72.434  1.00  0.00    -0.128 C  
BRANCH  30  31
HETATM   31  N   UNL     1     -10.169   4.616  72.262  1.00  0.00    -0.189 NA 
HETATM   32  C   UNL     1     -10.098   3.241  71.707  1.00  0.00    -0.055 C  
HETATM   33  C   UNL     1      -9.570   2.173  72.697  1.00  0.00    -0.092 C  
HETATM   34  N   UNL     1     -10.311   2.105  73.973  1.00  0.00    -0.113 NA 
HETATM   35  C   UNL     1     -11.620   1.472  73.792  1.00  0.00    -0.183 C  
HETATM   36  C   UNL     1     -10.449   3.466  74.531  1.00  0.00    -0.177 C  
HETATM   37  C   UNL     1     -10.950   4.531  73.522  1.00  0.00    -0.306 C  
ENDBRANCH  30  31
ENDBRANCH  22  25
BRANCH  23  38
HETATM   38  O   UNL     1     -11.047   9.390  69.956  1.00  0.00    -0.236 OA 
HETATM   39  C   UNL     1     -11.820  10.106  70.913  1.00  0.00    -0.374 C  
ENDBRANCH  23  38
ENDBRANCH  17  19
ENDBRANCH   8  17
BRANCH   5  40
HETATM   40  C   UNL     1      -8.932  10.952  65.146  1.00  0.00    -0.180 C  
HETATM   41  H2  UNL     1     -10.013  11.343  63.527  1.00  0.00     0.000 HD 
HETATM   42  N   UNL     1      -9.787  10.556  64.135  1.00  0.00    -0.329 N  
HETATM   43  O   UNL     1      -7.805  10.491  65.234  1.00  0.00    -0.151 OA 
HETATM   44  H1  UNL     1      -9.441   9.767  63.588  1.00  0.00     0.000 HD 
ENDBRANCH   5  40
ENDBRANCH   2   3
TORSDOF 9
ENDMDL
MODEL       53
REMARK 921   NORMALIZED FREE ENERGY PREDICTED BY IDOCK:   -4.89 KCAL/MOL
REMARK 922        TOTAL FREE ENERGY PREDICTED BY IDOCK:   -9.59 KCAL/MOL
REMARK 923 INTER-LIGAND FREE ENERGY PREDICTED BY IDOCK:   -7.80 KCAL/MOL
REMARK 924 INTRA-LIGAND FREE ENERGY PREDICTED BY IDOCK:   -1.80 KCAL/MOL
REMARK 927      BINDING AFFINITY PREDICTED BY RF-SCORE:    0.00 PKD
ROOT
HETATM    1  C   UNL     1     -10.899  19.268  67.341  1.00  0.00    -0.554 C  
HETATM    2  C   UNL     1     -10.406  18.723  68.679  1.00  0.00    -0.261 C  
ENDROOT
BRANCH   2   3
HETATM    3  C   UNL     1      -9.780  17.372  68.585  1.00  0.00    -0.308 A  
HETATM    4  C   UNL     1     -10.129  16.256  69.401  1.00  0.00    -0.253 A  
HETATM    5  C   UNL     1      -7.833  16.401  68.000  1.00  0.00    -0.155 A  
HETATM    6  N   UNL     1      -9.355  15.121  69.351  1.00  0.00    -0.205 NA 
HETATM    7  N   UNL     1      -8.690  17.421  67.811  1.00  0.00    -0.228 NA 
HETATM    8  C   UNL     1      -8.188  15.177  68.595  1.00  0.00    -0.154 A  
BRANCH   4   9
HETATM    9  N   UNL     1     -11.291  16.400  70.134  1.00  0.00    -0.444 NA 
HETATM   10  H   UNL     1     -11.266  17.281  70.646  1.00  0.00     0.000 HD 
BRANCH   9  11
HETATM   11  C   UNL     1     -12.549  15.701  70.415  1.00  0.00    -0.336 C  
HETATM   12  O   UNL     1     -13.056  13.167  71.645  1.00  0.00    -0.383 OA 
HETATM   13  C   UNL     1     -12.256  13.214  70.465  1.00  0.00    -0.328 C  
HETATM   14  C   UNL     1     -13.074  15.604  71.838  1.00  0.00    -0.545 C  
HETATM   15  C   UNL     1     -12.674  14.402  69.629  1.00  0.00     0.052 C  
HETATM   16  C   UNL     1     -12.792  14.270  72.512  1.00  0.00    -0.357 C  
ENDBRANCH   9  11
ENDBRANCH   4   9
BRANCH   8  17
HETATM   17  N   UNL     1      -7.428  14.001  68.305  1.00  0.00    -0.111 NA 
HETATM   18  H   UNL     1      -6.447  14.153  68.069  1.00  0.00     0.000 HD 
BRANCH  17  19
HETATM   19  C   UNL     1      -7.863  12.642  68.305  1.00  0.00    -0.144 A  
HETATM   20  C   UNL     1      -7.033  11.638  68.802  1.00  0.00    -0.098 A  
HETATM   21  C   UNL     1      -7.260  10.283  68.479  1.00  0.00    -0.080 A  
HETATM   22  C   UNL     1      -8.297   9.867  67.620  1.00  0.00    -0.114 A  
HETATM   23  C   UNL     1      -9.212  10.869  67.228  1.00  0.00    -0.151 A  
HETATM   24  C   UNL     1      -9.013  12.217  67.611  1.00  0.00    -0.178 A  
BRANCH  22  25
HETATM   25  N   UNL     1      -8.288   8.560  67.138  1.00  0.00    -0.111 NA 
HETATM   26  C   UNL     1      -7.872   8.256  65.765  1.00  0.00    -0.098 C  
HETATM   27  C   UNL     1      -9.086   7.518  67.784  1.00  0.00    -0.129 C  
HETATM   28  C   UNL     1      -8.280   6.218  67.801  1.00  0.00    -0.118 C  
HETATM   29  C   UNL     1      -7.068   6.953  65.772  1.00  0.00    -0.072 C  
HETATM   30  C   UNL     1      -7.869   5.769  66.370  1.00  0.00    -0.101 C  
BRANCH  30  31
HETATM   31  N   UNL     1      -9.029   5.353  65.530  1.00  0.00    -0.159 NA 
HETATM   32  C   UNL     1      -8.666   5.044  64.124  1.00  0.00    -0.097 C  
HETATM   33  C   UNL     1      -7.894   3.714  63.936  1.00  0.00    -0.084 C  
HETATM   34  N   UNL     1      -8.575   2.529  64.495  1.00  0.00    -0.088 NA 
HETATM   35  C   UNL     1      -9.714   2.132  63.665  1.00  0.00    -0.125 C  
HETATM   36  C   UNL     1      -9.001   2.819  65.880  1.00  0.00    -0.142 C  
HETATM   37  C   UNL     1      -9.746   4.166  66.060  1.00  0.00    -0.205 C  
ENDBRANCH  30  31
ENDBRANCH  22  25
BRANCH  23  38
HETATM   38  O   UNL     1     -10.312  10.477  66.493  1.00  0.00    -0.233 OA 
HETATM   39  C   UNL     1     -10.289  10.803  65.108  1.00  0.00    -0.271 C  
ENDBRANCH  23  38
ENDBRANCH  17  19
ENDBRANCH   8  17
BRANCH   5  40
HETATM   40  C   UNL     1      -6.428  16.926  68.036  1.00  0.00    -0.144 C  
HETATM   41  H2  UNL     1      -6.910  18.812  67.646  1.00  0.00     0.000 HD 
HETATM   42  N   UNL     1      -6.252  18.100  67.328  1.00  0.00    -0.165 N  
HETATM   43  O   UNL     1      -5.541  16.484  68.750  1.00  0.00    -0.119 OA 
HETATM   44  H1  UNL     1      -5.297  18.457  67.352  1.00  0.00     0.000 HD 
ENDBRANCH   5  40
ENDBRANCH   2   3
TORSDOF 9
ENDMDL
MODEL       54
REMARK 921   NORMALIZED FREE ENERGY PREDICTED BY IDOCK:   -4.79 KCAL/MOL
REMARK 922        TOTAL FREE ENERGY PREDICTED BY IDOCK:   -9.45 KCAL/MOL
REMARK 923 INTER-LIGAND FREE ENERGY PREDICTED BY IDOCK:   -7.74 KCAL/MOL
REMARK 924 INTRA-LIGAND FREE ENERGY PREDICTED BY IDOCK:   -1.71 KCAL/MOL
REMARK 927      BINDING AFFINITY PREDICTED BY RF-SCORE:    0.00 PKD
ROOT
HETATM    1  C   UNL     1      -5.797   3.267  66.986  1.00  0.00    -0.023 C  
HETATM    2  C   UNL     1      -7.239   2.788  67.128  1.00  0.00    -0.053 C  
ENDROOT
BRANCH   2   3
HETATM    3  C   UNL     1      -8.157   3.804  67.720  1.00  0.00    -0.088 A  
HETATM    4  C   UNL     1      -9.410   4.192  67.164  1.00  0.00    -0.176 A  
HETATM    5  C   UNL     1      -8.093   5.660  68.997  1.00  0.00    -0.097 A  
HETATM    6  N   UNL     1     -10.075   5.271  67.695  1.00  0.00    -0.172 NA 
HETATM    7  N   UNL     1      -7.534   4.473  68.698  1.00  0.00    -0.064 NA 
HETATM    8  C   UNL     1      -9.417   6.009  68.673  1.00  0.00    -0.124 A  
BRANCH   4   9
HETATM    9  N   UNL     1      -9.887   3.374  66.157  1.00  0.00    -0.411 NA 
HETATM   10  H   UNL     1     -10.499   2.662  66.555  1.00  0.00     0.000 HD 
BRANCH   9  11
HETATM   11  C   UNL     1      -9.802   3.196  64.704  1.00  0.00    -0.094 C  
HETATM   12  O   UNL     1      -7.546   2.784  62.991  1.00  0.00    -0.059 OA 
HETATM   13  C   UNL     1      -7.602   3.968  63.786  1.00  0.00    -0.066 C  
HETATM   14  C   UNL     1      -9.498   1.830  64.112  1.00  0.00    -0.128 C  
HETATM   15  C   UNL     1      -9.048   4.336  64.028  1.00  0.00    -0.146 C  
HETATM   16  C   UNL     1      -8.047   1.646  63.692  1.00  0.00    -0.061 C  
ENDBRANCH   9  11
ENDBRANCH   4   9
BRANCH   8  17
HETATM   17  N   UNL     1     -10.092   7.012  69.436  1.00  0.00    -0.166 NA 
HETATM   18  H   UNL     1     -10.187   6.824  70.433  1.00  0.00     0.000 HD 
BRANCH  17  19
HETATM   19  C   UNL     1     -10.652   8.244  68.981  1.00  0.00    -0.150 A  
HETATM   20  C   UNL     1     -10.358   8.719  67.704  1.00  0.00    -0.317 A  
HETATM   21  C   UNL     1     -10.574  10.073  67.367  1.00  0.00    -0.330 A  
HETATM   22  C   UNL     1     -11.056  11.022  68.291  1.00  0.00    -0.257 A  
HETATM   23  C   UNL     1     -11.476  10.509  69.538  1.00  0.00    -0.272 A  
HETATM   24  C   UNL     1     -11.316   9.137  69.845  1.00  0.00    -0.047 A  
BRANCH  22  25
HETATM   25  N   UNL     1     -10.982  12.375  67.967  1.00  0.00    -0.214 NA 
HETATM   26  C   UNL     1     -11.464  12.876  66.675  1.00  0.00    -0.343 C  
HETATM   27  C   UNL     1     -10.051  13.262  68.663  1.00  0.00    -0.146 C  
HETATM   28  C   UNL     1     -10.735  14.610  68.895  1.00  0.00    -0.251 C  
HETATM   29  C   UNL     1     -12.146  14.229  66.898  1.00  0.00    -0.440 C  
HETATM   30  C   UNL     1     -11.202  15.263  67.563  1.00  0.00    -0.317 C  
BRANCH  30  31
HETATM   31  N   UNL     1     -10.071  15.684  66.687  1.00  0.00    -0.264 NA 
HETATM   32  C   UNL     1     -10.421  16.779  65.748  1.00  0.00    -0.292 C  
HETATM   33  C   UNL     1     -10.586  18.169  66.412  1.00  0.00    -0.271 C  
HETATM   34  N   UNL     1      -9.419  18.610  67.204  1.00  0.00    -0.290 NA 
HETATM   35  C   UNL     1      -8.314  19.017  66.334  1.00  0.00    -0.307 C  
HETATM   36  C   UNL     1      -9.008  17.522  68.115  1.00  0.00    -0.266 C  
HETATM   37  C   UNL     1      -8.874  16.131  67.444  1.00  0.00    -0.187 C  
ENDBRANCH  30  31
ENDBRANCH  22  25
BRANCH  23  38
HETATM   38  O   UNL     1     -12.072  11.386  70.421  1.00  0.00    -0.341 OA 
HETATM   39  C   UNL     1     -12.630  10.810  71.597  1.00  0.00    -0.351 C  
ENDBRANCH  23  38
ENDBRANCH  17  19
ENDBRANCH   8  17
BRANCH   5  40
HETATM   40  C   UNL     1      -7.017   6.692  69.172  1.00  0.00    -0.078 C  
HETATM   41  H2  UNL     1      -6.458   6.721  67.267  1.00  0.00     0.000 HD 
HETATM   42  N   UNL     1      -6.040   6.651  68.195  1.00  0.00    -0.027 N  
HETATM   43  O   UNL     1      -7.059   7.605  69.982  1.00  0.00    -0.057 OA 
HETATM   44  H1  UNL     1      -5.309   7.353  68.314  1.00  0.00     0.000 HD 
ENDBRANCH   5  40
ENDBRANCH   2   3
TORSDOF 9
ENDMDL
MODEL       55
REMARK 921   NORMALIZED FREE ENERGY PREDICTED BY IDOCK:   -4.77 KCAL/MOL
REMARK 922        TOTAL FREE ENERGY PREDICTED BY IDOCK:   -9.41 KCAL/MOL
REMARK 923 INTER-LIGAND FREE ENERGY PREDICTED BY IDOCK:   -7.79 KCAL/MOL
REMARK 924 INTRA-LIGAND FREE ENERGY PREDICTED BY IDOCK:   -1.62 KCAL/MOL
REMARK 927      BINDING AFFINITY PREDICTED BY RF-SCORE:    0.00 PKD
ROOT
HETATM    1  C   UNL     1     -10.528  18.210  66.684  1.00  0.00    -0.354 C  
HETATM    2  C   UNL     1     -10.239  17.324  67.893  1.00  0.00    -0.332 C  
ENDROOT
BRANCH   2   3
HETATM    3  C   UNL     1     -10.186  15.867  67.574  1.00  0.00    -0.269 A  
HETATM    4  C   UNL     1      -9.040  15.037  67.746  1.00  0.00    -0.180 A  
HETATM    5  C   UNL     1     -11.130  14.362  66.188  1.00  0.00    -0.330 A  
HETATM    6  N   UNL     1      -9.055  13.759  67.241  1.00  0.00    -0.222 NA 
HETATM    7  N   UNL     1     -11.272  15.508  66.880  1.00  0.00    -0.226 NA 
HETATM    8  C   UNL     1     -10.153  13.391  66.470  1.00  0.00    -0.280 A  
BRANCH   4   9
HETATM    9  N   UNL     1      -8.017  15.591  68.492  1.00  0.00    -0.131 NA 
HETATM   10  H   UNL     1      -8.152  15.367  69.478  1.00  0.00     0.000 HD 
BRANCH   9  11
HETATM   11  C   UNL     1      -6.801  16.394  68.330  1.00  0.00    -0.142 C  
HETATM   12  O   UNL     1      -6.371  18.915  67.044  1.00  0.00    -0.185 OA 
HETATM   13  C   UNL     1      -6.882  17.826  66.276  1.00  0.00    -0.272 C  
HETATM   14  C   UNL     1      -6.608  17.669  69.134  1.00  0.00    -0.251 C  
HETATM   15  C   UNL     1      -6.389  16.526  66.868  1.00  0.00    -0.166 C  
HETATM   16  C   UNL     1      -6.920  18.942  68.361  1.00  0.00    -0.254 C  
ENDBRANCH   9  11
ENDBRANCH   4   9
BRANCH   8  17
HETATM   17  N   UNL     1     -10.369  12.033  66.076  1.00  0.00    -0.231 NA 
HETATM   18  H   UNL     1     -11.204  11.860  65.516  1.00  0.00     0.000 HD 
BRANCH  17  19
HETATM   19  C   UNL     1      -9.567  10.888  66.366  1.00  0.00    -0.197 A  
HETATM   20  C   UNL     1     -10.022   9.612  66.038  1.00  0.00    -0.344 A  
HETATM   21  C   UNL     1      -9.453   8.465  66.633  1.00  0.00    -0.267 A  
HETATM   22  C   UNL     1      -8.434   8.535  67.605  1.00  0.00    -0.129 A  
HETATM   23  C   UNL     1      -7.888   9.817  67.834  1.00  0.00    -0.090 A  
HETATM   24  C   UNL     1      -8.422  10.955  67.183  1.00  0.00    -0.128 A  
BRANCH  22  25
HETATM   25  N   UNL     1      -8.121   7.390  68.334  1.00  0.00    -0.123 NA 
HETATM   26  C   UNL     1      -8.684   7.159  69.669  1.00  0.00    -0.141 C  
HETATM   27  C   UNL     1      -6.918   6.615  68.031  1.00  0.00    -0.080 C  
HETATM   28  C   UNL     1      -7.244   5.127  68.163  1.00  0.00    -0.067 C  
HETATM   29  C   UNL     1      -9.009   5.669  69.811  1.00  0.00    -0.140 C  
HETATM   30  C   UNL     1      -7.767   4.769  69.584  1.00  0.00    -0.059 C  
BRANCH  30  31
HETATM   31  N   UNL     1      -6.730   4.912  70.644  1.00  0.00    -0.035 NA 
HETATM   32  C   UNL     1      -7.253   4.716  72.020  1.00  0.00    -0.067 C  
HETATM   33  C   UNL     1      -7.594   3.247  72.377  1.00  0.00    -0.057 C  
HETATM   34  N   UNL     1      -6.480   2.297  72.180  1.00  0.00    -0.014 NA 
HETATM   35  C   UNL     1      -5.465   2.448  73.225  1.00  0.00     0.000 C  
HETATM   36  C   UNL     1      -5.897   2.500  70.837  1.00  0.00    -0.017 C  
HETATM   37  C   UNL     1      -5.588   3.977  70.482  1.00  0.00    -0.013 C  
ENDBRANCH  30  31
ENDBRANCH  22  25
BRANCH  23  38
HETATM   38  O   UNL     1      -6.803   9.907  68.682  1.00  0.00    -0.051 OA 
HETATM   39  C   UNL     1      -7.046  10.511  69.948  1.00  0.00    -0.145 C  
ENDBRANCH  23  38
ENDBRANCH  17  19
ENDBRANCH   8  17
BRANCH   5  40
HETATM   40  C   UNL     1     -11.718  14.527  64.817  1.00  0.00    -0.422 C  
HETATM   41  H2  UNL     1     -10.369  15.837  64.178  1.00  0.00     0.000 HD 
HETATM   42  N   UNL     1     -11.381  15.720  64.205  1.00  0.00    -0.794 N  
HETATM   43  O   UNL     1     -12.295  13.646  64.200  1.00  0.00    -0.592 OA 
HETATM   44  H1  UNL     1     -11.781  15.833  63.273  1.00  0.00     0.000 HD 
ENDBRANCH   5  40
ENDBRANCH   2   3
TORSDOF 9
ENDMDL
MODEL       56
REMARK 921   NORMALIZED FREE ENERGY PREDICTED BY IDOCK:   -4.72 KCAL/MOL
REMARK 922        TOTAL FREE ENERGY PREDICTED BY IDOCK:   -9.35 KCAL/MOL
REMARK 923 INTER-LIGAND FREE ENERGY PREDICTED BY IDOCK:   -8.79 KCAL/MOL
REMARK 924 INTRA-LIGAND FREE ENERGY PREDICTED BY IDOCK:   -0.56 KCAL/MOL
REMARK 927      BINDING AFFINITY PREDICTED BY RF-SCORE:    0.00 PKD
ROOT
HETATM    1  C   UNL     1      -5.406  16.880  67.287  1.00  0.00    -0.175 C  
HETATM    2  C   UNL     1      -6.425  16.623  68.394  1.00  0.00    -0.135 C  
ENDROOT
BRANCH   2   3
HETATM    3  C   UNL     1      -7.693  16.000  67.912  1.00  0.00    -0.138 A  
HETATM    4  C   UNL     1      -9.001  16.467  68.233  1.00  0.00    -0.206 A  
HETATM    5  C   UNL     1      -8.508  13.998  67.276  1.00  0.00    -0.207 A  
HETATM    6  N   UNL     1     -10.089  15.702  67.887  1.00  0.00    -0.224 NA 
HETATM    7  N   UNL     1      -7.439  14.813  67.349  1.00  0.00    -0.198 NA 
HETATM    8  C   UNL     1      -9.840  14.442  67.353  1.00  0.00    -0.224 A  
BRANCH   4   9
HETATM    9  N   UNL     1      -9.055  17.718  68.816  1.00  0.00    -0.249 NA 
HETATM   10  H   UNL     1      -8.977  17.628  69.828  1.00  0.00     0.000 HD 
BRANCH   9  11
HETATM   11  C   UNL     1      -9.188  19.134  68.455  1.00  0.00    -0.376 C  
HETATM   12  O   UNL     1      -9.174  20.431  65.904  1.00  0.00    -0.150 OA 
HETATM   13  C   UNL     1      -8.034  19.669  66.297  1.00  0.00    -0.328 C  
HETATM   14  C   UNL     1     -10.470  19.650  67.824  1.00  0.00    -0.573 C  
HETATM   15  C   UNL     1      -7.923  19.682  67.804  1.00  0.00    -0.337 C  
HETATM   16  C   UNL     1     -10.395  19.815  66.314  1.00  0.00    -0.519 C  
ENDBRANCH   9  11
ENDBRANCH   4   9
BRANCH   8  17
HETATM   17  N   UNL     1     -10.883  13.657  66.769  1.00  0.00    -0.289 NA 
HETATM   18  H   UNL     1     -11.714  14.170  66.476  1.00  0.00     0.000 HD 
BRANCH  17  19
HETATM   19  C   UNL     1     -10.912  12.248  66.543  1.00  0.00    -0.279 A  
HETATM   20  C   UNL     1     -11.323  11.383  67.555  1.00  0.00    -0.362 A  
HETATM   21  C   UNL     1     -11.012  10.006  67.504  1.00  0.00    -0.276 A  
HETATM   22  C   UNL     1     -10.248   9.435  66.466  1.00  0.00    -0.238 A  
HETATM   23  C   UNL     1      -9.949  10.287  65.380  1.00  0.00    -0.302 A  
HETATM   24  C   UNL     1     -10.322  11.652  65.410  1.00  0.00    -0.313 A  
BRANCH  22  25
HETATM   25  N   UNL     1      -9.757   8.141  66.626  1.00  0.00    -0.230 NA 
HETATM   26  C   UNL     1     -10.659   7.004  66.839  1.00  0.00    -0.301 C  
HETATM   27  C   UNL     1      -8.371   7.912  67.032  1.00  0.00    -0.117 C  
HETATM   28  C   UNL     1      -7.822   6.712  66.258  1.00  0.00    -0.105 C  
HETATM   29  C   UNL     1     -10.114   5.796  66.072  1.00  0.00     0.032 C  
HETATM   30  C   UNL     1      -8.670   5.429  66.497  1.00  0.00    -0.117 C  
BRANCH  30  31
HETATM   31  N   UNL     1      -8.574   4.915  67.893  1.00  0.00    -0.103 NA 
HETATM   32  C   UNL     1      -9.300   3.638  68.107  1.00  0.00    -0.180 C  
HETATM   33  C   UNL     1      -8.624   2.397  67.472  1.00  0.00    -0.104 C  
HETATM   34  N   UNL     1      -7.220   2.191  67.882  1.00  0.00    -0.047 NA 
HETATM   35  C   UNL     1      -7.138   1.689  69.255  1.00  0.00    -0.036 C  
HETATM   36  C   UNL     1      -6.476   3.459  67.733  1.00  0.00    -0.037 C  
HETATM   37  C   UNL     1      -7.178   4.697  68.348  1.00  0.00    -0.064 C  
ENDBRANCH  30  31
ENDBRANCH  22  25
BRANCH  23  38
HETATM   38  O   UNL     1      -9.314   9.731  64.288  1.00  0.00    -0.261 OA 
HETATM   39  C   UNL     1      -9.456  10.431  63.057  1.00  0.00    -0.330 C  
ENDBRANCH  23  38
ENDBRANCH  17  19
ENDBRANCH   8  17
BRANCH   5  40
HETATM   40  C   UNL     1      -8.106  12.607  67.672  1.00  0.00    -0.173 C  
HETATM   41  H2  UNL     1      -9.755  12.211  68.705  1.00  0.00     0.000 HD 
HETATM   42  N   UNL     1      -8.742  12.144  68.808  1.00  0.00    -0.372 N  
HETATM   43  O   UNL     1      -7.423  11.863  66.987  1.00  0.00    -0.148 OA 
HETATM   44  H1  UNL     1      -8.470  11.199  69.077  1.00  0.00     0.000 HD 
ENDBRANCH   5  40
ENDBRANCH   2   3
TORSDOF 9
ENDMDL
MODEL       57
REMARK 921   NORMALIZED FREE ENERGY PREDICTED BY IDOCK:   -4.72 KCAL/MOL
REMARK 922        TOTAL FREE ENERGY PREDICTED BY IDOCK:   -9.34 KCAL/MOL
REMARK 923 INTER-LIGAND FREE ENERGY PREDICTED BY IDOCK:   -7.35 KCAL/MOL
REMARK 924 INTRA-LIGAND FREE ENERGY PREDICTED BY IDOCK:   -1.99 KCAL/MOL
REMARK 927      BINDING AFFINITY PREDICTED BY RF-SCORE:    0.00 PKD
ROOT
HETATM    1  C   UNL     1     -11.703   5.458  72.891  1.00  0.00    -0.232 C  
HETATM    2  C   UNL     1     -10.856   4.937  71.732  1.00  0.00    -0.018 C  
ENDROOT
BRANCH   2   3
HETATM    3  C   UNL     1      -9.903   5.944  71.182  1.00  0.00    -0.181 A  
HETATM    4  C   UNL     1      -8.999   5.706  70.106  1.00  0.00    -0.138 A  
HETATM    5  C   UNL     1      -8.734   7.758  71.829  1.00  0.00    -0.119 A  
HETATM    6  N   UNL     1      -8.042   6.647  69.813  1.00  0.00    -0.124 NA 
HETATM    7  N   UNL     1      -9.841   7.009  71.989  1.00  0.00    -0.160 NA 
HETATM    8  C   UNL     1      -7.928   7.732  70.677  1.00  0.00    -0.098 A  
BRANCH   4   9
HETATM    9  N   UNL     1      -9.226   4.545  69.390  1.00  0.00    -0.116 NA 
HETATM   10  H   UNL     1      -9.478   3.792  70.030  1.00  0.00     0.000 HD 
BRANCH   9  11
HETATM   11  C   UNL     1      -9.223   4.042  68.013  1.00  0.00    -0.154 C  
HETATM   12  O   UNL     1      -8.326   5.245  65.576  1.00  0.00    -0.119 OA 
HETATM   13  C   UNL     1      -9.347   5.895  66.332  1.00  0.00    -0.157 C  
HETATM   14  C   UNL     1      -7.923   3.615  67.353  1.00  0.00    -0.082 C  
HETATM   15  C   UNL     1     -10.132   4.858  67.101  1.00  0.00    -0.228 C  
HETATM   16  C   UNL     1      -7.332   4.658  66.416  1.00  0.00    -0.081 C  
ENDBRANCH   9  11
ENDBRANCH   4   9
BRANCH   8  17
HETATM   17  N   UNL     1      -7.117   8.864  70.353  1.00  0.00    -0.047 NA 
HETATM   18  H   UNL     1      -6.213   8.912  70.822  1.00  0.00     0.000 HD 
BRANCH  17  19
HETATM   19  C   UNL     1      -7.410   9.937  69.458  1.00  0.00    -0.102 A  
HETATM   20  C   UNL     1      -6.569  11.046  69.391  1.00  0.00    -0.104 A  
HETATM   21  C   UNL     1      -7.011  12.259  68.821  1.00  0.00    -0.098 A  
HETATM   22  C   UNL     1      -8.318  12.436  68.324  1.00  0.00    -0.169 A  
HETATM   23  C   UNL     1      -9.121  11.276  68.272  1.00  0.00    -0.173 A  
HETATM   24  C   UNL     1      -8.645  10.046  68.788  1.00  0.00    -0.131 A  
BRANCH  22  25
HETATM   25  N   UNL     1      -8.757  13.726  68.033  1.00  0.00    -0.172 NA 
HETATM   26  C   UNL     1      -7.952  14.639  67.216  1.00  0.00    -0.197 C  
HETATM   27  C   UNL     1      -9.776  14.374  68.858  1.00  0.00    -0.144 C  
HETATM   28  C   UNL     1     -10.718  15.165  67.949  1.00  0.00    -0.268 C  
HETATM   29  C   UNL     1      -8.888  15.439  66.305  1.00  0.00    -0.302 C  
HETATM   30  C   UNL     1      -9.957  16.227  67.104  1.00  0.00    -0.257 C  
BRANCH  30  31
HETATM   31  N   UNL     1      -9.389  17.332  67.927  1.00  0.00    -0.253 NA 
HETATM   32  C   UNL     1      -8.376  18.147  67.210  1.00  0.00    -0.241 C  
HETATM   33  C   UNL     1      -8.956  19.087  66.124  1.00  0.00    -0.190 C  
HETATM   34  N   UNL     1     -10.009  20.003  66.609  1.00  0.00    -0.439 NA 
HETATM   35  C   UNL     1      -9.440  21.083  67.417  1.00  0.00    -0.120 C  
HETATM   36  C   UNL     1     -11.010  19.233  67.375  1.00  0.00    -0.337 C  
HETATM   37  C   UNL     1     -10.415  18.275  68.439  1.00  0.00    -0.269 C  
ENDBRANCH  30  31
ENDBRANCH  22  25
BRANCH  23  38
HETATM   38  O   UNL     1     -10.360  11.382  67.675  1.00  0.00    -0.177 OA 
HETATM   39  C   UNL     1     -10.427  11.022  66.300  1.00  0.00    -0.254 C  
ENDBRANCH  23  38
ENDBRANCH  17  19
ENDBRANCH   8  17
BRANCH   5  40
HETATM   40  C   UNL     1      -8.190   8.143  73.174  1.00  0.00    -0.193 C  
HETATM   41  H2  UNL     1      -8.985   6.612  74.157  1.00  0.00     0.000 HD 
HETATM   42  N   UNL     1      -8.907   7.626  74.236  1.00  0.00    -0.396 N  
HETATM   43  O   UNL     1      -7.123   8.710  73.352  1.00  0.00    -0.311 OA 
HETATM   44  H1  UNL     1      -8.538   7.888  75.150  1.00  0.00     0.000 HD 
ENDBRANCH   5  40
ENDBRANCH   2   3
TORSDOF 9
ENDMDL
MODEL       58
REMARK 921   NORMALIZED FREE ENERGY PREDICTED BY IDOCK:   -4.70 KCAL/MOL
REMARK 922        TOTAL FREE ENERGY PREDICTED BY IDOCK:   -9.31 KCAL/MOL
REMARK 923 INTER-LIGAND FREE ENERGY PREDICTED BY IDOCK:   -8.33 KCAL/MOL
REMARK 924 INTRA-LIGAND FREE ENERGY PREDICTED BY IDOCK:   -0.98 KCAL/MOL
REMARK 927      BINDING AFFINITY PREDICTED BY RF-SCORE:    0.00 PKD
ROOT
HETATM    1  C   UNL     1      -8.829   1.803  68.064  1.00  0.00    -0.149 C  
HETATM    2  C   UNL     1      -9.054   2.979  69.011  1.00  0.00    -0.205 C  
ENDROOT
BRANCH   2   3
HETATM    3  C   UNL     1      -8.892   4.314  68.363  1.00  0.00    -0.107 A  
HETATM    4  C   UNL     1      -9.426   5.534  68.870  1.00  0.00    -0.129 A  
HETATM    5  C   UNL     1      -8.608   5.226  66.323  1.00  0.00    -0.116 A  
HETATM    6  N   UNL     1      -9.373   6.664  68.089  1.00  0.00    -0.116 NA 
HETATM    7  N   UNL     1      -8.395   4.169  67.130  1.00  0.00    -0.100 NA 
HETATM    8  C   UNL     1      -8.911   6.519  66.785  1.00  0.00    -0.131 A  
BRANCH   4   9
HETATM    9  N   UNL     1      -9.898   5.479  70.167  1.00  0.00    -0.183 NA 
HETATM   10  H   UNL     1     -10.897   5.278  70.161  1.00  0.00     0.000 HD 
BRANCH   9  11
HETATM   11  C   UNL     1      -9.431   5.615  71.551  1.00  0.00    -0.150 C  
HETATM   12  O   UNL     1     -10.154   4.189  73.925  1.00  0.00    -0.128 OA 
HETATM   13  C   UNL     1     -11.167   4.892  73.207  1.00  0.00    -0.345 C  
HETATM   14  C   UNL     1      -8.509   4.571  72.158  1.00  0.00    -0.115 C  
HETATM   15  C   UNL     1     -10.543   6.068  72.491  1.00  0.00    -0.249 C  
HETATM   16  C   UNL     1      -9.217   3.562  73.050  1.00  0.00    -0.098 C  
ENDBRANCH   9  11
ENDBRANCH   4   9
BRANCH   8  17
HETATM   17  N   UNL     1      -8.618   7.652  65.964  1.00  0.00    -0.146 NA 
HETATM   18  H   UNL     1      -7.877   7.522  65.275  1.00  0.00     0.000 HD 
BRANCH  17  19
HETATM   19  C   UNL     1      -9.228   8.942  65.984  1.00  0.00    -0.228 A  
HETATM   20  C   UNL     1      -9.079   9.806  64.901  1.00  0.00    -0.278 A  
HETATM   21  C   UNL     1      -9.334  11.188  65.034  1.00  0.00    -0.232 A  
HETATM   22  C   UNL     1      -9.713  11.779  66.257  1.00  0.00    -0.222 A  
HETATM   23  C   UNL     1      -9.990  10.885  67.314  1.00  0.00    -0.186 A  
HETATM   24  C   UNL     1      -9.794   9.493  67.151  1.00  0.00    -0.239 A  
BRANCH  22  25
HETATM   25  N   UNL     1      -9.679  13.167  66.372  1.00  0.00    -0.267 NA 
HETATM   26  C   UNL     1      -8.904  13.827  67.428  1.00  0.00    -0.210 C  
HETATM   27  C   UNL     1     -10.725  13.993  65.768  1.00  0.00    -0.293 C  
HETATM   28  C   UNL     1     -10.082  15.250  65.179  1.00  0.00    -0.323 C  
HETATM   29  C   UNL     1      -8.260  15.090  66.847  1.00  0.00    -0.206 C  
HETATM   30  C   UNL     1      -9.308  16.066  66.254  1.00  0.00    -0.322 C  
BRANCH  30  31
HETATM   31  N   UNL     1     -10.198  16.677  67.281  1.00  0.00    -0.284 NA 
HETATM   32  C   UNL     1      -9.516  16.957  68.569  1.00  0.00    -0.266 C  
HETATM   33  C   UNL     1      -8.533  18.154  68.531  1.00  0.00    -0.299 C  
HETATM   34  N   UNL     1      -9.129  19.418  68.053  1.00  0.00    -0.318 NA 
HETATM   35  C   UNL     1     -10.004  20.008  69.069  1.00  0.00    -0.210 C  
HETATM   36  C   UNL     1      -9.864  19.167  66.796  1.00  0.00    -0.342 C  
HETATM   37  C   UNL     1     -10.823  17.950  66.839  1.00  0.00    -0.052 C  
ENDBRANCH  30  31
ENDBRANCH  22  25
BRANCH  23  38
HETATM   38  O   UNL     1     -10.487  11.417  68.487  1.00  0.00    -0.188 OA 
HETATM   39  C   UNL     1     -11.880  11.240  68.715  1.00  0.00    -0.329 C  
ENDBRANCH  23  38
ENDBRANCH  17  19
ENDBRANCH   8  17
BRANCH   5  40
HETATM   40  C   UNL     1      -9.034   4.744  64.967  1.00  0.00    -0.153 C  
HETATM   41  H2  UNL     1      -7.456   5.458  63.996  1.00  0.00     0.000 HD 
HETATM   42  N   UNL     1      -8.473   5.452  63.921  1.00  0.00    -0.255 N  
HETATM   43  O   UNL     1      -9.672   3.722  64.764  1.00  0.00    -0.163 OA 
HETATM   44  H1  UNL     1      -8.763   5.124  62.999  1.00  0.00     0.000 HD 
ENDBRANCH   5  40
ENDBRANCH   2   3
TORSDOF 9
ENDMDL
MODEL       59
REMARK 921   NORMALIZED FREE ENERGY PREDICTED BY IDOCK:   -4.70 KCAL/MOL
REMARK 922        TOTAL FREE ENERGY PREDICTED BY IDOCK:   -9.30 KCAL/MOL
REMARK 923 INTER-LIGAND FREE ENERGY PREDICTED BY IDOCK:   -7.59 KCAL/MOL
REMARK 924 INTRA-LIGAND FREE ENERGY PREDICTED BY IDOCK:   -1.71 KCAL/MOL
REMARK 927      BINDING AFFINITY PREDICTED BY RF-SCORE:    0.00 PKD
ROOT
HETATM    1  C   UNL     1     -13.181  14.430  70.853  1.00  0.00    -0.347 C  
HETATM    2  C   UNL     1     -12.387  15.417  70.000  1.00  0.00    -0.368 C  
ENDROOT
BRANCH   2   3
HETATM    3  C   UNL     1     -11.182  14.821  69.354  1.00  0.00    -0.284 A  
HETATM    4  C   UNL     1     -10.126  15.568  68.756  1.00  0.00    -0.211 A  
HETATM    5  C   UNL     1     -10.545  12.953  68.265  1.00  0.00    -0.246 A  
HETATM    6  N   UNL     1      -9.166  14.907  68.027  1.00  0.00    -0.182 NA 
HETATM    7  N   UNL     1     -11.349  13.503  69.195  1.00  0.00    -0.271 NA 
HETATM    8  C   UNL     1      -9.356  13.547  67.806  1.00  0.00    -0.213 A  
BRANCH   4   9
HETATM    9  N   UNL     1     -10.128  16.921  69.035  1.00  0.00    -0.286 NA 
HETATM   10  H   UNL     1      -9.882  17.069  70.014  1.00  0.00     0.000 HD 
BRANCH   9  11
HETATM   11  C   UNL     1     -10.367  18.214  68.386  1.00  0.00    -0.356 C  
HETATM   12  O   UNL     1      -8.710  19.785  66.660  1.00  0.00    -0.321 OA 
HETATM   13  C   UNL     1      -8.239  19.469  67.970  1.00  0.00    -0.316 C  
HETATM   14  C   UNL     1     -10.629  18.287  66.891  1.00  0.00    -0.356 C  
HETATM   15  C   UNL     1      -9.422  19.296  68.895  1.00  0.00    -0.437 C  
HETATM   16  C   UNL     1      -9.414  18.693  66.069  1.00  0.00    -0.037 C  
ENDBRANCH   9  11
ENDBRANCH   4   9
BRANCH   8  17
HETATM   17  N   UNL     1      -8.325  12.728  67.248  1.00  0.00    -0.185 NA 
HETATM   18  H   UNL     1      -7.887  13.082  66.397  1.00  0.00     0.000 HD 
BRANCH  17  19
HETATM   19  C   UNL     1      -7.828  11.479  67.727  1.00  0.00    -0.126 A  
HETATM   20  C   UNL     1      -8.082  10.305  67.022  1.00  0.00    -0.121 A  
HETATM   21  C   UNL     1      -7.943   9.042  67.639  1.00  0.00    -0.101 A  
HETATM   22  C   UNL     1      -7.581   8.891  68.993  1.00  0.00    -0.085 A  
HETATM   23  C   UNL     1      -7.197  10.073  69.664  1.00  0.00    -0.119 A  
HETATM   24  C   UNL     1      -7.277  11.329  69.016  1.00  0.00    -0.119 A  
BRANCH  22  25
HETATM   25  N   UNL     1      -7.731   7.644  69.594  1.00  0.00    -0.097 NA 
HETATM   26  C   UNL     1      -9.006   7.232  70.190  1.00  0.00    -0.148 C  
HETATM   27  C   UNL     1      -6.564   6.890  70.053  1.00  0.00    -0.044 C  
HETATM   28  C   UNL     1      -6.783   5.408  69.746  1.00  0.00    -0.054 C  
HETATM   29  C   UNL     1      -9.230   5.747  69.891  1.00  0.00    -0.166 C  
HETATM   30  C   UNL     1      -8.074   4.858  70.417  1.00  0.00    -0.084 C  
BRANCH  30  31
HETATM   31  N   UNL     1      -7.989   4.814  71.905  1.00  0.00    -0.102 NA 
HETATM   32  C   UNL     1      -9.141   4.132  72.547  1.00  0.00    -0.110 C  
HETATM   33  C   UNL     1      -9.154   2.592  72.378  1.00  0.00    -0.083 C  
HETATM   34  N   UNL     1      -7.921   1.918  72.833  1.00  0.00    -0.051 NA 
HETATM   35  C   UNL     1      -7.847   1.883  74.296  1.00  0.00    -0.037 C  
HETATM   36  C   UNL     1      -6.748   2.604  72.256  1.00  0.00    -0.015 C  
HETATM   37  C   UNL     1      -6.761   4.147  72.406  1.00  0.00    -0.037 C  
ENDBRANCH  30  31
ENDBRANCH  22  25
BRANCH  23  38
HETATM   38  O   UNL     1      -6.714   9.949  70.951  1.00  0.00    -0.265 OA 
HETATM   39  C   UNL     1      -5.331  10.231  71.131  1.00  0.00    -0.086 C  
ENDBRANCH  23  38
ENDBRANCH  17  19
ENDBRANCH   8  17
BRANCH   5  40
HETATM   40  C   UNL     1     -11.334  11.994  67.423  1.00  0.00    -0.327 C  
HETATM   41  H2  UNL     1     -11.142  13.011  65.728  1.00  0.00     0.000 HD 
HETATM   42  N   UNL     1     -11.871  12.562  66.283  1.00  0.00    -0.406 N  
HETATM   43  O   UNL     1     -11.374  10.787  67.602  1.00  0.00    -0.392 OA 
HETATM   44  H1  UNL     1     -12.407  11.910  65.710  1.00  0.00     0.000 HD 
ENDBRANCH   5  40
ENDBRANCH   2   3
TORSDOF 9
ENDMDL
MODEL       60
REMARK 921   NORMALIZED FREE ENERGY PREDICTED BY IDOCK:   -4.65 KCAL/MOL
REMARK 922        TOTAL FREE ENERGY PREDICTED BY IDOCK:   -9.24 KCAL/MOL
REMARK 923 INTER-LIGAND FREE ENERGY PREDICTED BY IDOCK:   -8.33 KCAL/MOL
REMARK 924 INTRA-LIGAND FREE ENERGY PREDICTED BY IDOCK:   -0.90 KCAL/MOL
REMARK 927      BINDING AFFINITY PREDICTED BY RF-SCORE:    0.00 PKD
ROOT
HETATM    1  C   UNL     1     -13.537  15.627  73.018  1.00  0.00    -0.619 C  
HETATM    2  C   UNL     1     -14.124  14.592  72.061  1.00  0.00    -0.603 C  
ENDROOT
BRANCH   2   3
HETATM    3  C   UNL     1     -13.123  13.618  71.538  1.00  0.00    -0.350 A  
HETATM    4  C   UNL     1     -12.359  13.796  70.348  1.00  0.00    -0.353 A  
HETATM    5  C   UNL     1     -12.688  11.407  71.548  1.00  0.00    -0.357 A  
HETATM    6  N   UNL     1     -11.610  12.748  69.869  1.00  0.00    -0.226 NA 
HETATM    7  N   UNL     1     -13.219  12.459  72.199  1.00  0.00    -0.466 NA 
HETATM    8  C   UNL     1     -11.744  11.521  70.512  1.00  0.00    -0.150 A  
BRANCH   4   9
HETATM    9  N   UNL     1     -12.390  15.069  69.811  1.00  0.00    -0.512 NA 
HETATM   10  H   UNL     1     -13.146  15.603  70.240  1.00  0.00     0.000 HD 
BRANCH   9  11
HETATM   11  C   UNL     1     -11.693  15.903  68.827  1.00  0.00    -0.349 C  
HETATM   12  O   UNL     1      -8.948  15.954  68.016  1.00  0.00    -0.180 OA 
HETATM   13  C   UNL     1      -9.268  16.192  69.387  1.00  0.00    -0.170 C  
HETATM   14  C   UNL     1     -11.251  15.317  67.497  1.00  0.00    -0.317 C  
HETATM   15  C   UNL     1     -10.647  16.803  69.476  1.00  0.00    -0.283 C  
HETATM   16  C   UNL     1      -9.777  14.942  67.444  1.00  0.00    -0.217 C  
ENDBRANCH   9  11
ENDBRANCH   4   9
BRANCH   8  17
HETATM   17  N   UNL     1     -10.862  10.430  70.233  1.00  0.00    -0.411 NA 
HETATM   18  H   UNL     1     -10.698   9.783  71.004  1.00  0.00     0.000 HD 
BRANCH  17  19
HETATM   19  C   UNL     1     -10.182  10.130  69.015  1.00  0.00    -0.206 A  
HETATM   20  C   UNL     1     -10.872   9.559  67.947  1.00  0.00    -0.240 A  
HETATM   21  C   UNL     1     -10.182   8.914  66.898  1.00  0.00    -0.347 A  
HETATM   22  C   UNL     1      -8.779   8.776  66.880  1.00  0.00    -0.127 A  
HETATM   23  C   UNL     1      -8.078   9.470  67.891  1.00  0.00    -0.106 A  
HETATM   24  C   UNL     1      -8.778  10.169  68.904  1.00  0.00    -0.149 A  
BRANCH  22  25
HETATM   25  N   UNL     1      -8.201   7.901  65.963  1.00  0.00    -0.115 NA 
HETATM   26  C   UNL     1      -8.130   8.229  64.535  1.00  0.00    -0.146 C  
HETATM   27  C   UNL     1      -8.054   6.480  66.276  1.00  0.00    -0.115 C  
HETATM   28  C   UNL     1      -6.708   5.993  65.737  1.00  0.00    -0.048 C  
HETATM   29  C   UNL     1      -6.786   7.740  63.986  1.00  0.00    -0.061 C  
HETATM   30  C   UNL     1      -6.578   6.220  64.204  1.00  0.00    -0.034 C  
BRANCH  30  31
HETATM   31  N   UNL     1      -7.509   5.373  63.405  1.00  0.00    -0.052 NA 
HETATM   32  C   UNL     1      -6.833   4.582  62.345  1.00  0.00    -0.031 C  
HETATM   33  C   UNL     1      -5.997   3.387  62.868  1.00  0.00    -0.014 C  
HETATM   34  N   UNL     1      -6.747   2.445  63.723  1.00  0.00    -0.030 NA 
HETATM   35  C   UNL     1      -7.661   1.621  62.929  1.00  0.00    -0.049 C  
HETATM   36  C   UNL     1      -7.478   3.203  64.760  1.00  0.00    -0.075 C  
HETATM   37  C   UNL     1      -8.288   4.414  64.227  1.00  0.00    -0.110 C  
ENDBRANCH  30  31
ENDBRANCH  22  25
BRANCH  23  38
HETATM   38  O   UNL     1      -6.699   9.464  67.832  1.00  0.00    -0.066 OA 
HETATM   39  C   UNL     1      -6.080  10.710  67.531  1.00  0.00    -0.052 C  
ENDBRANCH  23  38
ENDBRANCH  17  19
ENDBRANCH   8  17
BRANCH   5  40
HETATM   40  C   UNL     1     -13.610  10.228  71.660  1.00  0.00    -0.153 C  
HETATM   41  H2  UNL     1     -12.881   9.255  70.090  1.00  0.00     0.000 HD 
HETATM   42  N   UNL     1     -13.782   9.539  70.475  1.00  0.00    -0.318 N  
HETATM   43  O   UNL     1     -14.044   9.787  72.713  1.00  0.00    -0.131 OA 
HETATM   44  H1  UNL     1     -14.409   8.738  70.551  1.00  0.00     0.000 HD 
ENDBRANCH   5  40
ENDBRANCH   2   3
TORSDOF 9
ENDMDL
MODEL       61
REMARK 921   NORMALIZED FREE ENERGY PREDICTED BY IDOCK:   -4.63 KCAL/MOL
REMARK 922        TOTAL FREE ENERGY PREDICTED BY IDOCK:   -9.20 KCAL/MOL
REMARK 923 INTER-LIGAND FREE ENERGY PREDICTED BY IDOCK:  -11.64 KCAL/MOL
REMARK 924 INTRA-LIGAND FREE ENERGY PREDICTED BY IDOCK:    2.44 KCAL/MOL
REMARK 927      BINDING AFFINITY PREDICTED BY RF-SCORE:    0.00 PKD
ROOT
HETATM    1  C   UNL     1      -7.946   8.094  67.197  1.00  0.00    -0.105 C  
HETATM    2  C   UNL     1      -9.075   8.246  66.180  1.00  0.00    -0.238 C  
ENDROOT
BRANCH   2   3
HETATM    3  C   UNL     1      -9.866   9.500  66.342  1.00  0.00    -0.253 A  
HETATM    4  C   UNL     1     -10.888   9.699  67.316  1.00  0.00    -0.142 A  
HETATM    5  C   UNL     1     -10.616  11.244  65.128  1.00  0.00    -0.280 A  
HETATM    6  N   UNL     1     -11.673  10.824  67.244  1.00  0.00    -0.270 NA 
HETATM    7  N   UNL     1      -9.659  10.313  65.299  1.00  0.00    -0.241 NA 
HETATM    8  C   UNL     1     -11.508  11.649  66.137  1.00  0.00    -0.127 A  
BRANCH   4   9
HETATM    9  N   UNL     1     -10.945   8.744  68.314  1.00  0.00    -0.457 NA 
HETATM   10  H   UNL     1     -11.476   7.938  67.987  1.00  0.00     0.000 HD 
BRANCH   9  11
HETATM   11  C   UNL     1     -10.491   8.512  69.689  1.00  0.00    -0.221 C  
HETATM   12  O   UNL     1     -11.886   8.684  72.182  1.00  0.00    -0.344 OA 
HETATM   13  C   UNL     1     -11.806   9.843  71.354  1.00  0.00    -0.394 C  
HETATM   14  C   UNL     1     -10.922   7.264  70.441  1.00  0.00    -0.273 C  
HETATM   15  C   UNL     1     -10.539   9.780  70.532  1.00  0.00    -0.376 C  
HETATM   16  C   UNL     1     -12.068   7.493  71.416  1.00  0.00    -0.327 C  
ENDBRANCH   9  11
ENDBRANCH   4   9
BRANCH   8  17
HETATM   17  N   UNL     1     -12.117  12.941  66.069  1.00  0.00    -0.463 NA 
HETATM   18  H   UNL     1     -13.086  12.959  65.751  1.00  0.00     0.000 HD 
BRANCH  17  19
HETATM   19  C   UNL     1     -11.543  14.209  66.387  1.00  0.00    -0.369 A  
HETATM   20  C   UNL     1     -10.709  14.851  65.474  1.00  0.00    -0.369 A  
HETATM   21  C   UNL     1      -9.844  15.888  65.887  1.00  0.00    -0.383 A  
HETATM   22  C   UNL     1      -9.743  16.308  67.229  1.00  0.00    -0.237 A  
HETATM   23  C   UNL     1     -10.683  15.749  68.122  1.00  0.00    -0.285 A  
HETATM   24  C   UNL     1     -11.591  14.755  67.685  1.00  0.00    -0.374 A  
BRANCH  22  25
HETATM   25  N   UNL     1      -8.684  17.135  67.596  1.00  0.00    -0.211 NA 
HETATM   26  C   UNL     1      -8.587  18.514  67.105  1.00  0.00    -0.269 C  
HETATM   27  C   UNL     1      -7.431  16.570  68.095  1.00  0.00    -0.159 C  
HETATM   28  C   UNL     1      -6.910  17.450  69.231  1.00  0.00    -0.200 C  
HETATM   29  C   UNL     1      -8.061  19.402  68.236  1.00  0.00    -0.371 C  
HETATM   30  C   UNL     1      -6.689  18.921  68.775  1.00  0.00    -0.278 C  
BRANCH  30  31
HETATM   31  N   UNL     1      -5.580  19.070  67.790  1.00  0.00    -0.179 NA 
HETATM   32  C   UNL     1      -5.909  18.549  66.439  1.00  0.00    -0.155 C  
HETATM   33  C   UNL     1      -6.904  19.424  65.637  1.00  0.00    -0.291 C  
HETATM   34  N   UNL     1      -6.493  20.835  65.488  1.00  0.00    -0.226 NA 
HETATM   35  C   UNL     1      -5.401  20.969  64.521  1.00  0.00    -0.218 C  
HETATM   36  C   UNL     1      -6.106  21.373  66.808  1.00  0.00    -0.319 C  
HETATM   37  C   UNL     1      -5.132  20.474  67.613  1.00  0.00    -0.180 C  
ENDBRANCH  30  31
ENDBRANCH  22  25
BRANCH  23  38
HETATM   38  O   UNL     1     -10.700  16.230  69.415  1.00  0.00    -0.273 OA 
HETATM   39  C   UNL     1     -11.709  15.701  70.268  1.00  0.00    -0.357 C  
ENDBRANCH  23  38
ENDBRANCH  17  19
ENDBRANCH   8  17
BRANCH   5  40
HETATM   40  C   UNL     1     -10.961  11.347  63.671  1.00  0.00    -0.363 C  
HETATM   41  H2  UNL     1      -9.783   9.861  63.082  1.00  0.00     0.000 HD 
HETATM   42  N   UNL     1      -9.995  10.826  62.830  1.00  0.00    -0.654 N  
HETATM   43  O   UNL     1     -12.050  11.690  63.240  1.00  0.00    -0.409 OA 
HETATM   44  H1  UNL     1     -10.229  10.895  61.840  1.00  0.00     0.000 HD 
ENDBRANCH   5  40
ENDBRANCH   2   3
TORSDOF 9
ENDMDL
MODEL       62
REMARK 921   NORMALIZED FREE ENERGY PREDICTED BY IDOCK:   -4.60 KCAL/MOL
REMARK 922        TOTAL FREE ENERGY PREDICTED BY IDOCK:   -9.16 KCAL/MOL
REMARK 923 INTER-LIGAND FREE ENERGY PREDICTED BY IDOCK:   -7.27 KCAL/MOL
REMARK 924 INTRA-LIGAND FREE ENERGY PREDICTED BY IDOCK:   -1.89 KCAL/MOL
REMARK 927      BINDING AFFINITY PREDICTED BY RF-SCORE:    0.00 PKD
ROOT
HETATM    1  C   UNL     1      -9.821   3.392  64.883  1.00  0.00    -0.097 C  
HETATM    2  C   UNL     1      -9.199   3.526  66.271  1.00  0.00    -0.179 C  
ENDROOT
BRANCH   2   3
HETATM    3  C   UNL     1      -9.159   4.929  66.779  1.00  0.00    -0.118 A  
HETATM    4  C   UNL     1      -7.986   5.736  66.845  1.00  0.00    -0.102 A  
HETATM    5  C   UNL     1     -10.230   6.276  68.233  1.00  0.00    -0.169 A  
HETATM    6  N   UNL     1      -8.038   6.940  67.506  1.00  0.00    -0.115 NA 
HETATM    7  N   UNL     1     -10.311   5.232  67.387  1.00  0.00    -0.197 NA 
HETATM    8  C   UNL     1      -9.210   7.244  68.190  1.00  0.00    -0.132 A  
BRANCH   4   9
HETATM    9  N   UNL     1      -6.894   5.249  66.154  1.00  0.00    -0.057 NA 
HETATM   10  H   UNL     1      -6.376   4.599  66.745  1.00  0.00     0.000 HD 
BRANCH   9  11
HETATM   11  C   UNL     1      -6.235   5.359  64.849  1.00  0.00    -0.029 C  
HETATM   12  O   UNL     1      -6.776   4.063  62.355  1.00  0.00    -0.028 OA 
HETATM   13  C   UNL     1      -6.464   3.264  63.495  1.00  0.00    -0.026 C  
HETATM   14  C   UNL     1      -6.911   6.097  63.705  1.00  0.00    -0.038 C  
HETATM   15  C   UNL     1      -5.573   4.053  64.426  1.00  0.00    -0.014 C  
HETATM   16  C   UNL     1      -7.591   5.184  62.696  1.00  0.00    -0.057 C  
ENDBRANCH   9  11
ENDBRANCH   4   9
BRANCH   8  17
HETATM   17  N   UNL     1      -9.447   8.547  68.729  1.00  0.00    -0.143 NA 
HETATM   18  H   UNL     1      -9.794   8.576  69.687  1.00  0.00     0.000 HD 
BRANCH  17  19
HETATM   19  C   UNL     1      -9.259   9.814  68.098  1.00  0.00    -0.128 A  
HETATM   20  C   UNL     1      -8.050  10.493  68.234  1.00  0.00    -0.115 A  
HETATM   21  C   UNL     1      -7.959  11.875  67.956  1.00  0.00    -0.147 A  
HETATM   22  C   UNL     1      -9.071  12.649  67.567  1.00  0.00    -0.192 A  
HETATM   23  C   UNL     1     -10.260  11.933  67.303  1.00  0.00    -0.200 A  
HETATM   24  C   UNL     1     -10.323  10.536  67.522  1.00  0.00    -0.265 A  
BRANCH  22  25
HETATM   25  N   UNL     1      -8.960  14.038  67.578  1.00  0.00    -0.185 NA 
HETATM   26  C   UNL     1      -8.937  14.811  66.332  1.00  0.00    -0.188 C  
HETATM   27  C   UNL     1      -8.425  14.736  68.746  1.00  0.00    -0.170 C  
HETATM   28  C   UNL     1      -9.225  16.022  68.962  1.00  0.00    -0.244 C  
HETATM   29  C   UNL     1      -9.732  16.103  66.541  1.00  0.00    -0.282 C  
HETATM   30  C   UNL     1      -9.182  16.951  67.715  1.00  0.00    -0.230 C  
BRANCH  30  31
HETATM   31  N   UNL     1      -7.829  17.519  67.454  1.00  0.00    -0.200 NA 
HETATM   32  C   UNL     1      -7.748  18.314  66.203  1.00  0.00    -0.220 C  
HETATM   33  C   UNL     1      -8.450  19.694  66.270  1.00  0.00    -0.360 C  
HETATM   34  N   UNL     1      -7.997  20.555  67.381  1.00  0.00    -0.328 NA 
HETATM   35  C   UNL     1      -6.666  21.105  67.115  1.00  0.00    -0.341 C  
HETATM   36  C   UNL     1      -8.012  19.780  68.638  1.00  0.00    -0.236 C  
HETATM   37  C   UNL     1      -7.332  18.389  68.550  1.00  0.00    -0.287 C  
ENDBRANCH  30  31
ENDBRANCH  22  25
BRANCH  23  38
HETATM   38  O   UNL     1     -11.332  12.639  66.798  1.00  0.00    -0.285 OA 
HETATM   39  C   UNL     1     -12.157  13.296  67.754  1.00  0.00    -0.237 C  
ENDBRANCH  23  38
ENDBRANCH  17  19
ENDBRANCH   8  17
BRANCH   5  40
HETATM   40  C   UNL     1     -10.975   5.958  69.496  1.00  0.00    -0.368 C  
HETATM   41  H2  UNL     1      -9.456   5.056  70.402  1.00  0.00     0.000 HD 
HETATM   42  N   UNL     1     -10.444   4.898  70.206  1.00  0.00    -0.186 N  
HETATM   43  O   UNL     1     -11.859   6.653  69.972  1.00  0.00    -0.372 OA 
HETATM   44  H1  UNL     1     -10.950   4.682  71.065  1.00  0.00     0.000 HD 
ENDBRANCH   5  40
ENDBRANCH   2   3
TORSDOF 9
ENDMDL
MODEL       63
REMARK 921   NORMALIZED FREE ENERGY PREDICTED BY IDOCK:   -4.58 KCAL/MOL
REMARK 922        TOTAL FREE ENERGY PREDICTED BY IDOCK:   -9.13 KCAL/MOL
REMARK 923 INTER-LIGAND FREE ENERGY PREDICTED BY IDOCK:   -7.84 KCAL/MOL
REMARK 924 INTRA-LIGAND FREE ENERGY PREDICTED BY IDOCK:   -1.29 KCAL/MOL
REMARK 927      BINDING AFFINITY PREDICTED BY RF-SCORE:    0.00 PKD
ROOT
HETATM    1  C   UNL     1     -10.540  19.423  67.708  1.00  0.00    -0.538 C  
HETATM    2  C   UNL     1      -9.715  18.566  68.665  1.00  0.00    -0.398 C  
ENDROOT
BRANCH   2   3
HETATM    3  C   UNL     1      -9.508  17.166  68.194  1.00  0.00    -0.269 A  
HETATM    4  C   UNL     1     -10.099  16.012  68.786  1.00  0.00    -0.225 A  
HETATM    5  C   UNL     1      -7.965  15.900  67.148  1.00  0.00    -0.209 A  
HETATM    6  N   UNL     1      -9.685  14.765  68.383  1.00  0.00    -0.208 NA 
HETATM    7  N   UNL     1      -8.508  17.122  67.306  1.00  0.00    -0.193 NA 
HETATM    8  C   UNL     1      -8.609  14.702  67.504  1.00  0.00    -0.187 A  
BRANCH   4   9
HETATM    9  N   UNL     1     -11.117  16.266  69.685  1.00  0.00    -0.336 NA 
HETATM   10  H   UNL     1     -10.921  17.131  70.189  1.00  0.00     0.000 HD 
BRANCH   9  11
HETATM   11  C   UNL     1     -12.386  15.699  70.153  1.00  0.00    -0.336 C  
HETATM   12  O   UNL     1     -12.930  13.552  71.967  1.00  0.00    -0.345 OA 
HETATM   13  C   UNL     1     -12.163  13.287  70.793  1.00  0.00    -0.308 C  
HETATM   14  C   UNL     1     -12.872  15.964  71.568  1.00  0.00    -0.386 C  
HETATM   15  C   UNL     1     -12.570  14.254  69.705  1.00  0.00    -0.095 C  
HETATM   16  C   UNL     1     -12.609  14.821  72.537  1.00  0.00    -0.349 C  
ENDBRANCH   9  11
ENDBRANCH   4   9
BRANCH   8  17
HETATM   17  N   UNL     1      -8.236  13.479  66.863  1.00  0.00    -0.406 NA 
HETATM   18  H   UNL     1      -7.540  13.560  66.122  1.00  0.00     0.000 HD 
BRANCH  17  19
HETATM   19  C   UNL     1      -8.713  12.160  67.126  1.00  0.00    -0.190 A  
HETATM   20  C   UNL     1      -9.182  11.823  68.395  1.00  0.00    -0.175 A  
HETATM   21  C   UNL     1      -9.300  10.472  68.790  1.00  0.00    -0.181 A  
HETATM   22  C   UNL     1      -8.923   9.399  67.957  1.00  0.00    -0.127 A  
HETATM   23  C   UNL     1      -8.575   9.739  66.631  1.00  0.00    -0.128 A  
HETATM   24  C   UNL     1      -8.523  11.094  66.225  1.00  0.00    -0.168 A  
BRANCH  22  25
HETATM   25  N   UNL     1      -8.812   8.126  68.512  1.00  0.00    -0.134 NA 
HETATM   26  C   UNL     1      -9.999   7.317  68.810  1.00  0.00    -0.166 C  
HETATM   27  C   UNL     1      -7.598   7.722  69.220  1.00  0.00    -0.098 C  
HETATM   28  C   UNL     1      -7.287   6.264  68.874  1.00  0.00    -0.086 C  
HETATM   29  C   UNL     1      -9.694   5.855  68.471  1.00  0.00    -0.151 C  
HETATM   30  C   UNL     1      -8.463   5.315  69.242  1.00  0.00    -0.101 C  
BRANCH  30  31
HETATM   31  N   UNL     1      -8.686   5.200  70.711  1.00  0.00    -0.126 NA 
HETATM   32  C   UNL     1      -9.941   4.492  71.069  1.00  0.00    -0.187 C  
HETATM   33  C   UNL     1      -9.910   2.962  70.829  1.00  0.00     0.066 C  
HETATM   34  N   UNL     1      -8.793   2.263  71.496  1.00  0.00    -0.068 NA 
HETATM   35  C   UNL     1      -9.022   2.158  72.939  1.00  0.00    -0.066 C  
HETATM   36  C   UNL     1      -7.530   2.972  71.206  1.00  0.00    -0.036 C  
HETATM   37  C   UNL     1      -7.583   4.506  71.424  1.00  0.00    -0.073 C  
ENDBRANCH  30  31
ENDBRANCH  22  25
BRANCH  23  38
HETATM   38  O   UNL     1      -8.325   8.706  65.752  1.00  0.00    -0.127 OA 
HETATM   39  C   UNL     1      -8.470   9.011  64.369  1.00  0.00    -0.174 C  
ENDBRANCH  23  38
ENDBRANCH  17  19
ENDBRANCH   8  17
BRANCH   5  40
HETATM   40  C   UNL     1      -6.469  16.018  67.103  1.00  0.00    -0.110 C  
HETATM   41  H2  UNL     1      -6.108  14.092  67.422  1.00  0.00     0.000 HD 
HETATM   42  N   UNL     1      -5.809  15.003  67.769  1.00  0.00    -0.135 N  
HETATM   43  O   UNL     1      -5.858  16.817  66.411  1.00  0.00    -0.314 OA 
HETATM   44  H1  UNL     1      -4.792  15.083  67.739  1.00  0.00     0.000 HD 
ENDBRANCH   5  40
ENDBRANCH   2   3
TORSDOF 9
ENDMDL
MODEL       64
REMARK 921   NORMALIZED FREE ENERGY PREDICTED BY IDOCK:   -4.55 KCAL/MOL
REMARK 922        TOTAL FREE ENERGY PREDICTED BY IDOCK:   -9.08 KCAL/MOL
REMARK 923 INTER-LIGAND FREE ENERGY PREDICTED BY IDOCK:   -7.06 KCAL/MOL
REMARK 924 INTRA-LIGAND FREE ENERGY PREDICTED BY IDOCK:   -2.02 KCAL/MOL
REMARK 927      BINDING AFFINITY PREDICTED BY RF-SCORE:    0.00 PKD
ROOT
HETATM    1  C   UNL     1      -9.769  19.438  67.631  1.00  0.00    -0.428 C  
HETATM    2  C   UNL     1     -10.106  18.152  66.881  1.00  0.00    -0.362 C  
ENDROOT
BRANCH   2   3
HETATM    3  C   UNL     1      -9.070  17.087  67.015  1.00  0.00    -0.221 A  
HETATM    4  C   UNL     1      -9.345  15.705  67.230  1.00  0.00    -0.215 A  
HETATM    5  C   UNL     1      -6.939  16.819  67.697  1.00  0.00    -0.135 A  
HETATM    6  N   UNL     1      -8.309  14.852  67.525  1.00  0.00    -0.167 NA 
HETATM    7  N   UNL     1      -7.858  17.638  67.153  1.00  0.00    -0.204 NA 
HETATM    8  C   UNL     1      -7.054  15.418  67.727  1.00  0.00    -0.165 A  
BRANCH   4   9
HETATM    9  N   UNL     1     -10.662  15.330  67.043  1.00  0.00    -0.308 NA 
HETATM   10  H   UNL     1     -11.196  15.522  67.890  1.00  0.00     0.000 HD 
BRANCH   9  11
HETATM   11  C   UNL     1     -11.543  14.748  66.026  1.00  0.00    -0.286 C  
HETATM   12  O   UNL     1     -11.332  12.321  64.524  1.00  0.00    -0.307 OA 
HETATM   13  C   UNL     1     -10.292  13.292  64.416  1.00  0.00    -0.351 C  
HETATM   14  C   UNL     1     -12.403  13.539  66.353  1.00  0.00    -0.413 C  
HETATM   15  C   UNL     1     -10.870  14.667  64.660  1.00  0.00    -0.332 C  
HETATM   16  C   UNL     1     -11.830  12.219  65.858  1.00  0.00    -0.354 C  
ENDBRANCH   9  11
ENDBRANCH   4   9
BRANCH   8  17
HETATM   17  N   UNL     1      -5.878  14.612  67.829  1.00  0.00    -0.286 NA 
HETATM   18  H   UNL     1      -4.991  15.101  67.707  1.00  0.00     0.000 HD 
BRANCH  17  19
HETATM   19  C   UNL     1      -5.783  13.210  68.080  1.00  0.00    -0.115 A  
HETATM   20  C   UNL     1      -5.838  12.302  67.023  1.00  0.00    -0.042 A  
HETATM   21  C   UNL     1      -6.124  10.939  67.252  1.00  0.00    -0.062 A  
HETATM   22  C   UNL     1      -6.404  10.423  68.534  1.00  0.00    -0.051 A  
HETATM   23  C   UNL     1      -6.217  11.316  69.612  1.00  0.00    -0.113 A  
HETATM   24  C   UNL     1      -5.866  12.667  69.377  1.00  0.00    -0.094 A  
BRANCH  22  25
HETATM   25  N   UNL     1      -6.940   9.142  68.640  1.00  0.00    -0.062 NA 
HETATM   26  C   UNL     1      -6.139   8.020  69.143  1.00  0.00    -0.038 C  
HETATM   27  C   UNL     1      -8.120   8.758  67.868  1.00  0.00    -0.107 C  
HETATM   28  C   UNL     1      -9.018   7.880  68.742  1.00  0.00    -0.141 C  
HETATM   29  C   UNL     1      -7.032   7.133  70.017  1.00  0.00    -0.061 C  
HETATM   30  C   UNL     1      -8.275   6.612  69.251  1.00  0.00    -0.124 C  
BRANCH  30  31
HETATM   31  N   UNL     1      -7.940   5.651  68.161  1.00  0.00    -0.096 NA 
HETATM   32  C   UNL     1      -6.953   4.617  68.561  1.00  0.00    -0.052 C  
HETATM   33  C   UNL     1      -7.507   3.532  69.517  1.00  0.00    -0.048 C  
HETATM   34  N   UNL     1      -8.710   2.835  69.016  1.00  0.00    -0.075 NA 
HETATM   35  C   UNL     1      -8.370   1.897  67.945  1.00  0.00    -0.066 C  
HETATM   36  C   UNL     1      -9.697   3.834  68.558  1.00  0.00    -0.019 C  
HETATM   37  C   UNL     1      -9.123   4.931  67.625  1.00  0.00    -0.115 C  
ENDBRANCH  30  31
ENDBRANCH  22  25
BRANCH  23  38
HETATM   38  O   UNL     1      -6.357  10.813  70.889  1.00  0.00    -0.351 OA 
HETATM   39  C   UNL     1      -5.152  10.468  71.563  1.00  0.00    -0.077 C  
ENDBRANCH  23  38
ENDBRANCH  17  19
ENDBRANCH   8  17
BRANCH   5  40
HETATM   40  C   UNL     1      -6.134  17.574  68.715  1.00  0.00    -0.183 C  
HETATM   41  H2  UNL     1      -6.701  19.381  68.117  1.00  0.00     0.000 HD 
HETATM   42  N   UNL     1      -5.846  18.874  68.346  1.00  0.00    -0.208 N  
HETATM   43  O   UNL     1      -5.891  17.172  69.842  1.00  0.00    -0.223 OA 
HETATM   44  H1  UNL     1      -5.299  19.388  69.038  1.00  0.00     0.000 HD 
ENDBRANCH   5  40
ENDBRANCH   2   3
TORSDOF 9
ENDMDL
MODEL       65
REMARK 921   NORMALIZED FREE ENERGY PREDICTED BY IDOCK:   -4.55 KCAL/MOL
REMARK 922        TOTAL FREE ENERGY PREDICTED BY IDOCK:   -9.08 KCAL/MOL
REMARK 923 INTER-LIGAND FREE ENERGY PREDICTED BY IDOCK:   -7.82 KCAL/MOL
REMARK 924 INTRA-LIGAND FREE ENERGY PREDICTED BY IDOCK:   -1.26 KCAL/MOL
REMARK 927      BINDING AFFINITY PREDICTED BY RF-SCORE:    0.00 PKD
ROOT
HETATM    1  C   UNL     1      -5.441  17.272  66.026  1.00  0.00     0.030 C  
HETATM    2  C   UNL     1      -5.605  16.607  67.390  1.00  0.00    -0.180 C  
ENDROOT
BRANCH   2   3
HETATM    3  C   UNL     1      -6.972  16.061  67.633  1.00  0.00    -0.155 A  
HETATM    4  C   UNL     1      -7.949  16.661  68.480  1.00  0.00    -0.224 A  
HETATM    5  C   UNL     1      -8.069  14.093  67.678  1.00  0.00    -0.180 A  
HETATM    6  N   UNL     1      -9.099  15.968  68.773  1.00  0.00    -0.210 NA 
HETATM    7  N   UNL     1      -7.064  14.816  67.150  1.00  0.00    -0.168 NA 
HETATM    8  C   UNL     1      -9.184  14.654  68.324  1.00  0.00    -0.198 A  
BRANCH   4   9
HETATM    9  N   UNL     1      -7.670  17.954  68.879  1.00  0.00    -0.245 NA 
HETATM   10  H   UNL     1      -6.976  17.939  69.627  1.00  0.00     0.000 HD 
BRANCH   9  11
HETATM   11  C   UNL     1      -8.044  19.340  68.581  1.00  0.00    -0.370 C  
HETATM   12  O   UNL     1     -10.074  20.412  66.872  1.00  0.00    -0.453 OA 
HETATM   13  C   UNL     1      -9.068  19.571  66.306  1.00  0.00    -0.360 C  
HETATM   14  C   UNL     1      -9.323  19.931  69.148  1.00  0.00    -0.052 C  
HETATM   15  C   UNL     1      -7.801  19.699  67.120  1.00  0.00    -0.300 C  
HETATM   16  C   UNL     1     -10.482  19.960  68.163  1.00  0.00    -0.332 C  
ENDBRANCH   9  11
ENDBRANCH   4   9
BRANCH   8  17
HETATM   17  N   UNL     1     -10.409  13.919  68.390  1.00  0.00    -0.244 NA 
HETATM   18  H   UNL     1     -11.222  14.437  68.724  1.00  0.00     0.000 HD 
BRANCH  17  19
HETATM   19  C   UNL     1     -10.643  12.553  68.048  1.00  0.00    -0.223 A  
HETATM   20  C   UNL     1     -10.581  11.563  69.027  1.00  0.00    -0.207 A  
HETATM   21  C   UNL     1     -10.431  10.204  68.676  1.00  0.00    -0.225 A  
HETATM   22  C   UNL     1     -10.299   9.771  67.341  1.00  0.00    -0.240 A  
HETATM   23  C   UNL     1     -10.496  10.758  66.350  1.00  0.00    -0.233 A  
HETATM   24  C   UNL     1     -10.711  12.109  66.712  1.00  0.00    -0.269 A  
BRANCH  22  25
HETATM   25  N   UNL     1      -9.885   8.463  67.096  1.00  0.00    -0.194 NA 
HETATM   26  C   UNL     1      -8.589   8.178  66.472  1.00  0.00    -0.138 C  
HETATM   27  C   UNL     1     -10.856   7.372  67.025  1.00  0.00    -0.237 C  
HETATM   28  C   UNL     1     -10.259   6.136  67.700  1.00  0.00    -0.214 C  
HETATM   29  C   UNL     1      -7.986   6.938  67.139  1.00  0.00    -0.113 C  
HETATM   30  C   UNL     1      -8.918   5.703  67.041  1.00  0.00    -0.114 C  
BRANCH  30  31
HETATM   31  N   UNL     1      -9.085   5.195  65.649  1.00  0.00    -0.157 NA 
HETATM   32  C   UNL     1      -7.802   5.002  64.928  1.00  0.00    -0.091 C  
HETATM   33  C   UNL     1      -6.971   3.785  65.405  1.00  0.00    -0.061 C  
HETATM   34  N   UNL     1      -7.700   2.500  65.379  1.00  0.00    -0.076 NA 
HETATM   35  C   UNL     1      -7.861   2.012  64.007  1.00  0.00    -0.065 C  
HETATM   36  C   UNL     1      -9.009   2.668  66.042  1.00  0.00    -0.133 C  
HETATM   37  C   UNL     1      -9.818   3.906  65.576  1.00  0.00    -0.156 C  
ENDBRANCH  30  31
ENDBRANCH  22  25
BRANCH  23  38
HETATM   38  O   UNL     1     -10.502  10.348  65.033  1.00  0.00    -0.262 OA 
HETATM   39  C   UNL     1      -9.645  11.063  64.150  1.00  0.00    -0.266 C  
ENDBRANCH  23  38
ENDBRANCH  17  19
ENDBRANCH   8  17
BRANCH   5  40
HETATM   40  C   UNL     1      -7.582  12.707  67.986  1.00  0.00    -0.132 C  
HETATM   41  H2  UNL     1      -6.519  12.495  66.322  1.00  0.00     0.000 HD 
HETATM   42  N   UNL     1      -7.212  11.983  66.868  1.00  0.00    -0.339 N  
HETATM   43  O   UNL     1      -7.355  12.287  69.110  1.00  0.00    -0.037 OA 
HETATM   44  H1  UNL     1      -6.881  11.041  67.077  1.00  0.00     0.000 HD 
ENDBRANCH   5  40
ENDBRANCH   2   3
TORSDOF 9
ENDMDL
MODEL       66
REMARK 921   NORMALIZED FREE ENERGY PREDICTED BY IDOCK:   -4.48 KCAL/MOL
REMARK 922        TOTAL FREE ENERGY PREDICTED BY IDOCK:   -8.97 KCAL/MOL
REMARK 923 INTER-LIGAND FREE ENERGY PREDICTED BY IDOCK:   -7.33 KCAL/MOL
REMARK 924 INTRA-LIGAND FREE ENERGY PREDICTED BY IDOCK:   -1.64 KCAL/MOL
REMARK 927      BINDING AFFINITY PREDICTED BY RF-SCORE:    0.00 PKD
ROOT
HETATM    1  C   UNL     1      -9.156   2.536  69.503  1.00  0.00    -0.185 C  
HETATM    2  C   UNL     1      -9.783   3.839  69.993  1.00  0.00    -0.211 C  
ENDROOT
BRANCH   2   3
HETATM    3  C   UNL     1      -8.886   5.024  69.866  1.00  0.00    -0.102 A  
HETATM    4  C   UNL     1      -9.297   6.379  70.037  1.00  0.00    -0.156 A  
HETATM    5  C   UNL     1      -7.017   5.675  68.789  1.00  0.00    -0.064 A  
HETATM    6  N   UNL     1      -8.427   7.390  69.709  1.00  0.00    -0.135 NA 
HETATM    7  N   UNL     1      -7.714   4.660  69.333  1.00  0.00    -0.059 NA 
HETATM    8  C   UNL     1      -7.228   7.030  69.103  1.00  0.00    -0.090 A  
BRANCH   4   9
HETATM    9  N   UNL     1     -10.547   6.549  70.601  1.00  0.00    -0.223 NA 
HETATM   10  H   UNL     1     -11.257   6.152  69.986  1.00  0.00     0.000 HD 
BRANCH   9  11
HETATM   11  C   UNL     1     -11.186   7.114  71.794  1.00  0.00    -0.246 C  
HETATM   12  O   UNL     1     -12.948   9.349  72.101  1.00  0.00    -0.390 OA 
HETATM   13  C   UNL     1     -11.651   9.563  71.545  1.00  0.00    -0.395 C  
HETATM   14  C   UNL     1     -12.674   6.920  72.034  1.00  0.00    -0.230 C  
HETATM   15  C   UNL     1     -10.698   8.527  72.093  1.00  0.00    -0.426 C  
HETATM   16  C   UNL     1     -13.525   8.123  71.653  1.00  0.00    -0.332 C  
ENDBRANCH   9  11
ENDBRANCH   4   9
BRANCH   8  17
HETATM   17  N   UNL     1      -6.170   7.974  68.916  1.00  0.00    -0.039 NA 
HETATM   18  H   UNL     1      -5.235   7.649  69.163  1.00  0.00     0.000 HD 
BRANCH  17  19
HETATM   19  C   UNL     1      -6.253   9.312  68.428  1.00  0.00    -0.053 A  
HETATM   20  C   UNL     1      -5.776  10.371  69.198  1.00  0.00    -0.037 A  
HETATM   21  C   UNL     1      -6.173  11.699  68.930  1.00  0.00    -0.057 A  
HETATM   22  C   UNL     1      -7.087  12.031  67.909  1.00  0.00    -0.097 A  
HETATM   23  C   UNL     1      -7.462  10.975  67.050  1.00  0.00    -0.127 A  
HETATM   24  C   UNL     1      -7.007   9.656  67.288  1.00  0.00    -0.085 A  
BRANCH  22  25
HETATM   25  N   UNL     1      -7.632  13.313  67.885  1.00  0.00    -0.135 NA 
HETATM   26  C   UNL     1      -9.073  13.526  67.713  1.00  0.00    -0.207 C  
HETATM   27  C   UNL     1      -6.797  14.475  67.583  1.00  0.00    -0.182 C  
HETATM   28  C   UNL     1      -7.223  15.636  68.484  1.00  0.00    -0.120 C  
HETATM   29  C   UNL     1      -9.507  14.691  68.608  1.00  0.00    -0.211 C  
HETATM   30  C   UNL     1      -8.726  15.994  68.301  1.00  0.00    -0.177 C  
BRANCH  30  31
HETATM   31  N   UNL     1      -9.033  16.568  66.961  1.00  0.00    -0.197 NA 
HETATM   32  C   UNL     1     -10.411  17.108  66.846  1.00  0.00    -0.274 C  
HETATM   33  C   UNL     1     -10.649  18.436  67.607  1.00  0.00    -0.408 C  
HETATM   34  N   UNL     1      -9.711  19.519  67.251  1.00  0.00    -0.327 NA 
HETATM   35  C   UNL     1     -10.020  20.074  65.931  1.00  0.00    -0.368 C  
HETATM   36  C   UNL     1      -8.327  19.004  67.302  1.00  0.00    -0.276 C  
HETATM   37  C   UNL     1      -8.109  17.660  66.560  1.00  0.00    -0.270 C  
ENDBRANCH  30  31
ENDBRANCH  22  25
BRANCH  23  38
HETATM   38  O   UNL     1      -8.254  11.285  65.964  1.00  0.00    -0.142 OA 
HETATM   39  C   UNL     1      -9.025  10.218  65.425  1.00  0.00    -0.178 C  
ENDBRANCH  23  38
ENDBRANCH  17  19
ENDBRANCH   8  17
BRANCH   5  40
HETATM   40  C   UNL     1      -6.445   5.241  67.471  1.00  0.00    -0.052 C  
HETATM   41  H2  UNL     1      -4.548   5.276  68.056  1.00  0.00     0.000 HD 
HETATM   42  N   UNL     1      -5.126   5.611  67.286  1.00  0.00    -0.004 N  
HETATM   43  O   UNL     1      -7.002   4.486  66.690  1.00  0.00    -0.060 OA 
HETATM   44  H1  UNL     1      -4.737   5.317  66.390  1.00  0.00     0.000 HD 
ENDBRANCH   5  40
ENDBRANCH   2   3
TORSDOF 9
ENDMDL
MODEL       67
REMARK 921   NORMALIZED FREE ENERGY PREDICTED BY IDOCK:   -4.41 KCAL/MOL
REMARK 922        TOTAL FREE ENERGY PREDICTED BY IDOCK:   -8.87 KCAL/MOL
REMARK 923 INTER-LIGAND FREE ENERGY PREDICTED BY IDOCK:   -9.30 KCAL/MOL
REMARK 924 INTRA-LIGAND FREE ENERGY PREDICTED BY IDOCK:    0.43 KCAL/MOL
REMARK 927      BINDING AFFINITY PREDICTED BY RF-SCORE:    0.00 PKD
ROOT
HETATM    1  C   UNL     1     -10.454  16.304  65.854  1.00  0.00    -0.359 C  
HETATM    2  C   UNL     1     -11.502  16.032  66.931  1.00  0.00     0.333 C  
ENDROOT
BRANCH   2   3
HETATM    3  C   UNL     1     -11.642  14.590  67.284  1.00  0.00    -0.385 A  
HETATM    4  C   UNL     1     -11.530  14.060  68.602  1.00  0.00    -0.302 A  
HETATM    5  C   UNL     1     -11.334  12.548  66.382  1.00  0.00    -0.329 A  
HETATM    6  N   UNL     1     -11.490  12.697  68.776  1.00  0.00    -0.282 NA 
HETATM    7  N   UNL     1     -11.641  13.842  66.174  1.00  0.00    -0.339 NA 
HETATM    8  C   UNL     1     -11.431  11.909  67.631  1.00  0.00    -0.317 A  
BRANCH   4   9
HETATM    9  N   UNL     1     -11.545  14.996  69.618  1.00  0.00    -0.284 NA 
HETATM   10  H   UNL     1     -10.624  15.424  69.703  1.00  0.00     0.000 HD 
BRANCH   9  11
HETATM   11  C   UNL     1     -12.453  15.577  70.613  1.00  0.00    -0.435 C  
HETATM   12  O   UNL     1     -13.220  14.663  73.215  1.00  0.00    -0.576 OA 
HETATM   13  C   UNL     1     -13.479  13.829  72.086  1.00  0.00    -0.502 C  
HETATM   14  C   UNL     1     -11.901  16.224  71.872  1.00  0.00    -0.538 C  
HETATM   15  C   UNL     1     -13.671  14.696  70.863  1.00  0.00    -0.168 C  
HETATM   16  C   UNL     1     -11.965  15.334  73.105  1.00  0.00    -0.418 C  
ENDBRANCH   9  11
ENDBRANCH   4   9
BRANCH   8  17
HETATM   17  N   UNL     1     -11.598  10.490  67.691  1.00  0.00    -0.612 NA 
HETATM   18  H   UNL     1     -12.512  10.137  67.406  1.00  0.00     0.000 HD 
BRANCH  17  19
HETATM   19  C   UNL     1     -10.651   9.502  68.097  1.00  0.00    -0.217 A  
HETATM   20  C   UNL     1     -10.874   8.156  67.811  1.00  0.00    -0.072 A  
HETATM   21  C   UNL     1     -10.179   7.142  68.506  1.00  0.00    -0.189 A  
HETATM   22  C   UNL     1      -9.260   7.418  69.539  1.00  0.00    -0.146 A  
HETATM   23  C   UNL     1      -8.941   8.780  69.733  1.00  0.00    -0.146 A  
HETATM   24  C   UNL     1      -9.596   9.788  68.986  1.00  0.00    -0.177 A  
BRANCH  22  25
HETATM   25  N   UNL     1      -8.828   6.372  70.351  1.00  0.00    -0.150 NA 
HETATM   26  C   UNL     1      -7.909   5.345  69.847  1.00  0.00    -0.081 C  
HETATM   27  C   UNL     1      -9.582   5.991  71.545  1.00  0.00    -0.156 C  
HETATM   28  C   UNL     1      -8.595   5.640  72.660  1.00  0.00    -0.120 C  
HETATM   29  C   UNL     1      -6.920   4.985  70.960  1.00  0.00    -0.048 C  
HETATM   30  C   UNL     1      -7.632   4.491  72.245  1.00  0.00    -0.083 C  
BRANCH  30  31
HETATM   31  N   UNL     1      -8.321   3.180  72.076  1.00  0.00    -0.062 NA 
HETATM   32  C   UNL     1      -8.091   2.237  73.199  1.00  0.00    -0.051 C  
HETATM   33  C   UNL     1      -8.835   2.600  74.508  1.00  0.00    -0.071 C  
HETATM   34  N   UNL     1     -10.295   2.768  74.354  1.00  0.00    -0.147 NA 
HETATM   35  C   UNL     1     -10.961   1.475  74.185  1.00  0.00    -0.135 C  
HETATM   36  C   UNL     1     -10.565   3.661  73.208  1.00  0.00    -0.188 C  
HETATM   37  C   UNL     1      -9.792   3.304  71.912  1.00  0.00    -0.168 C  
ENDBRANCH  30  31
ENDBRANCH  22  25
BRANCH  23  38
HETATM   38  O   UNL     1      -7.952   9.080  70.647  1.00  0.00    -0.108 OA 
HETATM   39  C   UNL     1      -6.980  10.033  70.230  1.00  0.00    -0.150 C  
ENDBRANCH  23  38
ENDBRANCH  17  19
ENDBRANCH   8  17
BRANCH   5  40
HETATM   40  C   UNL     1     -10.383  12.080  65.320  1.00  0.00    -0.275 C  
HETATM   41  H2  UNL     1      -9.662  13.880  64.891  1.00  0.00     0.000 HD 
HETATM   42  N   UNL     1     -10.035  13.061  64.410  1.00  0.00    -0.622 N  
HETATM   43  O   UNL     1      -9.816  10.999  65.326  1.00  0.00    -0.228 OA 
HETATM   44  H1  UNL     1      -9.388  12.743  63.688  1.00  0.00     0.000 HD 
ENDBRANCH   5  40
ENDBRANCH   2   3
TORSDOF 9
ENDMDL
MODEL       68
REMARK 921   NORMALIZED FREE ENERGY PREDICTED BY IDOCK:   -4.40 KCAL/MOL
REMARK 922        TOTAL FREE ENERGY PREDICTED BY IDOCK:   -8.86 KCAL/MOL
REMARK 923 INTER-LIGAND FREE ENERGY PREDICTED BY IDOCK:   -7.15 KCAL/MOL
REMARK 924 INTRA-LIGAND FREE ENERGY PREDICTED BY IDOCK:   -1.72 KCAL/MOL
REMARK 927      BINDING AFFINITY PREDICTED BY RF-SCORE:    0.00 PKD
ROOT
HETATM    1  C   UNL     1      -8.994   2.628  66.188  1.00  0.00    -0.139 C  
HETATM    2  C   UNL     1      -9.415   3.318  67.483  1.00  0.00    -0.209 C  
ENDROOT
BRANCH   2   3
HETATM    3  C   UNL     1      -8.714   4.612  67.731  1.00  0.00    -0.104 A  
HETATM    4  C   UNL     1      -9.076   5.553  68.739  1.00  0.00    -0.118 A  
HETATM    5  C   UNL     1      -7.519   6.174  66.632  1.00  0.00    -0.090 A  
HETATM    6  N   UNL     1      -8.478   6.790  68.747  1.00  0.00    -0.123 NA 
HETATM    7  N   UNL     1      -7.868   4.877  66.730  1.00  0.00    -0.099 NA 
HETATM    8  C   UNL     1      -7.639   7.101  67.682  1.00  0.00    -0.110 A  
BRANCH   4   9
HETATM    9  N   UNL     1      -9.971   5.090  69.685  1.00  0.00    -0.222 NA 
HETATM   10  H   UNL     1     -10.021   4.073  69.640  1.00  0.00     0.000 HD 
BRANCH   9  11
HETATM   11  C   UNL     1     -10.872   5.583  70.732  1.00  0.00    -0.179 C  
HETATM   12  O   UNL     1     -10.682   7.861  72.454  1.00  0.00    -0.255 OA 
HETATM   13  C   UNL     1      -9.649   6.876  72.495  1.00  0.00    -0.149 C  
HETATM   14  C   UNL     1     -11.718   6.823  70.498  1.00  0.00    -0.430 C  
HETATM   15  C   UNL     1     -10.228   5.534  72.113  1.00  0.00    -0.247 C  
HETATM   16  C   UNL     1     -11.150   8.087  71.125  1.00  0.00    -0.252 C  
ENDBRANCH   9  11
ENDBRANCH   4   9
BRANCH   8  17
HETATM   17  N   UNL     1      -6.808   8.265  67.699  1.00  0.00    -0.069 NA 
HETATM   18  H   UNL     1      -5.877   8.152  67.298  1.00  0.00     0.000 HD 
BRANCH  17  19
HETATM   19  C   UNL     1      -7.114   9.564  68.203  1.00  0.00    -0.079 A  
HETATM   20  C   UNL     1      -8.381  10.112  68.011  1.00  0.00    -0.117 A  
HETATM   21  C   UNL     1      -8.600  11.500  68.152  1.00  0.00    -0.156 A  
HETATM   22  C   UNL     1      -7.566  12.409  68.455  1.00  0.00    -0.122 A  
HETATM   23  C   UNL     1      -6.317  11.835  68.779  1.00  0.00    -0.061 A  
HETATM   24  C   UNL     1      -6.123  10.436  68.698  1.00  0.00    -0.043 A  
BRANCH  22  25
HETATM   25  N   UNL     1      -7.806  13.773  68.309  1.00  0.00    -0.135 NA 
HETATM   26  C   UNL     1      -9.123  14.351  68.597  1.00  0.00    -0.178 C  
HETATM   27  C   UNL     1      -6.942  14.598  67.465  1.00  0.00    -0.168 C  
HETATM   28  C   UNL     1      -6.735  15.952  68.146  1.00  0.00    -0.131 C  
HETATM   29  C   UNL     1      -8.925  15.710  69.275  1.00  0.00    -0.267 C  
HETATM   30  C   UNL     1      -8.083  16.683  68.410  1.00  0.00    -0.208 C  
BRANCH  30  31
HETATM   31  N   UNL     1      -8.771  17.114  67.160  1.00  0.00    -0.207 NA 
HETATM   32  C   UNL     1     -10.170  17.562  67.376  1.00  0.00    -0.337 C  
HETATM   33  C   UNL     1     -10.307  18.938  68.073  1.00  0.00    -0.389 C  
HETATM   34  N   UNL     1      -9.581  20.036  67.402  1.00  0.00    -0.370 NA 
HETATM   35  C   UNL     1     -10.265  20.450  66.174  1.00  0.00    -0.156 C  
HETATM   36  C   UNL     1      -8.196  19.607  67.123  1.00  0.00    -0.289 C  
HETATM   37  C   UNL     1      -8.072  18.215  66.451  1.00  0.00    -0.261 C  
ENDBRANCH  30  31
ENDBRANCH  22  25
BRANCH  23  38
HETATM   38  O   UNL     1      -5.316  12.684  69.205  1.00  0.00    -0.068 OA 
HETATM   39  C   UNL     1      -5.161  12.814  70.614  1.00  0.00    -0.135 C  
ENDBRANCH  23  38
ENDBRANCH  17  19
ENDBRANCH   8  17
BRANCH   5  40
HETATM   40  C   UNL     1      -7.546   6.593  65.191  1.00  0.00    -0.090 C  
HETATM   41  H2  UNL     1      -8.310   8.396  65.523  1.00  0.00     0.000 HD 
HETATM   42  N   UNL     1      -8.464   7.590  64.917  1.00  0.00    -0.348 N  
HETATM   43  O   UNL     1      -6.735   6.238  64.351  1.00  0.00    -0.037 OA 
HETATM   44  H1  UNL     1      -8.483   7.876  63.938  1.00  0.00     0.000 HD 
ENDBRANCH   5  40
ENDBRANCH   2   3
TORSDOF 9
ENDMDL
MODEL       69
REMARK 921   NORMALIZED FREE ENERGY PREDICTED BY IDOCK:   -4.39 KCAL/MOL
REMARK 922        TOTAL FREE ENERGY PREDICTED BY IDOCK:   -8.84 KCAL/MOL
REMARK 923 INTER-LIGAND FREE ENERGY PREDICTED BY IDOCK:   -7.58 KCAL/MOL
REMARK 924 INTRA-LIGAND FREE ENERGY PREDICTED BY IDOCK:   -1.26 KCAL/MOL
REMARK 927      BINDING AFFINITY PREDICTED BY RF-SCORE:    0.00 PKD
ROOT
HETATM    1  C   UNL     1      -5.936   2.834  67.273  1.00  0.00    -0.023 C  
HETATM    2  C   UNL     1      -7.423   2.713  66.948  1.00  0.00    -0.070 C  
ENDROOT
BRANCH   2   3
HETATM    3  C   UNL     1      -8.155   4.013  66.984  1.00  0.00    -0.096 A  
HETATM    4  C   UNL     1      -8.169   4.969  65.927  1.00  0.00    -0.114 A  
HETATM    5  C   UNL     1      -8.866   5.560  68.460  1.00  0.00    -0.104 A  
HETATM    6  N   UNL     1      -8.720   6.208  66.150  1.00  0.00    -0.143 NA 
HETATM    7  N   UNL     1      -8.586   4.265  68.226  1.00  0.00    -0.093 NA 
HETATM    8  C   UNL     1      -9.121   6.504  67.448  1.00  0.00    -0.112 A  
BRANCH   4   9
HETATM    9  N   UNL     1      -7.674   4.518  64.718  1.00  0.00    -0.080 NA 
HETATM   10  H   UNL     1      -6.661   4.627  64.700  1.00  0.00     0.000 HD 
BRANCH   9  11
HETATM   11  C   UNL     1      -8.130   3.935  63.452  1.00  0.00    -0.088 C  
HETATM   12  O   UNL     1     -10.500   2.466  62.806  1.00  0.00    -0.113 OA 
HETATM   13  C   UNL     1      -9.623   1.955  63.810  1.00  0.00    -0.126 C  
HETATM   14  C   UNL     1      -9.269   4.574  62.676  1.00  0.00    -0.117 C  
HETATM   15  C   UNL     1      -8.213   2.414  63.517  1.00  0.00    -0.081 C  
HETATM   16  C   UNL     1     -10.613   3.887  62.869  1.00  0.00    -0.171 C  
ENDBRANCH   9  11
ENDBRANCH   4   9
BRANCH   8  17
HETATM   17  N   UNL     1      -9.893   7.670  67.746  1.00  0.00    -0.151 NA 
HETATM   18  H   UNL     1     -10.770   7.509  68.240  1.00  0.00     0.000 HD 
BRANCH  17  19
HETATM   19  C   UNL     1      -9.595   9.032  67.439  1.00  0.00    -0.152 A  
HETATM   20  C   UNL     1      -8.817   9.793  68.310  1.00  0.00    -0.119 A  
HETATM   21  C   UNL     1      -8.818  11.203  68.239  1.00  0.00    -0.155 A  
HETATM   22  C   UNL     1      -9.617  11.921  67.325  1.00  0.00    -0.177 A  
HETATM   23  C   UNL     1     -10.298  11.146  66.361  1.00  0.00    -0.252 A  
HETATM   24  C   UNL     1     -10.239   9.732  66.400  1.00  0.00    -0.288 A  
BRANCH  22  25
HETATM   25  N   UNL     1      -9.768  13.295  67.499  1.00  0.00    -0.219 NA 
HETATM   26  C   UNL     1     -10.264  14.150  66.416  1.00  0.00    -0.290 C  
HETATM   27  C   UNL     1      -9.046  13.999  68.558  1.00  0.00    -0.163 C  
HETATM   28  C   UNL     1      -9.969  15.057  69.165  1.00  0.00    -0.237 C  
HETATM   29  C   UNL     1     -11.186  15.216  67.015  1.00  0.00    -0.308 C  
HETATM   30  C   UNL     1     -10.475  16.069  68.097  1.00  0.00    -0.269 C  
BRANCH  30  31
HETATM   31  N   UNL     1      -9.394  16.938  67.553  1.00  0.00    -0.230 NA 
HETATM   32  C   UNL     1      -9.808  17.734  66.370  1.00  0.00    -0.324 C  
HETATM   33  C   UNL     1     -10.764  18.911  66.689  1.00  0.00    -0.313 C  
HETATM   34  N   UNL     1     -10.255  19.851  67.708  1.00  0.00    -0.423 NA 
HETATM   35  C   UNL     1      -9.191  20.697  67.164  1.00  0.00    -0.292 C  
HETATM   36  C   UNL     1      -9.782  19.089  68.882  1.00  0.00    -0.385 C  
HETATM   37  C   UNL     1      -8.849  17.896  68.548  1.00  0.00    -0.289 C  
ENDBRANCH  30  31
ENDBRANCH  22  25
BRANCH  23  38
HETATM   38  O   UNL     1     -10.987  11.817  65.372  1.00  0.00    -0.299 OA 
HETATM   39  C   UNL     1     -10.707  11.422  64.034  1.00  0.00    -0.387 C  
ENDBRANCH  23  38
ENDBRANCH  17  19
ENDBRANCH   8  17
BRANCH   5  40
HETATM   40  C   UNL     1      -8.323   5.957  69.801  1.00  0.00    -0.124 C  
HETATM   41  H2  UNL     1      -6.451   5.411  69.427  1.00  0.00     0.000 HD 
HETATM   42  N   UNL     1      -7.160   5.296  70.151  1.00  0.00    -0.059 N  
HETATM   43  O   UNL     1      -8.739   6.891  70.468  1.00  0.00    -0.147 OA 
HETATM   44  H1  UNL     1      -6.790   5.566  71.062  1.00  0.00     0.000 HD 
ENDBRANCH   5  40
ENDBRANCH   2   3
TORSDOF 9
ENDMDL
MODEL       70
REMARK 921   NORMALIZED FREE ENERGY PREDICTED BY IDOCK:   -4.39 KCAL/MOL
REMARK 922        TOTAL FREE ENERGY PREDICTED BY IDOCK:   -8.83 KCAL/MOL
REMARK 923 INTER-LIGAND FREE ENERGY PREDICTED BY IDOCK:   -7.26 KCAL/MOL
REMARK 924 INTRA-LIGAND FREE ENERGY PREDICTED BY IDOCK:   -1.57 KCAL/MOL
REMARK 927      BINDING AFFINITY PREDICTED BY RF-SCORE:    0.00 PKD
ROOT
HETATM    1  C   UNL     1     -12.065   8.118  72.513  1.00  0.00    -0.377 C  
HETATM    2  C   UNL     1     -10.717   7.620  73.029  1.00  0.00    -0.449 C  
ENDROOT
BRANCH   2   3
HETATM    3  C   UNL     1      -9.553   8.087  72.222  1.00  0.00    -0.223 A  
HETATM    4  C   UNL     1      -9.365   7.820  70.834  1.00  0.00    -0.153 A  
HETATM    5  C   UNL     1      -7.376   8.617  72.465  1.00  0.00     0.045 A  
HETATM    6  N   UNL     1      -8.165   8.139  70.246  1.00  0.00    -0.119 NA 
HETATM    7  N   UNL     1      -8.599   8.572  73.025  1.00  0.00    -0.386 NA 
HETATM    8  C   UNL     1      -7.147   8.592  71.078  1.00  0.00    -0.076 A  
BRANCH   4   9
HETATM    9  N   UNL     1     -10.470   7.315  70.176  1.00  0.00    -0.213 NA 
HETATM   10  H   UNL     1     -11.222   8.003  70.191  1.00  0.00     0.000 HD 
BRANCH   9  11
HETATM   11  C   UNL     1     -10.915   6.113  69.463  1.00  0.00    -0.393 C  
HETATM   12  O   UNL     1      -9.573   4.456  67.554  1.00  0.00    -0.158 OA 
HETATM   13  C   UNL     1      -9.755   5.841  67.259  1.00  0.00    -0.129 C  
HETATM   14  C   UNL     1     -10.374   4.746  69.845  1.00  0.00    -0.121 C  
HETATM   15  C   UNL     1     -11.000   6.337  67.957  1.00  0.00    -0.418 C  
HETATM   16  C   UNL     1      -9.268   4.240  68.931  1.00  0.00    -0.145 C  
ENDBRANCH   9  11
ENDBRANCH   4   9
BRANCH   8  17
HETATM   17  N   UNL     1      -5.939   9.148  70.549  1.00  0.00    -0.037 NA 
HETATM   18  H   UNL     1      -5.110   8.559  70.622  1.00  0.00     0.000 HD 
BRANCH  17  19
HETATM   19  C   UNL     1      -5.745  10.420  69.932  1.00  0.00    -0.050 A  
HETATM   20  C   UNL     1      -5.752  11.582  70.702  1.00  0.00    -0.118 A  
HETATM   21  C   UNL     1      -5.941  12.847  70.105  1.00  0.00    -0.136 A  
HETATM   22  C   UNL     1      -6.167  13.011  68.723  1.00  0.00    -0.079 A  
HETATM   23  C   UNL     1      -6.027  11.850  67.932  1.00  0.00    -0.054 A  
HETATM   24  C   UNL     1      -5.772  10.594  68.535  1.00  0.00    -0.040 A  
BRANCH  22  25
HETATM   25  N   UNL     1      -6.612  14.247  68.257  1.00  0.00    -0.101 NA 
HETATM   26  C   UNL     1      -5.780  15.449  68.371  1.00  0.00    -0.105 C  
HETATM   27  C   UNL     1      -8.038  14.501  68.056  1.00  0.00    -0.139 C  
HETATM   28  C   UNL     1      -8.216  15.332  66.784  1.00  0.00    -0.215 C  
HETATM   29  C   UNL     1      -5.956  16.290  67.103  1.00  0.00    -0.128 C  
HETATM   30  C   UNL     1      -7.436  16.677  66.853  1.00  0.00    -0.228 C  
BRANCH  30  31
HETATM   31  N   UNL     1      -7.983  17.621  67.869  1.00  0.00    -0.225 NA 
HETATM   32  C   UNL     1      -7.431  18.995  67.762  1.00  0.00    -0.246 C  
HETATM   33  C   UNL     1      -7.950  19.805  66.548  1.00  0.00    -0.319 C  
HETATM   34  N   UNL     1      -9.422  19.904  66.465  1.00  0.00    -0.386 NA 
HETATM   35  C   UNL     1      -9.948  20.831  67.469  1.00  0.00    -0.197 C  
HETATM   36  C   UNL     1     -10.011  18.558  66.621  1.00  0.00    -0.372 C  
HETATM   37  C   UNL     1      -9.462  17.746  67.823  1.00  0.00    -0.262 C  
ENDBRANCH  30  31
ENDBRANCH  22  25
BRANCH  23  38
HETATM   38  O   UNL     1      -6.114  11.994  66.563  1.00  0.00    -0.158 OA 
HETATM   39  C   UNL     1      -6.215  10.790  65.810  1.00  0.00    -0.101 C  
ENDBRANCH  23  38
ENDBRANCH  17  19
ENDBRANCH   8  17
BRANCH   5  40
HETATM   40  C   UNL     1      -6.354   8.131  73.451  1.00  0.00    -0.095 C  
HETATM   41  H2  UNL     1      -5.357   9.843  73.565  1.00  0.00     0.000 HD 
HETATM   42  N   UNL     1      -5.174   8.849  73.432  1.00  0.00    -0.079 N  
HETATM   43  O   UNL     1      -6.571   7.300  74.320  1.00  0.00    -0.077 OA 
HETATM   44  H1  UNL     1      -4.479   8.519  74.102  1.00  0.00     0.000 HD 
ENDBRANCH   5  40
ENDBRANCH   2   3
TORSDOF 9
ENDMDL
MODEL       71
REMARK 921   NORMALIZED FREE ENERGY PREDICTED BY IDOCK:   -4.37 KCAL/MOL
REMARK 922        TOTAL FREE ENERGY PREDICTED BY IDOCK:   -8.81 KCAL/MOL
REMARK 923 INTER-LIGAND FREE ENERGY PREDICTED BY IDOCK:   -8.87 KCAL/MOL
REMARK 924 INTRA-LIGAND FREE ENERGY PREDICTED BY IDOCK:    0.06 KCAL/MOL
REMARK 927      BINDING AFFINITY PREDICTED BY RF-SCORE:    0.00 PKD
ROOT
HETATM    1  C   UNL     1     -11.671  16.519  71.829  1.00  0.00    -0.242 C  
HETATM    2  C   UNL     1     -11.548  16.248  70.332  1.00  0.00    -0.193 C  
ENDROOT
BRANCH   2   3
HETATM    3  C   UNL     1     -11.630  14.802  69.973  1.00  0.00    -0.286 A  
HETATM    4  C   UNL     1     -11.769  14.299  68.647  1.00  0.00    -0.345 A  
HETATM    5  C   UNL     1     -12.310  12.838  70.842  1.00  0.00    -0.265 A  
HETATM    6  N   UNL     1     -12.025  12.962  68.459  1.00  0.00    -0.289 NA 
HETATM    7  N   UNL     1     -11.805  14.063  71.075  1.00  0.00    -0.220 NA 
HETATM    8  C   UNL     1     -12.264  12.193  69.593  1.00  0.00    -0.120 A  
BRANCH   4   9
HETATM    9  N   UNL     1     -11.554  15.222  67.640  1.00  0.00    -0.293 NA 
HETATM   10  H   UNL     1     -11.951  16.122  67.910  1.00  0.00     0.000 HD 
BRANCH   9  11
HETATM   11  C   UNL     1     -10.942  15.331  66.312  1.00  0.00    -0.300 C  
HETATM   12  O   UNL     1     -10.139  13.319  64.442  1.00  0.00    -0.340 OA 
HETATM   13  C   UNL     1      -9.555  13.324  65.745  1.00  0.00    -0.049 C  
HETATM   14  C   UNL     1     -11.758  15.043  65.063  1.00  0.00    -0.291 C  
HETATM   15  C   UNL     1      -9.539  14.739  66.276  1.00  0.00    -0.339 C  
HETATM   16  C   UNL     1     -11.525  13.657  64.478  1.00  0.00    -0.379 C  
ENDBRANCH   9  11
ENDBRANCH   4   9
BRANCH   8  17
HETATM   17  N   UNL     1     -12.329  10.766  69.529  1.00  0.00    -0.559 NA 
HETATM   18  H   UNL     1     -13.221  10.349  69.798  1.00  0.00     0.000 HD 
BRANCH  17  19
HETATM   19  C   UNL     1     -11.309   9.848  69.138  1.00  0.00    -0.039 A  
HETATM   20  C   UNL     1     -10.936   9.742  67.799  1.00  0.00    -0.242 A  
HETATM   21  C   UNL     1     -10.227   8.614  67.331  1.00  0.00    -0.329 A  
HETATM   22  C   UNL     1      -9.888   7.527  68.162  1.00  0.00    -0.159 A  
HETATM   23  C   UNL     1     -10.150   7.699  69.539  1.00  0.00    -0.192 A  
HETATM   24  C   UNL     1     -10.803   8.863  70.009  1.00  0.00    -0.239 A  
BRANCH  22  25
HETATM   25  N   UNL     1      -9.438   6.347  67.575  1.00  0.00    -0.117 NA 
HETATM   26  C   UNL     1      -9.402   6.185  66.118  1.00  0.00    -0.102 C  
HETATM   27  C   UNL     1      -9.409   5.097  68.334  1.00  0.00    -0.122 C  
HETATM   28  C   UNL     1      -8.141   4.325  67.967  1.00  0.00    -0.090 C  
HETATM   29  C   UNL     1      -8.137   5.409  65.741  1.00  0.00    -0.110 C  
HETATM   30  C   UNL     1      -8.061   4.028  66.442  1.00  0.00    -0.098 C  
BRANCH  30  31
HETATM   31  N   UNL     1      -9.103   3.069  65.976  1.00  0.00    -0.147 NA 
HETATM   32  C   UNL     1     -10.002   3.625  64.934  1.00  0.00    -0.137 C  
HETATM   33  C   UNL     1      -9.348   3.786  63.538  1.00  0.00    -0.129 C  
HETATM   34  N   UNL     1      -8.748   2.548  63.000  1.00  0.00    -0.085 NA 
HETATM   35  C   UNL     1      -9.780   1.612  62.549  1.00  0.00    -0.088 C  
HETATM   36  C   UNL     1      -7.886   1.935  64.032  1.00  0.00    -0.061 C  
HETATM   37  C   UNL     1      -8.542   1.807  65.431  1.00  0.00    -0.107 C  
ENDBRANCH  30  31
ENDBRANCH  22  25
BRANCH  23  38
HETATM   38  O   UNL     1      -9.716   6.711  70.400  1.00  0.00    -0.174 OA 
HETATM   39  C   UNL     1      -9.463   7.115  71.741  1.00  0.00    -0.151 C  
ENDBRANCH  23  38
ENDBRANCH  17  19
ENDBRANCH   8  17
BRANCH   5  40
HETATM   40  C   UNL     1     -13.372  12.531  71.858  1.00  0.00    -0.368 C  
HETATM   41  H2  UNL     1     -12.385  11.050  72.737  1.00  0.00     0.000 HD 
HETATM   42  N   UNL     1     -13.311  11.244  72.358  1.00  0.00    -0.437 N  
HETATM   43  O   UNL     1     -14.121  13.361  72.348  1.00  0.00    -0.639 OA 
HETATM   44  H1  UNL     1     -14.033  11.036  73.049  1.00  0.00     0.000 HD 
ENDBRANCH   5  40
ENDBRANCH   2   3
TORSDOF 9
ENDMDL
MODEL       72
REMARK 921   NORMALIZED FREE ENERGY PREDICTED BY IDOCK:   -4.29 KCAL/MOL
REMARK 922        TOTAL FREE ENERGY PREDICTED BY IDOCK:   -8.68 KCAL/MOL
REMARK 923 INTER-LIGAND FREE ENERGY PREDICTED BY IDOCK:   -8.27 KCAL/MOL
REMARK 924 INTRA-LIGAND FREE ENERGY PREDICTED BY IDOCK:   -0.41 KCAL/MOL
REMARK 927      BINDING AFFINITY PREDICTED BY RF-SCORE:    0.00 PKD
ROOT
HETATM    1  C   UNL     1     -10.146  18.613  66.109  1.00  0.00    -0.399 C  
HETATM    2  C   UNL     1     -10.521  17.641  67.225  1.00  0.00    -0.338 C  
ENDROOT
BRANCH   2   3
HETATM    3  C   UNL     1     -10.213  16.215  66.910  1.00  0.00    -0.283 A  
HETATM    4  C   UNL     1      -8.913  15.709  66.619  1.00  0.00    -0.284 A  
HETATM    5  C   UNL     1     -11.181  14.393  66.005  1.00  0.00    -0.333 A  
HETATM    6  N   UNL     1      -8.783  14.420  66.160  1.00  0.00     0.243 NA 
HETATM    7  N   UNL     1     -11.346  15.535  66.698  1.00  0.00    -0.123 NA 
HETATM    8  C   UNL     1      -9.952  13.720  65.881  1.00  0.00    -0.293 A  
BRANCH   4   9
HETATM    9  N   UNL     1      -7.868  16.566  66.904  1.00  0.00    -0.202 NA 
HETATM   10  H   UNL     1      -8.163  17.530  66.746  1.00  0.00     0.000 HD 
BRANCH   9  11
HETATM   11  C   UNL     1      -6.474  16.545  67.358  1.00  0.00    -0.166 C  
HETATM   12  O   UNL     1      -5.358  16.396  69.990  1.00  0.00    -0.149 OA 
HETATM   13  C   UNL     1      -6.221  17.486  69.666  1.00  0.00    -0.227 C  
HETATM   14  C   UNL     1      -5.855  15.261  67.883  1.00  0.00    -0.161 C  
HETATM   15  C   UNL     1      -6.121  17.776  68.186  1.00  0.00    -0.172 C  
HETATM   16  C   UNL     1      -5.801  15.174  69.401  1.00  0.00    -0.104 C  
ENDBRANCH   9  11
ENDBRANCH   4   9
BRANCH   8  17
HETATM   17  N   UNL     1      -9.937  12.317  65.604  1.00  0.00    -0.253 NA 
HETATM   18  H   UNL     1      -9.632  12.053  64.667  1.00  0.00     0.000 HD 
BRANCH  17  19
HETATM   19  C   UNL     1     -10.294  11.239  66.468  1.00  0.00    -0.240 A  
HETATM   20  C   UNL     1     -10.596  11.483  67.806  1.00  0.00    -0.227 A  
HETATM   21  C   UNL     1     -10.580  10.438  68.756  1.00  0.00    -0.232 A  
HETATM   22  C   UNL     1     -10.228   9.113  68.426  1.00  0.00    -0.200 A  
HETATM   23  C   UNL     1     -10.054   8.846  67.050  1.00  0.00    -0.261 A  
HETATM   24  C   UNL     1     -10.136   9.889  66.097  1.00  0.00    -0.315 A  
BRANCH  22  25
HETATM   25  N   UNL     1      -9.973   8.209  69.455  1.00  0.00    -0.183 NA 
HETATM   26  C   UNL     1      -8.601   7.878  69.855  1.00  0.00    -0.139 C  
HETATM   27  C   UNL     1     -10.986   7.239  69.867  1.00  0.00    -0.243 C  
HETATM   28  C   UNL     1     -10.949   7.104  71.390  1.00  0.00    -0.258 C  
HETATM   29  C   UNL     1      -8.556   7.736  71.380  1.00  0.00    -0.131 C  
HETATM   30  C   UNL     1      -9.547   6.665  71.902  1.00  0.00    -0.149 C  
BRANCH  30  31
HETATM   31  N   UNL     1      -9.185   5.276  71.501  1.00  0.00    -0.144 NA 
HETATM   32  C   UNL     1      -7.896   5.184  70.771  1.00  0.00    -0.088 C  
HETATM   33  C   UNL     1      -6.639   5.390  71.654  1.00  0.00    -0.044 C  
HETATM   34  N   UNL     1      -6.560   4.489  72.822  1.00  0.00    -0.044 NA 
HETATM   35  C   UNL     1      -6.207   3.127  72.416  1.00  0.00    -0.013 C  
HETATM   36  C   UNL     1      -7.848   4.513  73.545  1.00  0.00    -0.091 C  
HETATM   37  C   UNL     1      -9.099   4.335  72.647  1.00  0.00    -0.110 C  
ENDBRANCH  30  31
ENDBRANCH  22  25
BRANCH  23  38
HETATM   38  O   UNL     1      -9.835   7.536  66.677  1.00  0.00    -0.214 OA 
HETATM   39  C   UNL     1      -8.858   7.327  65.663  1.00  0.00    -0.014 C  
ENDBRANCH  23  38
ENDBRANCH  17  19
ENDBRANCH   8  17
BRANCH   5  40
HETATM   40  C   UNL     1     -12.265  14.270  64.975  1.00  0.00    -0.433 C  
HETATM   41  H2  UNL     1     -11.246  13.079  63.755  1.00  0.00     0.000 HD 
HETATM   42  N   UNL     1     -11.804  13.932  63.716  1.00  0.00    -0.688 N  
HETATM   43  O   UNL     1     -13.461  14.286  65.222  1.00  0.00    -0.564 OA 
HETATM   44  H1  UNL     1     -12.541  13.848  63.016  1.00  0.00     0.000 HD 
ENDBRANCH   5  40
ENDBRANCH   2   3
TORSDOF 9
ENDMDL
MODEL       73
REMARK 921   NORMALIZED FREE ENERGY PREDICTED BY IDOCK:   -4.25 KCAL/MOL
REMARK 922        TOTAL FREE ENERGY PREDICTED BY IDOCK:   -8.62 KCAL/MOL
REMARK 923 INTER-LIGAND FREE ENERGY PREDICTED BY IDOCK:  -11.60 KCAL/MOL
REMARK 924 INTRA-LIGAND FREE ENERGY PREDICTED BY IDOCK:    2.98 KCAL/MOL
REMARK 927      BINDING AFFINITY PREDICTED BY RF-SCORE:    0.00 PKD
ROOT
HETATM    1  C   UNL     1      -9.354   8.947  65.946  1.00  0.00    -0.301 C  
HETATM    2  C   UNL     1     -10.654   8.952  66.746  1.00  0.00    -0.212 C  
ENDROOT
BRANCH   2   3
HETATM    3  C   UNL     1     -10.954  10.258  67.401  1.00  0.00    -0.252 A  
HETATM    4  C   UNL     1     -11.497  10.406  68.710  1.00  0.00    -0.175 A  
HETATM    5  C   UNL     1     -11.527  12.371  66.870  1.00  0.00    -0.360 A  
HETATM    6  N   UNL     1     -11.906  11.649  69.130  1.00  0.00    -0.316 NA 
HETATM    7  N   UNL     1     -10.876  11.251  66.507  1.00  0.00    -0.277 NA 
HETATM    8  C   UNL     1     -11.883  12.679  68.195  1.00  0.00    -0.315 A  
BRANCH   4   9
HETATM    9  N   UNL     1     -11.495   9.261  69.484  1.00  0.00    -0.427 NA 
HETATM   10  H   UNL     1     -12.453   9.011  69.729  1.00  0.00     0.000 HD 
BRANCH   9  11
HETATM   11  C   UNL     1     -10.566   8.287  70.066  1.00  0.00    -0.235 C  
HETATM   12  O   UNL     1     -10.591   6.948  72.596  1.00  0.00    -0.211 OA 
HETATM   13  C   UNL     1     -10.557   8.375  72.570  1.00  0.00    -0.298 C  
HETATM   14  C   UNL     1     -10.958   6.824  70.182  1.00  0.00    -0.340 C  
HETATM   15  C   UNL     1      -9.866   8.832  71.306  1.00  0.00    -0.336 C  
HETATM   16  C   UNL     1     -11.430   6.417  71.570  1.00  0.00    -0.306 C  
ENDBRANCH   9  11
ENDBRANCH   4   9
BRANCH   8  17
HETATM   17  N   UNL     1     -12.084  14.042  68.578  1.00  0.00    -0.505 NA 
HETATM   18  H   UNL     1     -13.055  14.344  68.655  1.00  0.00     0.000 HD 
BRANCH  17  19
HETATM   19  C   UNL     1     -11.100  15.035  68.865  1.00  0.00    -0.266 A  
HETATM   20  C   UNL     1     -11.457  16.381  68.921  1.00  0.00    -0.216 A  
HETATM   21  C   UNL     1     -10.480  17.396  68.826  1.00  0.00    -0.333 A  
HETATM   22  C   UNL     1      -9.110  17.120  68.634  1.00  0.00    -0.268 A  
HETATM   23  C   UNL     1      -8.739  15.760  68.711  1.00  0.00    -0.203 A  
HETATM   24  C   UNL     1      -9.720  14.752  68.872  1.00  0.00    -0.215 A  
BRANCH  22  25
HETATM   25  N   UNL     1      -8.258  18.163  68.279  1.00  0.00    -0.283 NA 
HETATM   26  C   UNL     1      -8.288  18.749  66.935  1.00  0.00    -0.270 C  
HETATM   27  C   UNL     1      -7.031  18.416  69.034  1.00  0.00    -0.256 C  
HETATM   28  C   UNL     1      -6.834  19.927  69.163  1.00  0.00    -0.342 C  
HETATM   29  C   UNL     1      -8.087  20.263  67.055  1.00  0.00    -0.365 C  
HETATM   30  C   UNL     1      -6.763  20.626  67.775  1.00  0.00    -0.328 C  
BRANCH  30  31
HETATM   31  N   UNL     1      -5.545  20.263  66.997  1.00  0.00    -0.162 NA 
HETATM   32  C   UNL     1      -5.537  18.855  66.527  1.00  0.00    -0.156 C  
HETATM   33  C   UNL     1      -6.518  18.557  65.366  1.00  0.00    -0.247 C  
HETATM   34  N   UNL     1      -6.347  19.427  64.184  1.00  0.00    -0.335 NA 
HETATM   35  C   UNL     1      -5.146  19.063  63.429  1.00  0.00    -0.251 C  
HETATM   36  C   UNL     1      -6.297  20.838  64.620  1.00  0.00    -0.279 C  
HETATM   37  C   UNL     1      -5.332  21.117  65.801  1.00  0.00    -0.217 C  
ENDBRANCH  30  31
ENDBRANCH  22  25
BRANCH  23  38
HETATM   38  O   UNL     1      -7.393  15.461  68.656  1.00  0.00    -0.118 OA 
HETATM   39  C   UNL     1      -6.965  14.349  69.434  1.00  0.00    -0.129 C  
ENDBRANCH  23  38
ENDBRANCH  17  19
ENDBRANCH   8  17
BRANCH   5  40
HETATM   40  C   UNL     1     -12.286  12.914  65.694  1.00  0.00    -0.463 C  
HETATM   41  H2  UNL     1     -10.980  14.344  65.257  1.00  0.00     0.000 HD 
HETATM   42  N   UNL     1     -11.984  14.229  65.393  1.00  0.00    -0.370 N  
HETATM   43  O   UNL     1     -12.978  12.241  64.946  1.00  0.00    -0.662 OA 
HETATM   44  H1  UNL     1     -12.499  14.598  64.594  1.00  0.00     0.000 HD 
ENDBRANCH   5  40
ENDBRANCH   2   3
TORSDOF 9
ENDMDL
MODEL       74
REMARK 921   NORMALIZED FREE ENERGY PREDICTED BY IDOCK:   -4.15 KCAL/MOL
REMARK 922        TOTAL FREE ENERGY PREDICTED BY IDOCK:   -8.47 KCAL/MOL
REMARK 923 INTER-LIGAND FREE ENERGY PREDICTED BY IDOCK:   -7.65 KCAL/MOL
REMARK 924 INTRA-LIGAND FREE ENERGY PREDICTED BY IDOCK:   -0.82 KCAL/MOL
REMARK 927      BINDING AFFINITY PREDICTED BY RF-SCORE:    0.00 PKD
ROOT
HETATM    1  C   UNL     1     -10.133   1.992  72.364  1.00  0.00    -0.226 C  
HETATM    2  C   UNL     1      -9.487   2.489  71.073  1.00  0.00    -0.222 C  
ENDROOT
BRANCH   2   3
HETATM    3  C   UNL     1      -9.315   3.970  71.017  1.00  0.00    -0.149 A  
HETATM    4  C   UNL     1      -8.230   4.640  70.380  1.00  0.00    -0.075 A  
HETATM    5  C   UNL     1      -9.832   5.820  72.195  1.00  0.00    -0.156 A  
HETATM    6  N   UNL     1      -8.081   5.995  70.558  1.00  0.00    -0.110 NA 
HETATM    7  N   UNL     1     -10.177   4.566  71.849  1.00  0.00    -0.192 NA 
HETATM    8  C   UNL     1      -8.934   6.617  71.464  1.00  0.00    -0.139 A  
BRANCH   4   9
HETATM    9  N   UNL     1      -7.448   3.850  69.560  1.00  0.00    -0.052 NA 
HETATM   10  H   UNL     1      -6.763   3.345  70.122  1.00  0.00     0.000 HD 
BRANCH   9  11
HETATM   11  C   UNL     1      -7.280   3.498  68.146  1.00  0.00    -0.051 C  
HETATM   12  O   UNL     1      -9.175   2.611  66.193  1.00  0.00    -0.131 OA 
HETATM   13  C   UNL     1      -8.991   1.837  67.378  1.00  0.00    -0.134 C  
HETATM   14  C   UNL     1      -7.786   4.429  67.057  1.00  0.00    -0.097 C  
HETATM   15  C   UNL     1      -7.578   2.027  67.880  1.00  0.00    -0.055 C  
HETATM   16  C   UNL     1      -9.122   4.013  66.458  1.00  0.00    -0.140 C  
ENDBRANCH   9  11
ENDBRANCH   4   9
BRANCH   8  17
HETATM   17  N   UNL     1      -9.006   8.042  71.566  1.00  0.00    -0.135 NA 
HETATM   18  H   UNL     1      -8.706   8.439  72.456  1.00  0.00     0.000 HD 
BRANCH  17  19
HETATM   19  C   UNL     1      -9.443   8.980  70.583  1.00  0.00    -0.236 A  
HETATM   20  C   UNL     1      -8.593   9.356  69.545  1.00  0.00    -0.158 A  
HETATM   21  C   UNL     1      -8.837  10.528  68.796  1.00  0.00    -0.158 A  
HETATM   22  C   UNL     1      -9.913  11.398  69.069  1.00  0.00    -0.067 A  
HETATM   23  C   UNL     1     -10.842  10.945  70.031  1.00  0.00    -0.072 A  
HETATM   24  C   UNL     1     -10.624   9.734  70.731  1.00  0.00    -0.371 A  
BRANCH  22  25
HETATM   25  N   UNL     1      -9.927  12.657  68.474  1.00  0.00    -0.199 NA 
HETATM   26  C   UNL     1      -8.806  13.589  68.634  1.00  0.00    -0.003 C  
HETATM   27  C   UNL     1     -11.186  13.274  68.059  1.00  0.00    -0.276 C  
HETATM   28  C   UNL     1     -10.967  13.996  66.729  1.00  0.00    -0.298 C  
HETATM   29  C   UNL     1      -8.582  14.321  67.307  1.00  0.00    -0.229 C  
HETATM   30  C   UNL     1      -9.850  15.074  66.829  1.00  0.00    -0.243 C  
BRANCH  30  31
HETATM   31  N   UNL     1     -10.221  16.225  67.700  1.00  0.00    -0.266 NA 
HETATM   32  C   UNL     1      -9.075  16.797  68.450  1.00  0.00    -0.233 C  
HETATM   33  C   UNL     1      -8.081  17.613  67.586  1.00  0.00    -0.216 C  
HETATM   34  N   UNL     1      -8.702  18.706  66.810  1.00  0.00    -0.283 NA 
HETATM   35  C   UNL     1      -9.065  19.829  67.677  1.00  0.00    -0.333 C  
HETATM   36  C   UNL     1      -9.881  18.184  66.090  1.00  0.00    -0.251 C  
HETATM   37  C   UNL     1     -10.853  17.346  66.960  1.00  0.00    -0.049 C  
ENDBRANCH  30  31
ENDBRANCH  22  25
BRANCH  23  38
HETATM   38  O   UNL     1     -11.975  11.707  70.232  1.00  0.00    -0.338 OA 
HETATM   39  C   UNL     1     -12.783  11.346  71.347  1.00  0.00    -0.384 C  
ENDBRANCH  23  38
ENDBRANCH  17  19
ENDBRANCH   8  17
BRANCH   5  40
HETATM   40  C   UNL     1     -10.052   6.013  73.668  1.00  0.00    -0.214 C  
HETATM   41  H2  UNL     1     -10.389   7.967  73.563  1.00  0.00     0.000 HD 
HETATM   42  N   UNL     1      -9.828   7.306  74.101  1.00  0.00    -0.431 N  
HETATM   43  O   UNL     1     -10.548   5.179  74.409  1.00  0.00    -0.280 OA 
HETATM   44  H1  UNL     1      -9.978   7.438  75.101  1.00  0.00     0.000 HD 
ENDBRANCH   5  40
ENDBRANCH   2   3
TORSDOF 9
ENDMDL
MODEL       75
REMARK 921   NORMALIZED FREE ENERGY PREDICTED BY IDOCK:   -4.04 KCAL/MOL
REMARK 922        TOTAL FREE ENERGY PREDICTED BY IDOCK:   -8.30 KCAL/MOL
REMARK 923 INTER-LIGAND FREE ENERGY PREDICTED BY IDOCK:   -6.40 KCAL/MOL
REMARK 924 INTRA-LIGAND FREE ENERGY PREDICTED BY IDOCK:   -1.90 KCAL/MOL
REMARK 927      BINDING AFFINITY PREDICTED BY RF-SCORE:    0.00 PKD
ROOT
HETATM    1  C   UNL     1      -8.142   2.617  63.445  1.00  0.00    -0.074 C  
HETATM    2  C   UNL     1      -8.886   2.927  64.741  1.00  0.00    -0.115 C  
ENDROOT
BRANCH   2   3
HETATM    3  C   UNL     1      -8.384   4.141  65.448  1.00  0.00    -0.109 A  
HETATM    4  C   UNL     1      -8.820   4.573  66.734  1.00  0.00    -0.112 A  
HETATM    5  C   UNL     1      -7.528   6.177  64.999  1.00  0.00    -0.082 A  
HETATM    6  N   UNL     1      -8.426   5.806  67.197  1.00  0.00    -0.108 NA 
HETATM    7  N   UNL     1      -7.660   4.894  64.612  1.00  0.00    -0.075 NA 
HETATM    8  C   UNL     1      -7.721   6.622  66.319  1.00  0.00    -0.098 A  
BRANCH   4   9
HETATM    9  N   UNL     1      -9.564   3.651  67.446  1.00  0.00    -0.230 NA 
HETATM   10  H   UNL     1     -10.419   3.434  66.935  1.00  0.00     0.000 HD 
BRANCH   9  11
HETATM   11  C   UNL     1      -9.526   2.883  68.694  1.00  0.00    -0.124 C  
HETATM   12  O   UNL     1      -7.415   2.472  70.583  1.00  0.00    -0.036 OA 
HETATM   13  C   UNL     1      -7.218   2.067  69.229  1.00  0.00    -0.043 C  
HETATM   14  C   UNL     1      -9.516   3.595  70.036  1.00  0.00    -0.260 C  
HETATM   15  C   UNL     1      -8.554   1.711  68.618  1.00  0.00    -0.092 C  
HETATM   16  C   UNL     1      -8.138   3.699  70.673  1.00  0.00    -0.053 C  
ENDBRANCH   9  11
ENDBRANCH   4   9
BRANCH   8  17
HETATM   17  N   UNL     1      -7.086   7.825  66.761  1.00  0.00    -0.078 NA 
HETATM   18  H   UNL     1      -6.075   7.866  66.634  1.00  0.00     0.000 HD 
BRANCH  17  19
HETATM   19  C   UNL     1      -7.684   8.975  67.358  1.00  0.00    -0.092 A  
HETATM   20  C   UNL     1      -8.668   9.689  66.675  1.00  0.00    -0.146 A  
HETATM   21  C   UNL     1      -9.001  11.008  67.052  1.00  0.00    -0.151 A  
HETATM   22  C   UNL     1      -8.348  11.690  68.099  1.00  0.00    -0.154 A  
HETATM   23  C   UNL     1      -7.449  10.920  68.870  1.00  0.00    -0.116 A  
HETATM   24  C   UNL     1      -7.170   9.576  68.524  1.00  0.00    -0.071 A  
BRANCH  22  25
HETATM   25  N   UNL     1      -8.539  13.063  68.230  1.00  0.00    -0.179 NA 
HETATM   26  C   UNL     1      -9.847  13.678  67.978  1.00  0.00    -0.244 C  
HETATM   27  C   UNL     1      -7.405  13.985  68.177  1.00  0.00    -0.128 C  
HETATM   28  C   UNL     1      -7.622  15.093  69.209  1.00  0.00    -0.201 C  
HETATM   29  C   UNL     1     -10.071  14.792  69.005  1.00  0.00    -0.232 C  
HETATM   30  C   UNL     1      -8.951  15.864  68.965  1.00  0.00    -0.245 C  
BRANCH  30  31
HETATM   31  N   UNL     1      -8.942  16.666  67.708  1.00  0.00    -0.209 NA 
HETATM   32  C   UNL     1     -10.221  17.372  67.444  1.00  0.00    -0.326 C  
HETATM   33  C   UNL     1     -10.488  18.589  68.365  1.00  0.00    -0.233 C  
HETATM   34  N   UNL     1      -9.410  19.598  68.371  1.00  0.00    -0.356 NA 
HETATM   35  C   UNL     1      -9.408  20.378  67.131  1.00  0.00    -0.403 C  
HETATM   36  C   UNL     1      -8.112  18.924  68.579  1.00  0.00    -0.348 C  
HETATM   37  C   UNL     1      -7.869  17.692  67.670  1.00  0.00    -0.207 C  
ENDBRANCH  30  31
ENDBRANCH  22  25
BRANCH  23  38
HETATM   38  O   UNL     1      -6.887  11.516  69.981  1.00  0.00    -0.035 OA 
HETATM   39  C   UNL     1      -5.478  11.374  70.123  1.00  0.00    -0.105 C  
ENDBRANCH  23  38
ENDBRANCH  17  19
ENDBRANCH   8  17
BRANCH   5  40
HETATM   40  C   UNL     1      -7.720   7.081  63.816  1.00  0.00    -0.111 C  
HETATM   41  H2  UNL     1      -9.470   6.321  63.267  1.00  0.00     0.000 HD 
HETATM   42  N   UNL     1      -8.571   6.569  62.855  1.00  0.00    -0.329 N  
HETATM   43  O   UNL     1      -7.321   8.233  63.754  1.00  0.00    -0.091 OA 
HETATM   44  H1  UNL     1      -8.702   7.184  62.051  1.00  0.00     0.000 HD 
ENDBRANCH   5  40
ENDBRANCH   2   3
TORSDOF 9
ENDMDL
MODEL       76
REMARK 921   NORMALIZED FREE ENERGY PREDICTED BY IDOCK:   -3.93 KCAL/MOL
REMARK 922        TOTAL FREE ENERGY PREDICTED BY IDOCK:   -8.13 KCAL/MOL
REMARK 923 INTER-LIGAND FREE ENERGY PREDICTED BY IDOCK:   -6.10 KCAL/MOL
REMARK 924 INTRA-LIGAND FREE ENERGY PREDICTED BY IDOCK:   -2.03 KCAL/MOL
REMARK 927      BINDING AFFINITY PREDICTED BY RF-SCORE:    0.00 PKD
ROOT
HETATM    1  C   UNL     1     -10.765   4.344  65.301  1.00  0.00    -0.150 C  
HETATM    2  C   UNL     1      -9.932   3.883  66.495  1.00  0.00    -0.023 C  
ENDROOT
BRANCH   2   3
HETATM    3  C   UNL     1      -9.106   4.965  67.106  1.00  0.00    -0.119 A  
HETATM    4  C   UNL     1      -7.682   4.966  67.169  1.00  0.00    -0.092 A  
HETATM    5  C   UNL     1      -9.228   6.536  68.717  1.00  0.00    -0.131 A  
HETATM    6  N   UNL     1      -7.045   5.922  67.923  1.00  0.00    -0.069 NA 
HETATM    7  N   UNL     1      -9.886   5.804  67.799  1.00  0.00    -0.120 NA 
HETATM    8  C   UNL     1      -7.841   6.764  68.693  1.00  0.00    -0.118 A  
BRANCH   4   9
HETATM    9  N   UNL     1      -7.056   4.018  66.383  1.00  0.00    -0.063 NA 
HETATM   10  H   UNL     1      -6.939   3.155  66.914  1.00  0.00     0.000 HD 
BRANCH   9  11
HETATM   11  C   UNL     1      -6.505   3.845  65.035  1.00  0.00    -0.035 C  
HETATM   12  O   UNL     1      -7.801   3.533  62.502  1.00  0.00    -0.060 OA 
HETATM   13  C   UNL     1      -8.064   2.582  63.534  1.00  0.00    -0.081 C  
HETATM   14  C   UNL     1      -6.560   4.983  64.030  1.00  0.00    -0.041 C  
HETATM   15  C   UNL     1      -6.858   2.487  64.440  1.00  0.00    -0.043 C  
HETATM   16  C   UNL     1      -7.688   4.860  63.015  1.00  0.00    -0.066 C  
ENDBRANCH   9  11
ENDBRANCH   4   9
BRANCH   8  17
HETATM   17  N   UNL     1      -7.300   7.918  69.342  1.00  0.00    -0.079 NA 
HETATM   18  H   UNL     1      -6.971   7.777  70.297  1.00  0.00     0.000 HD 
BRANCH  17  19
HETATM   19  C   UNL     1      -7.161   9.241  68.827  1.00  0.00    -0.073 A  
HETATM   20  C   UNL     1      -6.592  10.244  69.610  1.00  0.00    -0.077 A  
HETATM   21  C   UNL     1      -6.779  11.607  69.293  1.00  0.00    -0.115 A  
HETATM   22  C   UNL     1      -7.567  12.035  68.206  1.00  0.00    -0.117 A  
HETATM   23  C   UNL     1      -8.029  11.019  67.341  1.00  0.00    -0.119 A  
HETATM   24  C   UNL     1      -7.782   9.656  67.632  1.00  0.00    -0.095 A  
BRANCH  22  25
HETATM   25  N   UNL     1      -7.923  13.379  68.122  1.00  0.00    -0.139 NA 
HETATM   26  C   UNL     1      -9.329  13.796  68.097  1.00  0.00    -0.211 C  
HETATM   27  C   UNL     1      -6.977  14.374  67.616  1.00  0.00    -0.184 C  
HETATM   28  C   UNL     1      -7.115  15.652  68.444  1.00  0.00    -0.115 C  
HETATM   29  C   UNL     1      -9.475  15.079  68.921  1.00  0.00    -0.211 C  
HETATM   30  C   UNL     1      -8.563  16.220  68.403  1.00  0.00    -0.200 C  
BRANCH  30  31
HETATM   31  N   UNL     1      -8.955  16.729  67.057  1.00  0.00    -0.200 NA 
HETATM   32  C   UNL     1     -10.380  17.134  66.967  1.00  0.00    -0.308 C  
HETATM   33  C   UNL     1     -10.723  18.453  67.702  1.00  0.00    -0.357 C  
HETATM   34  N   UNL     1      -9.900  19.610  67.297  1.00  0.00    -0.348 NA 
HETATM   35  C   UNL     1     -10.291  20.100  65.973  1.00  0.00    -0.372 C  
HETATM   36  C   UNL     1      -8.473  19.228  67.323  1.00  0.00    -0.287 C  
HETATM   37  C   UNL     1      -8.148  17.891  66.608  1.00  0.00    -0.253 C  
ENDBRANCH  30  31
ENDBRANCH  22  25
BRANCH  23  38
HETATM   38  O   UNL     1      -8.696  11.408  66.196  1.00  0.00    -0.181 OA 
HETATM   39  C   UNL     1      -9.415  10.388  65.512  1.00  0.00    -0.215 C  
ENDBRANCH  23  38
ENDBRANCH  17  19
ENDBRANCH   8  17
BRANCH   5  40
HETATM   40  C   UNL     1     -10.020   6.573  69.992  1.00  0.00    -0.169 C  
HETATM   41  H2  UNL     1      -9.723   4.667  70.465  1.00  0.00     0.000 HD 
HETATM   42  N   UNL     1     -10.489   5.336  70.393  1.00  0.00    -0.272 N  
HETATM   43  O   UNL     1     -10.113   7.547  70.721  1.00  0.00    -0.193 OA 
HETATM   44  H1  UNL     1     -11.027   5.361  71.259  1.00  0.00     0.000 HD 
ENDBRANCH   5  40
ENDBRANCH   2   3
TORSDOF 9
ENDMDL
MODEL       77
REMARK 921   NORMALIZED FREE ENERGY PREDICTED BY IDOCK:   -3.92 KCAL/MOL
REMARK 922        TOTAL FREE ENERGY PREDICTED BY IDOCK:   -8.13 KCAL/MOL
REMARK 923 INTER-LIGAND FREE ENERGY PREDICTED BY IDOCK:   -6.89 KCAL/MOL
REMARK 924 INTRA-LIGAND FREE ENERGY PREDICTED BY IDOCK:   -1.24 KCAL/MOL
REMARK 927      BINDING AFFINITY PREDICTED BY RF-SCORE:    0.00 PKD
ROOT
HETATM    1  C   UNL     1     -12.168   6.681  71.513  1.00  0.00    -0.391 C  
HETATM    2  C   UNL     1     -11.115   6.256  70.493  1.00  0.00    -0.399 C  
ENDROOT
BRANCH   2   3
HETATM    3  C   UNL     1      -9.908   7.133  70.473  1.00  0.00    -0.179 A  
HETATM    4  C   UNL     1      -8.780   6.946  69.621  1.00  0.00    -0.141 A  
HETATM    5  C   UNL     1      -8.717   8.473  71.838  1.00  0.00    -0.203 A  
HETATM    6  N   UNL     1      -7.652   7.703  69.826  1.00  0.00    -0.091 NA 
HETATM    7  N   UNL     1      -9.922   7.960  71.524  1.00  0.00    -0.170 NA 
HETATM    8  C   UNL     1      -7.630   8.526  70.947  1.00  0.00    -0.080 A  
BRANCH   4   9
HETATM    9  N   UNL     1      -8.961   6.042  68.592  1.00  0.00    -0.118 NA 
HETATM   10  H   UNL     1      -9.739   6.343  68.005  1.00  0.00     0.000 HD 
BRANCH   9  11
HETATM   11  C   UNL     1      -8.402   4.793  68.066  1.00  0.00    -0.102 C  
HETATM   12  O   UNL     1      -8.285   2.165  69.195  1.00  0.00    -0.048 OA 
HETATM   13  C   UNL     1      -7.668   3.245  69.895  1.00  0.00    -0.043 C  
HETATM   14  C   UNL     1      -9.318   3.683  67.581  1.00  0.00    -0.246 C  
HETATM   15  C   UNL     1      -7.227   4.294  68.900  1.00  0.00    -0.055 C  
HETATM   16  C   UNL     1      -9.515   2.557  68.586  1.00  0.00    -0.129 C  
ENDBRANCH   9  11
ENDBRANCH   4   9
BRANCH   8  17
HETATM   17  N   UNL     1      -6.604   9.504  71.138  1.00  0.00    -0.248 NA 
HETATM   18  H   UNL     1      -6.005   9.366  71.952  1.00  0.00     0.000 HD 
BRANCH  17  19
HETATM   19  C   UNL     1      -6.310  10.648  70.338  1.00  0.00    -0.117 A  
HETATM   20  C   UNL     1      -5.711  11.769  70.908  1.00  0.00    -0.010 A  
HETATM   21  C   UNL     1      -5.751  13.023  70.260  1.00  0.00    -0.159 A  
HETATM   22  C   UNL     1      -6.419  13.227  69.035  1.00  0.00    -0.102 A  
HETATM   23  C   UNL     1      -6.907  12.064  68.399  1.00  0.00    -0.072 A  
HETATM   24  C   UNL     1      -6.804  10.800  69.027  1.00  0.00    -0.075 A  
BRANCH  22  25
HETATM   25  N   UNL     1      -6.645  14.531  68.602  1.00  0.00    -0.082 NA 
HETATM   26  C   UNL     1      -7.976  14.970  68.170  1.00  0.00    -0.131 C  
HETATM   27  C   UNL     1      -5.540  15.368  68.138  1.00  0.00    -0.125 C  
HETATM   28  C   UNL     1      -5.760  16.797  68.637  1.00  0.00    -0.124 C  
HETATM   29  C   UNL     1      -8.203  16.403  68.661  1.00  0.00    -0.223 C  
HETATM   30  C   UNL     1      -7.116  17.382  68.148  1.00  0.00    -0.196 C  
BRANCH  30  31
HETATM   31  N   UNL     1      -7.163  17.602  66.675  1.00  0.00    -0.207 NA 
HETATM   32  C   UNL     1      -8.124  18.655  66.261  1.00  0.00    -0.244 C  
HETATM   33  C   UNL     1      -7.677  20.101  66.587  1.00  0.00    -0.295 C  
HETATM   34  N   UNL     1      -6.351  20.466  66.048  1.00  0.00    -0.209 NA 
HETATM   35  C   UNL     1      -6.408  20.677  64.600  1.00  0.00    -0.302 C  
HETATM   36  C   UNL     1      -5.376  19.412  66.396  1.00  0.00    -0.158 C  
HETATM   37  C   UNL     1      -5.848  17.967  66.090  1.00  0.00    -0.203 C  
ENDBRANCH  30  31
ENDBRANCH  22  25
BRANCH  23  38
HETATM   38  O   UNL     1      -7.453  12.208  67.139  1.00  0.00    -0.149 OA 
HETATM   39  C   UNL     1      -7.611  11.011  66.385  1.00  0.00    -0.135 C  
ENDBRANCH  23  38
ENDBRANCH  17  19
ENDBRANCH   8  17
BRANCH   5  40
HETATM   40  C   UNL     1      -8.528   8.436  73.326  1.00  0.00    -0.122 C  
HETATM   41  H2  UNL     1      -9.531   6.746  73.612  1.00  0.00     0.000 HD 
HETATM   42  N   UNL     1      -9.483   7.691  73.992  1.00  0.00    -0.402 N  
HETATM   43  O   UNL     1      -7.543   8.861  73.909  1.00  0.00    -0.405 OA 
HETATM   44  H1  UNL     1      -9.354   7.665  75.004  1.00  0.00     0.000 HD 
ENDBRANCH   5  40
ENDBRANCH   2   3
TORSDOF 9
ENDMDL
MODEL       78
REMARK 921   NORMALIZED FREE ENERGY PREDICTED BY IDOCK:   -3.75 KCAL/MOL
REMARK 922        TOTAL FREE ENERGY PREDICTED BY IDOCK:   -7.87 KCAL/MOL
REMARK 923 INTER-LIGAND FREE ENERGY PREDICTED BY IDOCK:   -6.63 KCAL/MOL
REMARK 924 INTRA-LIGAND FREE ENERGY PREDICTED BY IDOCK:   -1.24 KCAL/MOL
REMARK 927      BINDING AFFINITY PREDICTED BY RF-SCORE:    0.00 PKD
ROOT
HETATM    1  C   UNL     1      -9.782   3.965  69.190  1.00  0.00    -0.143 C  
HETATM    2  C   UNL     1      -8.260   4.074  69.240  1.00  0.00    -0.071 C  
ENDROOT
BRANCH   2   3
HETATM    3  C   UNL     1      -7.748   5.459  69.027  1.00  0.00    -0.089 A  
HETATM    4  C   UNL     1      -7.729   6.482  70.020  1.00  0.00    -0.102 A  
HETATM    5  C   UNL     1      -7.500   6.980  67.383  1.00  0.00    -0.097 A  
HETATM    6  N   UNL     1      -7.411   7.767  69.652  1.00  0.00    -0.088 NA 
HETATM    7  N   UNL     1      -7.542   5.679  67.723  1.00  0.00    -0.088 NA 
HETATM    8  C   UNL     1      -7.250   8.022  68.295  1.00  0.00    -0.093 A  
BRANCH   4   9
HETATM    9  N   UNL     1      -7.970   6.055  71.312  1.00  0.00    -0.111 NA 
HETATM   10  H   UNL     1      -7.333   5.294  71.546  1.00  0.00     0.000 HD 
BRANCH   9  11
HETATM   11  C   UNL     1      -8.843   6.337  72.456  1.00  0.00    -0.123 C  
HETATM   12  O   UNL     1     -10.989   8.205  72.766  1.00  0.00    -0.369 OA 
HETATM   13  C   UNL     1      -9.690   8.695  72.436  1.00  0.00    -0.243 C  
HETATM   14  C   UNL     1     -10.292   5.883  72.449  1.00  0.00    -0.230 C  
HETATM   15  C   UNL     1      -8.648   7.751  72.991  1.00  0.00    -0.218 C  
HETATM   16  C   UNL     1     -11.284   6.981  72.094  1.00  0.00    -0.256 C  
ENDBRANCH   9  11
ENDBRANCH   4   9
BRANCH   8  17
HETATM   17  N   UNL     1      -6.716   9.263  67.824  1.00  0.00    -0.067 NA 
HETATM   18  H   UNL     1      -5.967   9.191  67.135  1.00  0.00     0.000 HD 
BRANCH  17  19
HETATM   19  C   UNL     1      -7.095  10.588  68.194  1.00  0.00    -0.082 A  
HETATM   20  C   UNL     1      -8.189  11.201  67.586  1.00  0.00    -0.118 A  
HETATM   21  C   UNL     1      -8.360  12.601  67.643  1.00  0.00    -0.174 A  
HETATM   22  C   UNL     1      -7.435  13.458  68.274  1.00  0.00    -0.129 A  
HETATM   23  C   UNL     1      -6.403  12.823  69.000  1.00  0.00    -0.096 A  
HETATM   24  C   UNL     1      -6.277  11.413  68.991  1.00  0.00    -0.058 A  
BRANCH  22  25
HETATM   25  N   UNL     1      -7.530  14.830  68.053  1.00  0.00    -0.116 NA 
HETATM   26  C   UNL     1      -8.832  15.494  67.929  1.00  0.00    -0.171 C  
HETATM   27  C   UNL     1      -6.402  15.578  67.500  1.00  0.00    -0.134 C  
HETATM   28  C   UNL     1      -6.319  16.935  68.202  1.00  0.00    -0.143 C  
HETATM   29  C   UNL     1      -8.756  16.856  68.625  1.00  0.00    -0.267 C  
HETATM   30  C   UNL     1      -7.633  17.753  68.046  1.00  0.00    -0.236 C  
BRANCH  30  31
HETATM   31  N   UNL     1      -7.888  18.192  66.644  1.00  0.00    -0.231 NA 
HETATM   32  C   UNL     1      -8.424  19.572  66.541  1.00  0.00    -0.342 C  
HETATM   33  C   UNL     1      -7.391  20.689  66.834  1.00  0.00    -0.282 C  
HETATM   34  N   UNL     1      -6.167  20.619  66.010  1.00  0.00    -0.216 NA 
HETATM   35  C   UNL     1      -6.430  21.049  64.635  1.00  0.00    -0.135 C  
HETATM   36  C   UNL     1      -5.633  19.242  66.045  1.00  0.00    -0.155 C  
HETATM   37  C   UNL     1      -6.683  18.133  65.779  1.00  0.00    -0.273 C  
ENDBRANCH  30  31
ENDBRANCH  22  25
BRANCH  23  38
HETATM   38  O   UNL     1      -5.554  13.624  69.736  1.00  0.00    -0.090 OA 
HETATM   39  C   UNL     1      -5.894  13.805  71.106  1.00  0.00    -0.172 C  
ENDBRANCH  23  38
ENDBRANCH  17  19
ENDBRANCH   8  17
BRANCH   5  40
HETATM   40  C   UNL     1      -8.284   7.196  66.122  1.00  0.00    -0.128 C  
HETATM   41  H2  UNL     1     -10.069   7.172  66.991  1.00  0.00     0.000 HD 
HETATM   42  N   UNL     1      -9.591   6.752  66.194  1.00  0.00    -0.391 N  
HETATM   43  O   UNL     1      -7.894   7.852  65.168  1.00  0.00    -0.099 OA 
HETATM   44  H1  UNL     1     -10.124   6.898  65.337  1.00  0.00     0.000 HD 
ENDBRANCH   5  40
ENDBRANCH   2   3
TORSDOF 9
ENDMDL
MODEL       79
REMARK 921   NORMALIZED FREE ENERGY PREDICTED BY IDOCK:   -3.71 KCAL/MOL
REMARK 922        TOTAL FREE ENERGY PREDICTED BY IDOCK:   -7.80 KCAL/MOL
REMARK 923 INTER-LIGAND FREE ENERGY PREDICTED BY IDOCK:   -6.62 KCAL/MOL
REMARK 924 INTRA-LIGAND FREE ENERGY PREDICTED BY IDOCK:   -1.18 KCAL/MOL
REMARK 927      BINDING AFFINITY PREDICTED BY RF-SCORE:    0.00 PKD
ROOT
HETATM    1  C   UNL     1      -5.597   7.353  62.335  1.00  0.00    -0.046 C  
HETATM    2  C   UNL     1      -6.677   6.561  63.069  1.00  0.00    -0.042 C  
ENDROOT
BRANCH   2   3
HETATM    3  C   UNL     1      -6.923   7.029  64.464  1.00  0.00    -0.051 A  
HETATM    4  C   UNL     1      -8.055   6.675  65.253  1.00  0.00    -0.130 A  
HETATM    5  C   UNL     1      -6.468   8.778  65.810  1.00  0.00    -0.057 A  
HETATM    6  N   UNL     1      -8.266   7.318  66.450  1.00  0.00    -0.115 NA 
HETATM    7  N   UNL     1      -6.070   8.012  64.778  1.00  0.00    -0.048 NA 
HETATM    8  C   UNL     1      -7.422   8.378  66.763  1.00  0.00    -0.083 A  
BRANCH   4   9
HETATM    9  N   UNL     1      -8.819   5.635  64.758  1.00  0.00    -0.358 NA 
HETATM   10  H   UNL     1      -8.762   5.624  63.739  1.00  0.00     0.000 HD 
BRANCH   9  11
HETATM   11  C   UNL     1      -9.683   4.543  65.216  1.00  0.00    -0.172 C  
HETATM   12  O   UNL     1      -9.218   1.724  65.384  1.00  0.00    -0.113 OA 
HETATM   13  C   UNL     1      -9.116   2.366  64.114  1.00  0.00    -0.111 C  
HETATM   14  C   UNL     1      -9.423   3.863  66.549  1.00  0.00    -0.211 C  
HETATM   15  C   UNL     1     -10.026   3.572  64.092  1.00  0.00    -0.188 C  
HETATM   16  C   UNL     1      -8.692   2.534  66.435  1.00  0.00    -0.123 C  
ENDBRANCH   9  11
ENDBRANCH   4   9
BRANCH   8  17
HETATM   17  N   UNL     1      -7.418   8.973  68.063  1.00  0.00    -0.084 NA 
HETATM   18  H   UNL     1      -7.126   8.366  68.829  1.00  0.00     0.000 HD 
BRANCH  17  19
HETATM   19  C   UNL     1      -7.771  10.306  68.429  1.00  0.00    -0.093 A  
HETATM   20  C   UNL     1      -8.882  10.921  67.855  1.00  0.00    -0.134 A  
HETATM   21  C   UNL     1      -9.038  12.324  67.898  1.00  0.00    -0.190 A  
HETATM   22  C   UNL     1      -8.082  13.180  68.481  1.00  0.00    -0.087 A  
HETATM   23  C   UNL     1      -7.028  12.546  69.175  1.00  0.00    -0.025 A  
HETATM   24  C   UNL     1      -6.915  11.135  69.182  1.00  0.00    -0.108 A  
BRANCH  22  25
HETATM   25  N   UNL     1      -8.173  14.550  68.244  1.00  0.00    -0.141 NA 
HETATM   26  C   UNL     1      -7.476  15.177  67.116  1.00  0.00    -0.141 C  
HETATM   27  C   UNL     1      -8.569  15.469  69.311  1.00  0.00    -0.263 C  
HETATM   28  C   UNL     1      -9.481  16.546  68.721  1.00  0.00    -0.246 C  
HETATM   29  C   UNL     1      -8.381  16.261  66.522  1.00  0.00    -0.343 C  
HETATM   30  C   UNL     1      -8.787  17.329  67.569  1.00  0.00    -0.218 C  
BRANCH  30  31
HETATM   31  N   UNL     1      -7.647  18.169  68.035  1.00  0.00    -0.236 NA 
HETATM   32  C   UNL     1      -6.524  18.236  67.067  1.00  0.00    -0.178 C  
HETATM   33  C   UNL     1      -6.806  19.097  65.810  1.00  0.00    -0.276 C  
HETATM   34  N   UNL     1      -7.232  20.481  66.102  1.00  0.00    -0.197 NA 
HETATM   35  C   UNL     1      -6.105  21.296  66.561  1.00  0.00    -0.300 C  
HETATM   36  C   UNL     1      -8.317  20.457  67.105  1.00  0.00    -0.318 C  
HETATM   37  C   UNL     1      -8.033  19.569  68.344  1.00  0.00    -0.339 C  
ENDBRANCH  30  31
ENDBRANCH  22  25
BRANCH  23  38
HETATM   38  O   UNL     1      -6.144  13.349  69.866  1.00  0.00    -0.123 OA 
HETATM   39  C   UNL     1      -5.412  12.720  70.912  1.00  0.00    -0.173 C  
ENDBRANCH  23  38
ENDBRANCH  17  19
ENDBRANCH   8  17
BRANCH   5  40
HETATM   40  C   UNL     1      -6.219  10.223  65.489  1.00  0.00    -0.114 C  
HETATM   41  H2  UNL     1      -8.088  10.633  64.958  1.00  0.00     0.000 HD 
HETATM   42  N   UNL     1      -7.138  10.765  64.611  1.00  0.00    -0.340 N  
HETATM   43  O   UNL     1      -5.403  10.928  66.060  1.00  0.00    -0.102 OA 
HETATM   44  H1  UNL     1      -6.970  11.748  64.392  1.00  0.00     0.000 HD 
ENDBRANCH   5  40
ENDBRANCH   2   3
TORSDOF 9
ENDMDL
MODEL       80
REMARK 921   NORMALIZED FREE ENERGY PREDICTED BY IDOCK:   -3.66 KCAL/MOL
REMARK 922        TOTAL FREE ENERGY PREDICTED BY IDOCK:   -7.72 KCAL/MOL
REMARK 923 INTER-LIGAND FREE ENERGY PREDICTED BY IDOCK:   -6.38 KCAL/MOL
REMARK 924 INTRA-LIGAND FREE ENERGY PREDICTED BY IDOCK:   -1.34 KCAL/MOL
REMARK 927      BINDING AFFINITY PREDICTED BY RF-SCORE:    0.00 PKD
ROOT
HETATM    1  C   UNL     1      -6.042   7.016  62.331  1.00  0.00    -0.045 C  
HETATM    2  C   UNL     1      -7.220   6.156  62.783  1.00  0.00    -0.054 C  
ENDROOT
BRANCH   2   3
HETATM    3  C   UNL     1      -7.703   6.471  64.159  1.00  0.00    -0.105 A  
HETATM    4  C   UNL     1      -8.715   5.745  64.852  1.00  0.00     0.005 A  
HETATM    5  C   UNL     1      -7.934   8.225  65.554  1.00  0.00    -0.120 A  
HETATM    6  N   UNL     1      -9.207   6.244  66.034  1.00  0.00    -0.124 NA 
HETATM    7  N   UNL     1      -7.237   7.663  64.548  1.00  0.00    -0.072 NA 
HETATM    8  C   UNL     1      -8.774   7.507  66.424  1.00  0.00    -0.145 A  
BRANCH   4   9
HETATM    9  N   UNL     1      -9.065   4.534  64.287  1.00  0.00    -0.168 NA 
HETATM   10  H   UNL     1      -9.780   4.682  63.575  1.00  0.00     0.000 HD 
BRANCH   9  11
HETATM   11  C   UNL     1      -8.744   3.106  64.375  1.00  0.00    -0.095 C  
HETATM   12  O   UNL     1      -7.104   1.658  66.221  1.00  0.00    -0.048 OA 
HETATM   13  C   UNL     1      -6.516   2.703  65.447  1.00  0.00    -0.027 C  
HETATM   14  C   UNL     1      -9.355   2.246  65.469  1.00  0.00     0.019 C  
HETATM   15  C   UNL     1      -7.263   2.833  64.139  1.00  0.00    -0.057 C  
HETATM   16  C   UNL     1      -8.426   1.989  66.646  1.00  0.00    -0.100 C  
ENDBRANCH   9  11
ENDBRANCH   4   9
BRANCH   8  17
HETATM   17  N   UNL     1      -9.056   8.026  67.727  1.00  0.00    -0.131 NA 
HETATM   18  H   UNL     1      -9.063   7.344  68.484  1.00  0.00     0.000 HD 
BRANCH  17  19
HETATM   19  C   UNL     1      -9.327   9.375  68.103  1.00  0.00    -0.133 A  
HETATM   20  C   UNL     1     -10.544   9.967  67.768  1.00  0.00    -0.313 A  
HETATM   21  C   UNL     1     -10.697  11.370  67.784  1.00  0.00    -0.254 A  
HETATM   22  C   UNL     1      -9.641  12.249  68.098  1.00  0.00    -0.213 A  
HETATM   23  C   UNL     1      -8.454  11.644  68.565  1.00  0.00    -0.135 A  
HETATM   24  C   UNL     1      -8.331  10.235  68.608  1.00  0.00    -0.122 A  
BRANCH  22  25
HETATM   25  N   UNL     1      -9.794  13.607  67.829  1.00  0.00    -0.226 NA 
HETATM   26  C   UNL     1      -9.084  14.249  66.717  1.00  0.00    -0.249 C  
HETATM   27  C   UNL     1     -10.283  14.524  68.858  1.00  0.00    -0.229 C  
HETATM   28  C   UNL     1     -11.224  15.540  68.208  1.00  0.00    -0.343 C  
HETATM   29  C   UNL     1     -10.018  15.271  66.063  1.00  0.00    -0.344 C  
HETATM   30  C   UNL     1     -10.524  16.336  67.070  1.00  0.00    -0.306 C  
BRANCH  30  31
HETATM   31  N   UNL     1      -9.450  17.244  67.563  1.00  0.00    -0.243 NA 
HETATM   32  C   UNL     1      -8.753  17.985  66.482  1.00  0.00    -0.260 C  
HETATM   33  C   UNL     1      -9.588  19.120  65.837  1.00  0.00    -0.010 C  
HETATM   34  N   UNL     1     -10.112  20.112  66.796  1.00  0.00    -0.454 NA 
HETATM   35  C   UNL     1      -9.048  20.997  67.277  1.00  0.00     0.029 C  
HETATM   36  C   UNL     1     -10.768  19.409  67.918  1.00  0.00    -0.310 C  
HETATM   37  C   UNL     1      -9.934  18.257  68.536  1.00  0.00    -0.393 C  
ENDBRANCH  30  31
ENDBRANCH  22  25
BRANCH  23  38
HETATM   38  O   UNL     1      -7.443  12.475  69.004  1.00  0.00    -0.040 OA 
HETATM   39  C   UNL     1      -6.228  12.429  68.264  1.00  0.00    -0.056 C  
ENDBRANCH  23  38
ENDBRANCH  17  19
ENDBRANCH   8  17
BRANCH   5  40
HETATM   40  C   UNL     1      -8.142   9.684  65.268  1.00  0.00    -0.125 C  
HETATM   41  H2  UNL     1      -6.237  10.082  64.871  1.00  0.00     0.000 HD 
HETATM   42  N   UNL     1      -7.005  10.452  65.432  1.00  0.00    -0.201 N  
HETATM   43  O   UNL     1      -9.152  10.154  64.770  1.00  0.00    -0.184 OA 
HETATM   44  H1  UNL     1      -7.146  11.444  65.237  1.00  0.00     0.000 HD 
ENDBRANCH   5  40
ENDBRANCH   2   3
TORSDOF 9
ENDMDL
MODEL       81
REMARK 921   NORMALIZED FREE ENERGY PREDICTED BY IDOCK:   -3.63 KCAL/MOL
REMARK 922        TOTAL FREE ENERGY PREDICTED BY IDOCK:   -7.67 KCAL/MOL
REMARK 923 INTER-LIGAND FREE ENERGY PREDICTED BY IDOCK:   -6.87 KCAL/MOL
REMARK 924 INTRA-LIGAND FREE ENERGY PREDICTED BY IDOCK:   -0.80 KCAL/MOL
REMARK 927      BINDING AFFINITY PREDICTED BY RF-SCORE:    0.00 PKD
ROOT
HETATM    1  C   UNL     1      -8.482   3.982  73.741  1.00  0.00    -0.092 C  
HETATM    2  C   UNL     1      -8.683   3.294  72.392  1.00  0.00    -0.101 C  
ENDROOT
BRANCH   2   3
HETATM    3  C   UNL     1      -8.626   4.225  71.228  1.00  0.00    -0.101 A  
HETATM    4  C   UNL     1      -9.608   5.212  70.926  1.00  0.00    -0.175 A  
HETATM    5  C   UNL     1      -7.806   4.328  69.131  1.00  0.00    -0.057 A  
HETATM    6  N   UNL     1      -9.544   5.879  69.726  1.00  0.00    -0.150 NA 
HETATM    7  N   UNL     1      -7.665   3.842  70.378  1.00  0.00    -0.048 NA 
HETATM    8  C   UNL     1      -8.586   5.454  68.811  1.00  0.00    -0.098 A  
BRANCH   4   9
HETATM    9  N   UNL     1     -10.521   5.464  71.933  1.00  0.00    -0.219 NA 
HETATM   10  H   UNL     1     -10.854   4.583  72.322  1.00  0.00     0.000 HD 
BRANCH   9  11
HETATM   11  C   UNL     1     -11.165   6.584  72.627  1.00  0.00    -0.249 C  
HETATM   12  O   UNL     1     -11.746   9.248  71.757  1.00  0.00    -0.359 OA 
HETATM   13  C   UNL     1     -10.390   8.803  71.759  1.00  0.00    -0.343 C  
HETATM   14  C   UNL     1     -12.578   7.005  72.260  1.00  0.00    -0.047 C  
HETATM   15  C   UNL     1     -10.213   7.756  72.834  1.00  0.00    -0.377 C  
HETATM   16  C   UNL     1     -12.645   8.219  71.345  1.00  0.00    -0.275 C  
ENDBRANCH   9  11
ENDBRANCH   4   9
BRANCH   8  17
HETATM   17  N   UNL     1      -8.294   6.206  67.630  1.00  0.00    -0.112 NA 
HETATM   18  H   UNL     1      -8.198   5.664  66.771  1.00  0.00     0.000 HD 
BRANCH  17  19
HETATM   19  C   UNL     1      -8.120   7.616  67.497  1.00  0.00    -0.120 A  
HETATM   20  C   UNL     1      -7.965   8.413  68.630  1.00  0.00    -0.121 A  
HETATM   21  C   UNL     1      -8.167   9.809  68.567  1.00  0.00    -0.106 A  
HETATM   22  C   UNL     1      -8.567  10.470  67.388  1.00  0.00    -0.122 A  
HETATM   23  C   UNL     1      -8.592   9.680  66.217  1.00  0.00    -0.127 A  
HETATM   24  C   UNL     1      -8.324   8.292  66.278  1.00  0.00    -0.124 A  
BRANCH  22  25
HETATM   25  N   UNL     1      -9.006  11.789  67.472  1.00  0.00    -0.163 NA 
HETATM   26  C   UNL     1      -8.157  12.905  67.040  1.00  0.00    -0.049 C  
HETATM   27  C   UNL     1     -10.096  12.158  68.375  1.00  0.00    -0.209 C  
HETATM   28  C   UNL     1     -10.981  13.195  67.681  1.00  0.00    -0.282 C  
HETATM   29  C   UNL     1      -9.037  13.950  66.348  1.00  0.00    -0.105 C  
HETATM   30  C   UNL     1     -10.178  14.461  67.264  1.00  0.00    -0.252 C  
BRANCH  30  31
HETATM   31  N   UNL     1      -9.694  15.258  68.427  1.00  0.00    -0.209 NA 
HETATM   32  C   UNL     1      -8.256  15.618  68.345  1.00  0.00    -0.146 C  
HETATM   33  C   UNL     1      -7.925  16.713  67.299  1.00  0.00    -0.167 C  
HETATM   34  N   UNL     1      -8.695  17.963  67.461  1.00  0.00    -0.242 NA 
HETATM   35  C   UNL     1      -8.213  18.736  68.608  1.00  0.00    -0.329 C  
HETATM   36  C   UNL     1     -10.129  17.640  67.601  1.00  0.00    -0.339 C  
HETATM   37  C   UNL     1     -10.444  16.523  68.630  1.00  0.00    -0.304 C  
ENDBRANCH  30  31
ENDBRANCH  22  25
BRANCH  23  38
HETATM   38  O   UNL     1      -8.853  10.318  65.022  1.00  0.00    -0.166 OA 
HETATM   39  C   UNL     1     -10.220  10.381  64.630  1.00  0.00    -0.235 C  
ENDBRANCH  23  38
ENDBRANCH  17  19
ENDBRANCH   8  17
BRANCH   5  40
HETATM   40  C   UNL     1      -7.527   3.242  68.134  1.00  0.00    -0.053 C  
HETATM   41  H2  UNL     1      -5.969   4.139  67.293  1.00  0.00     0.000 HD 
HETATM   42  N   UNL     1      -6.833   3.672  67.019  1.00  0.00    -0.050 N  
HETATM   43  O   UNL     1      -7.723   2.053  68.333  1.00  0.00    -0.053 OA 
HETATM   44  H1  UNL     1      -6.643   2.933  66.341  1.00  0.00     0.000 HD 
ENDBRANCH   5  40
ENDBRANCH   2   3
TORSDOF 9
ENDMDL
MODEL       82
REMARK 921   NORMALIZED FREE ENERGY PREDICTED BY IDOCK:   -3.61 KCAL/MOL
REMARK 922        TOTAL FREE ENERGY PREDICTED BY IDOCK:   -7.65 KCAL/MOL
REMARK 923 INTER-LIGAND FREE ENERGY PREDICTED BY IDOCK:   -5.94 KCAL/MOL
REMARK 924 INTRA-LIGAND FREE ENERGY PREDICTED BY IDOCK:   -1.71 KCAL/MOL
REMARK 927      BINDING AFFINITY PREDICTED BY RF-SCORE:    0.00 PKD
ROOT
HETATM    1  C   UNL     1     -10.871  17.605  65.446  1.00  0.00     0.104 C  
HETATM    2  C   UNL     1     -10.407  17.126  66.819  1.00  0.00    -0.302 C  
ENDROOT
BRANCH   2   3
HETATM    3  C   UNL     1      -9.397  16.030  66.765  1.00  0.00    -0.238 A  
HETATM    4  C   UNL     1      -9.705  14.647  66.604  1.00  0.00    -0.270 A  
HETATM    5  C   UNL     1      -7.336  15.534  67.528  1.00  0.00    -0.189 A  
HETATM    6  N   UNL     1      -8.706  13.715  66.759  1.00  0.00    -0.143 NA 
HETATM    7  N   UNL     1      -8.196  16.491  67.134  1.00  0.00    -0.168 NA 
HETATM    8  C   UNL     1      -7.468  14.174  67.196  1.00  0.00     0.110 A  
BRANCH   4   9
HETATM    9  N   UNL     1     -11.004  14.372  66.224  1.00  0.00    -0.313 NA 
HETATM   10  H   UNL     1     -11.530  15.242  66.145  1.00  0.00     0.000 HD 
BRANCH   9  11
HETATM   11  C   UNL     1     -11.875  13.238  65.896  1.00  0.00    -0.393 C  
HETATM   12  O   UNL     1     -12.270  11.820  63.441  1.00  0.00    -0.511 OA 
HETATM   13  C   UNL     1     -12.533  13.223  63.479  1.00  0.00    -0.248 C  
HETATM   14  C   UNL     1     -11.288  11.854  65.680  1.00  0.00    -0.339 C  
HETATM   15  C   UNL     1     -12.947  13.613  64.879  1.00  0.00    -0.131 C  
HETATM   16  C   UNL     1     -11.123  11.473  64.216  1.00  0.00    -0.315 C  
ENDBRANCH   9  11
ENDBRANCH   4   9
BRANCH   8  17
HETATM   17  N   UNL     1      -6.312  13.331  67.188  1.00  0.00    -0.461 NA 
HETATM   18  H   UNL     1      -5.415  13.806  67.282  1.00  0.00     0.000 HD 
BRANCH  17  19
HETATM   19  C   UNL     1      -6.253  11.910  67.066  1.00  0.00    -0.145 A  
HETATM   20  C   UNL     1      -5.511  11.324  66.041  1.00  0.00    -0.065 A  
HETATM   21  C   UNL     1      -5.729   9.981  65.665  1.00  0.00    -0.067 A  
HETATM   22  C   UNL     1      -6.716   9.171  66.264  1.00  0.00    -0.071 A  
HETATM   23  C   UNL     1      -7.370   9.725  67.386  1.00  0.00    -0.090 A  
HETATM   24  C   UNL     1      -7.098  11.052  67.797  1.00  0.00    -0.086 A  
BRANCH  22  25
HETATM   25  N   UNL     1      -7.050   7.962  65.659  1.00  0.00    -0.056 NA 
HETATM   26  C   UNL     1      -8.083   7.889  64.620  1.00  0.00    -0.125 C  
HETATM   27  C   UNL     1      -6.741   6.689  66.310  1.00  0.00    -0.049 C  
HETATM   28  C   UNL     1      -6.282   5.690  65.247  1.00  0.00    -0.030 C  
HETATM   29  C   UNL     1      -7.633   6.886  63.553  1.00  0.00    -0.101 C  
HETATM   30  C   UNL     1      -7.359   5.479  64.144  1.00  0.00    -0.058 C  
BRANCH  30  31
HETATM   31  N   UNL     1      -8.585   4.795  64.643  1.00  0.00    -0.142 NA 
HETATM   32  C   UNL     1      -9.615   4.579  63.596  1.00  0.00     0.052 C  
HETATM   33  C   UNL     1      -9.267   3.473  62.568  1.00  0.00    -0.090 C  
HETATM   34  N   UNL     1      -8.952   2.161  63.168  1.00  0.00    -0.088 NA 
HETATM   35  C   UNL     1     -10.164   1.499  63.658  1.00  0.00    -0.118 C  
HETATM   36  C   UNL     1      -7.967   2.343  64.254  1.00  0.00    -0.077 C  
HETATM   37  C   UNL     1      -8.314   3.472  65.259  1.00  0.00    -0.098 C  
ENDBRANCH  30  31
ENDBRANCH  22  25
BRANCH  23  38
HETATM   38  O   UNL     1      -8.250   8.917  68.076  1.00  0.00    -0.109 OA 
HETATM   39  C   UNL     1      -9.634   9.184  67.878  1.00  0.00    -0.146 C  
ENDBRANCH  23  38
ENDBRANCH  17  19
ENDBRANCH   8  17
BRANCH   5  40
HETATM   40  C   UNL     1      -6.614  15.986  68.764  1.00  0.00    -0.126 C  
HETATM   41  H2  UNL     1      -8.192  16.841  69.614  1.00  0.00     0.000 HD 
HETATM   42  N   UNL     1      -7.217  17.053  69.404  1.00  0.00    -0.154 N  
HETATM   43  O   UNL     1      -5.685  15.387  69.281  1.00  0.00    -0.096 OA 
HETATM   44  H1  UNL     1      -6.727  17.361  70.244  1.00  0.00     0.000 HD 
ENDBRANCH   5  40
ENDBRANCH   2   3
TORSDOF 9
ENDMDL
MODEL       83
REMARK 921   NORMALIZED FREE ENERGY PREDICTED BY IDOCK:   -3.52 KCAL/MOL
REMARK 922        TOTAL FREE ENERGY PREDICTED BY IDOCK:   -7.51 KCAL/MOL
REMARK 923 INTER-LIGAND FREE ENERGY PREDICTED BY IDOCK:   -7.14 KCAL/MOL
REMARK 924 INTRA-LIGAND FREE ENERGY PREDICTED BY IDOCK:   -0.36 KCAL/MOL
REMARK 927      BINDING AFFINITY PREDICTED BY RF-SCORE:    0.00 PKD
ROOT
HETATM    1  C   UNL     1     -12.472   8.478  72.127  1.00  0.00    -0.437 C  
HETATM    2  C   UNL     1     -11.225   7.643  72.409  1.00  0.00    -0.372 C  
ENDROOT
BRANCH   2   3
HETATM    3  C   UNL     1      -9.954   8.295  71.978  1.00  0.00    -0.257 A  
HETATM    4  C   UNL     1      -9.624   8.625  70.631  1.00  0.00    -0.186 A  
HETATM    5  C   UNL     1      -7.794   8.459  72.600  1.00  0.00    -0.085 A  
HETATM    6  N   UNL     1      -8.350   9.047  70.337  1.00  0.00    -0.145 NA 
HETATM    7  N   UNL     1      -9.074   8.299  72.986  1.00  0.00    -0.261 NA 
HETATM    8  C   UNL     1      -7.410   9.004  71.362  1.00  0.00    -0.036 A  
BRANCH   4   9
HETATM    9  N   UNL     1     -10.672   8.556  69.733  1.00  0.00    -0.250 NA 
HETATM   10  H   UNL     1     -11.449   8.045  70.152  1.00  0.00     0.000 HD 
BRANCH   9  11
HETATM   11  C   UNL     1     -11.033   8.976  68.375  1.00  0.00     0.090 C  
HETATM   12  O   UNL     1      -9.725  10.748  66.548  1.00  0.00    -0.186 OA 
HETATM   13  C   UNL     1     -10.132  11.247  67.821  1.00  0.00    -0.179 C  
HETATM   14  C   UNL     1     -10.264   8.448  67.176  1.00  0.00    -0.362 C  
HETATM   15  C   UNL     1     -11.337  10.468  68.298  1.00  0.00    -0.332 C  
HETATM   16  C   UNL     1      -9.222   9.415  66.633  1.00  0.00    -0.153 C  
ENDBRANCH   9  11
ENDBRANCH   4   9
BRANCH   8  17
HETATM   17  N   UNL     1      -6.123   9.612  71.223  1.00  0.00    -0.191 NA 
HETATM   18  H   UNL     1      -5.348   9.117  71.663  1.00  0.00     0.000 HD 
BRANCH  17  19
HETATM   19  C   UNL     1      -5.784  10.823  70.549  1.00  0.00    -0.120 A  
HETATM   20  C   UNL     1      -5.450  11.963  71.279  1.00  0.00     0.043 A  
HETATM   21  C   UNL     1      -5.480  13.242  70.681  1.00  0.00    -0.165 A  
HETATM   22  C   UNL     1      -5.878  13.450  69.345  1.00  0.00    -0.093 A  
HETATM   23  C   UNL     1      -6.086  12.284  68.575  1.00  0.00    -0.055 A  
HETATM   24  C   UNL     1      -5.989  11.002  69.167  1.00  0.00    -0.043 A  
BRANCH  22  25
HETATM   25  N   UNL     1      -6.142  14.749  68.916  1.00  0.00    -0.081 NA 
HETATM   26  C   UNL     1      -5.416  15.897  69.471  1.00  0.00    -0.116 C  
HETATM   27  C   UNL     1      -7.407  15.078  68.261  1.00  0.00    -0.111 C  
HETATM   28  C   UNL     1      -7.133  16.067  67.127  1.00  0.00    -0.248 C  
HETATM   29  C   UNL     1      -5.142  16.895  68.342  1.00  0.00    -0.118 C  
HETATM   30  C   UNL     1      -6.442  17.363  67.639  1.00  0.00    -0.150 C  
BRANCH  30  31
HETATM   31  N   UNL     1      -7.322  18.192  68.511  1.00  0.00    -0.270 NA 
HETATM   32  C   UNL     1      -7.444  19.603  68.064  1.00  0.00    -0.295 C  
HETATM   33  C   UNL     1      -8.305  19.804  66.792  1.00  0.00    -0.319 C  
HETATM   34  N   UNL     1      -9.668  19.241  66.883  1.00  0.00    -0.315 NA 
HETATM   35  C   UNL     1     -10.523  20.061  67.744  1.00  0.00    -0.318 C  
HETATM   36  C   UNL     1      -9.590  17.851  67.378  1.00  0.00    -0.271 C  
HETATM   37  C   UNL     1      -8.702  17.659  68.634  1.00  0.00    -0.266 C  
ENDBRANCH  30  31
ENDBRANCH  22  25
BRANCH  23  38
HETATM   38  O   UNL     1      -6.351  12.446  67.230  1.00  0.00    -0.149 OA 
HETATM   39  C   UNL     1      -6.138  11.304  66.408  1.00  0.00    -0.117 C  
ENDBRANCH  23  38
ENDBRANCH  17  19
ENDBRANCH   8  17
BRANCH   5  40
HETATM   40  C   UNL     1      -6.918   7.505  73.358  1.00  0.00    -0.072 C  
HETATM   41  H2  UNL     1      -8.401   6.563  74.282  1.00  0.00     0.000 HD 
HETATM   42  N   UNL     1      -7.504   6.996  74.501  1.00  0.00    -0.112 N  
HETATM   43  O   UNL     1      -5.857   7.063  72.945  1.00  0.00    -0.042 OA 
HETATM   44  H1  UNL     1      -6.909   6.347  75.016  1.00  0.00     0.000 HD 
ENDBRANCH   5  40
ENDBRANCH   2   3
TORSDOF 9
ENDMDL
MODEL       84
REMARK 921   NORMALIZED FREE ENERGY PREDICTED BY IDOCK:   -3.49 KCAL/MOL
REMARK 922        TOTAL FREE ENERGY PREDICTED BY IDOCK:   -7.46 KCAL/MOL
REMARK 923 INTER-LIGAND FREE ENERGY PREDICTED BY IDOCK:   -6.42 KCAL/MOL
REMARK 924 INTRA-LIGAND FREE ENERGY PREDICTED BY IDOCK:   -1.04 KCAL/MOL
REMARK 927      BINDING AFFINITY PREDICTED BY RF-SCORE:    0.00 PKD
ROOT
HETATM    1  C   UNL     1     -10.303   5.640  74.521  1.00  0.00    -0.254 C  
HETATM    2  C   UNL     1      -9.646   6.967  74.151  1.00  0.00    -0.298 C  
ENDROOT
BRANCH   2   3
HETATM    3  C   UNL     1      -9.727   7.295  72.698  1.00  0.00    -0.159 A  
HETATM    4  C   UNL     1      -8.740   8.023  71.971  1.00  0.00    -0.147 A  
HETATM    5  C   UNL     1     -11.260   7.672  71.090  1.00  0.00    -0.261 A  
HETATM    6  N   UNL     1      -9.014   8.426  70.686  1.00  0.00    -0.145 NA 
HETATM    7  N   UNL     1     -10.954   7.032  72.234  1.00  0.00    -0.236 NA 
HETATM    8  C   UNL     1     -10.303   8.209  70.211  1.00  0.00    -0.209 A  
BRANCH   4   9
HETATM    9  N   UNL     1      -7.535   8.197  72.625  1.00  0.00    -0.116 NA 
HETATM   10  H   UNL     1      -7.622   8.946  73.311  1.00  0.00     0.000 HD 
BRANCH   9  11
HETATM   11  C   UNL     1      -6.172   7.657  72.655  1.00  0.00    -0.055 C  
HETATM   12  O   UNL     1      -5.208   4.973  72.408  1.00  0.00    -0.007 OA 
HETATM   13  C   UNL     1      -6.114   5.287  73.466  1.00  0.00    -0.047 C  
HETATM   14  C   UNL     1      -5.508   7.170  71.378  1.00  0.00    -0.031 C  
HETATM   15  C   UNL     1      -5.944   6.739  73.850  1.00  0.00    -0.063 C  
HETATM   16  C   UNL     1      -5.540   5.659  71.201  1.00  0.00    -0.013 C  
ENDBRANCH   9  11
ENDBRANCH   4   9
BRANCH   8  17
HETATM   17  N   UNL     1     -10.632   8.394  68.831  1.00  0.00    -0.358 NA 
HETATM   18  H   UNL     1     -11.041   7.588  68.360  1.00  0.00     0.000 HD 
BRANCH  17  19
HETATM   19  C   UNL     1     -10.463   9.562  68.029  1.00  0.00    -0.230 A  
HETATM   20  C   UNL     1      -9.216  10.178  67.939  1.00  0.00    -0.144 A  
HETATM   21  C   UNL     1      -9.094  11.508  67.481  1.00  0.00    -0.166 A  
HETATM   22  C   UNL     1     -10.207  12.297  67.127  1.00  0.00    -0.211 A  
HETATM   23  C   UNL     1     -11.451  11.629  67.092  1.00  0.00    -0.271 A  
HETATM   24  C   UNL     1     -11.553  10.275  67.492  1.00  0.00     0.521 A  
BRANCH  22  25
HETATM   25  N   UNL     1     -10.031  13.667  66.950  1.00  0.00    -0.254 NA 
HETATM   26  C   UNL     1      -8.789  14.210  66.390  1.00  0.00     0.064 C  
HETATM   27  C   UNL     1     -10.840  14.629  67.698  1.00  0.00    -0.284 C  
HETATM   28  C   UNL     1     -11.198  15.795  66.776  1.00  0.00    -0.021 C  
HETATM   29  C   UNL     1      -9.138  15.382  65.468  1.00  0.00     0.350 C  
HETATM   30  C   UNL     1      -9.932  16.493  66.201  1.00  0.00    -0.343 C  
BRANCH  30  31
HETATM   31  N   UNL     1      -9.134  17.207  67.238  1.00  0.00    -0.219 NA 
HETATM   32  C   UNL     1      -7.668  17.121  67.025  1.00  0.00    -0.189 C  
HETATM   33  C   UNL     1      -7.137  17.978  65.849  1.00  0.00    -0.267 C  
HETATM   34  N   UNL     1      -7.497  19.409  65.925  1.00  0.00    -0.332 NA 
HETATM   35  C   UNL     1      -6.710  20.099  66.948  1.00  0.00    -0.223 C  
HETATM   36  C   UNL     1      -8.945  19.534  66.191  1.00  0.00    -0.310 C  
HETATM   37  C   UNL     1      -9.469  18.649  67.351  1.00  0.00    -0.297 C  
ENDBRANCH  30  31
ENDBRANCH  22  25
BRANCH  23  38
HETATM   38  O   UNL     1     -12.542  12.334  66.627  1.00  0.00     0.017 OA 
HETATM   39  C   UNL     1     -12.606  12.533  65.219  1.00  0.00    -0.183 C  
ENDBRANCH  23  38
ENDBRANCH  17  19
ENDBRANCH   8  17
BRANCH   5  40
HETATM   40  C   UNL     1     -12.657   8.214  71.176  1.00  0.00    -0.150 C  
HETATM   41  H2  UNL     1     -12.381   9.681  69.867  1.00  0.00     0.000 HD 
HETATM   42  N   UNL     1     -12.765   9.540  70.801  1.00  0.00    -0.519 N  
HETATM   43  O   UNL     1     -13.651   7.537  71.384  1.00  0.00    -0.362 OA 
HETATM   44  H1  UNL     1     -13.714   9.909  70.859  1.00  0.00     0.000 HD 
ENDBRANCH   5  40
ENDBRANCH   2   3
TORSDOF 9
ENDMDL
MODEL       85
REMARK 921   NORMALIZED FREE ENERGY PREDICTED BY IDOCK:   -3.44 KCAL/MOL
REMARK 922        TOTAL FREE ENERGY PREDICTED BY IDOCK:   -7.39 KCAL/MOL
REMARK 923 INTER-LIGAND FREE ENERGY PREDICTED BY IDOCK:   -6.18 KCAL/MOL
REMARK 924 INTRA-LIGAND FREE ENERGY PREDICTED BY IDOCK:   -1.21 KCAL/MOL
REMARK 927      BINDING AFFINITY PREDICTED BY RF-SCORE:    0.00 PKD
ROOT
HETATM    1  C   UNL     1      -7.464   2.361  69.665  1.00  0.00    -0.043 C  
HETATM    2  C   UNL     1      -8.845   2.688  69.104  1.00  0.00    -0.151 C  
ENDROOT
BRANCH   2   3
HETATM    3  C   UNL     1      -8.862   3.869  68.193  1.00  0.00    -0.110 A  
HETATM    4  C   UNL     1      -9.454   5.128  68.503  1.00  0.00    -0.133 A  
HETATM    5  C   UNL     1      -8.845   4.363  65.995  1.00  0.00    -0.119 A  
HETATM    6  N   UNL     1      -9.572   6.076  67.515  1.00  0.00    -0.112 NA 
HETATM    7  N   UNL     1      -8.467   3.511  66.966  1.00  0.00    -0.102 NA 
HETATM    8  C   UNL     1      -9.219   5.699  66.224  1.00  0.00    -0.156 A  
BRANCH   4   9
HETATM    9  N   UNL     1      -9.800   5.307  69.830  1.00  0.00    -0.191 NA 
HETATM   10  H   UNL     1     -10.217   4.450  70.193  1.00  0.00     0.000 HD 
BRANCH   9  11
HETATM   11  C   UNL     1      -9.762   6.324  70.885  1.00  0.00    -0.176 C  
HETATM   12  O   UNL     1      -8.266   8.755  71.099  1.00  0.00    -0.137 OA 
HETATM   13  C   UNL     1      -7.562   7.521  70.964  1.00  0.00    -0.084 C  
HETATM   14  C   UNL     1     -10.419   7.678  70.672  1.00  0.00    -0.217 C  
HETATM   15  C   UNL     1      -8.396   6.407  71.555  1.00  0.00    -0.125 C  
HETATM   16  C   UNL     1      -9.447   8.786  70.297  1.00  0.00    -0.174 C  
ENDBRANCH   9  11
ENDBRANCH   4   9
BRANCH   8  17
HETATM   17  N   UNL     1      -9.103   6.658  65.170  1.00  0.00    -0.249 NA 
HETATM   18  H   UNL     1      -9.389   6.338  64.244  1.00  0.00     0.000 HD 
BRANCH  17  19
HETATM   19  C   UNL     1      -8.640   8.006  65.245  1.00  0.00    -0.086 A  
HETATM   20  C   UNL     1      -7.466   8.307  65.933  1.00  0.00    -0.081 A  
HETATM   21  C   UNL     1      -7.185   9.628  66.345  1.00  0.00    -0.094 A  
HETATM   22  C   UNL     1      -8.072  10.701  66.124  1.00  0.00    -0.154 A  
HETATM   23  C   UNL     1      -9.193  10.417  65.313  1.00  0.00    -0.199 A  
HETATM   24  C   UNL     1      -9.433   9.101  64.849  1.00  0.00     0.057 A  
BRANCH  22  25
HETATM   25  N   UNL     1      -7.853  11.903  66.792  1.00  0.00    -0.116 NA 
HETATM   26  C   UNL     1      -8.819  13.005  66.717  1.00  0.00    -0.137 C  
HETATM   27  C   UNL     1      -6.506  12.293  67.209  1.00  0.00    -0.152 C  
HETATM   28  C   UNL     1      -6.588  12.955  68.585  1.00  0.00    -0.091 C  
HETATM   29  C   UNL     1      -8.903  13.677  68.090  1.00  0.00    -0.189 C  
HETATM   30  C   UNL     1      -7.527  14.196  68.579  1.00  0.00    -0.123 C  
BRANCH  30  31
HETATM   31  N   UNL     1      -6.997  15.328  67.768  1.00  0.00    -0.148 NA 
HETATM   32  C   UNL     1      -8.035  16.313  67.370  1.00  0.00    -0.155 C  
HETATM   33  C   UNL     1      -8.543  17.214  68.523  1.00  0.00    -0.258 C  
HETATM   34  N   UNL     1      -7.480  17.946  69.240  1.00  0.00    -0.069 NA 
HETATM   35  C   UNL     1      -6.964  19.055  68.432  1.00  0.00    -0.261 C  
HETATM   36  C   UNL     1      -6.400  17.006  69.605  1.00  0.00    -0.215 C  
HETATM   37  C   UNL     1      -5.920  16.090  68.450  1.00  0.00    -0.105 C  
ENDBRANCH  30  31
ENDBRANCH  22  25
BRANCH  23  38
HETATM   38  O   UNL     1     -10.016  11.470  64.968  1.00  0.00    -0.244 OA 
HETATM   39  C   UNL     1     -10.689  11.357  63.720  1.00  0.00    -0.403 C  
ENDBRANCH  23  38
ENDBRANCH  17  19
ENDBRANCH   8  17
BRANCH   5  40
HETATM   40  C   UNL     1      -9.348   3.586  64.813  1.00  0.00    -0.152 C  
HETATM   41  H2  UNL     1     -10.190   5.135  63.899  1.00  0.00     0.000 HD 
HETATM   42  N   UNL     1     -10.418   4.178  64.169  1.00  0.00    -0.438 N  
HETATM   43  O   UNL     1      -8.785   2.615  64.332  1.00  0.00    -0.090 OA 
HETATM   44  H1  UNL     1     -10.760   3.650  63.366  1.00  0.00     0.000 HD 
ENDBRANCH   5  40
ENDBRANCH   2   3
TORSDOF 9
ENDMDL
MODEL       86
REMARK 921   NORMALIZED FREE ENERGY PREDICTED BY IDOCK:   -3.36 KCAL/MOL
REMARK 922        TOTAL FREE ENERGY PREDICTED BY IDOCK:   -7.27 KCAL/MOL
REMARK 923 INTER-LIGAND FREE ENERGY PREDICTED BY IDOCK:   -8.61 KCAL/MOL
REMARK 924 INTRA-LIGAND FREE ENERGY PREDICTED BY IDOCK:    1.34 KCAL/MOL
REMARK 927      BINDING AFFINITY PREDICTED BY RF-SCORE:    0.00 PKD
ROOT
HETATM    1  C   UNL     1     -12.598  14.533  73.071  1.00  0.00    -0.419 C  
HETATM    2  C   UNL     1     -13.441  13.821  72.015  1.00  0.00    -0.559 C  
ENDROOT
BRANCH   2   3
HETATM    3  C   UNL     1     -12.776  12.628  71.416  1.00  0.00    -0.247 A  
HETATM    4  C   UNL     1     -12.209  12.583  70.109  1.00  0.00    -0.234 A  
HETATM    5  C   UNL     1     -12.826  10.378  71.527  1.00  0.00    -0.464 A  
HETATM    6  N   UNL     1     -11.794  11.376  69.599  1.00  0.00    -0.331 NA 
HETATM    7  N   UNL     1     -13.002  11.547  72.171  1.00  0.00    -0.282 NA 
HETATM    8  C   UNL     1     -12.073  10.237  70.347  1.00  0.00    -0.286 A  
BRANCH   4   9
HETATM    9  N   UNL     1     -12.061  13.808  69.487  1.00  0.00    -0.338 NA 
HETATM   10  H   UNL     1     -12.884  14.383  69.663  1.00  0.00     0.000 HD 
BRANCH   9  11
HETATM   11  C   UNL     1     -11.107  14.552  68.659  1.00  0.00    -0.257 C  
HETATM   12  O   UNL     1     -10.064  14.011  66.049  1.00  0.00    -0.295 OA 
HETATM   13  C   UNL     1      -9.854  13.055  67.088  1.00  0.00    -0.230 C  
HETATM   14  C   UNL     1     -11.584  15.325  67.441  1.00  0.00    -0.196 C  
HETATM   15  C   UNL     1      -9.821  13.769  68.419  1.00  0.00    -0.227 C  
HETATM   16  C   UNL     1     -11.362  14.602  66.121  1.00  0.00    -0.350 C  
ENDBRANCH   9  11
ENDBRANCH   4   9
BRANCH   8  17
HETATM   17  N   UNL     1     -11.506   8.967  70.016  1.00  0.00    -0.454 NA 
HETATM   18  H   UNL     1     -11.889   8.165  70.517  1.00  0.00     0.000 HD 
BRANCH  17  19
HETATM   19  C   UNL     1     -10.473   8.676  69.076  1.00  0.00    -0.199 A  
HETATM   20  C   UNL     1     -10.736   8.720  67.708  1.00  0.00    -0.193 A  
HETATM   21  C   UNL     1      -9.877   8.088  66.783  1.00  0.00    -0.327 A  
HETATM   22  C   UNL     1      -8.740   7.353  67.177  1.00  0.00    -0.121 A  
HETATM   23  C   UNL     1      -8.405   7.423  68.547  1.00  0.00    -0.126 A  
HETATM   24  C   UNL     1      -9.238   8.115  69.458  1.00  0.00    -0.158 A  
BRANCH  22  25
HETATM   25  N   UNL     1      -8.107   6.541  66.239  1.00  0.00    -0.111 NA 
HETATM   26  C   UNL     1      -7.450   7.109  65.057  1.00  0.00    -0.093 C  
HETATM   27  C   UNL     1      -8.437   5.119  66.137  1.00  0.00    -0.115 C  
HETATM   28  C   UNL     1      -7.151   4.332  65.876  1.00  0.00    -0.067 C  
HETATM   29  C   UNL     1      -6.164   6.323  64.786  1.00  0.00    -0.030 C  
HETATM   30  C   UNL     1      -6.429   4.809  64.583  1.00  0.00    -0.039 C  
BRANCH  30  31
HETATM   31  N   UNL     1      -7.189   4.501  63.339  1.00  0.00    -0.048 NA 
HETATM   32  C   UNL     1      -6.797   3.217  62.705  1.00  0.00    -0.031 C  
HETATM   33  C   UNL     1      -7.277   1.952  63.459  1.00  0.00    -0.040 C  
HETATM   34  N   UNL     1      -8.733   1.906  63.707  1.00  0.00    -0.087 NA 
HETATM   35  C   UNL     1      -9.470   1.605  62.478  1.00  0.00    -0.089 C  
HETATM   36  C   UNL     1      -9.170   3.190  64.291  1.00  0.00    -0.131 C  
HETATM   37  C   UNL     1      -8.659   4.449  63.543  1.00  0.00    -0.115 C  
ENDBRANCH  30  31
ENDBRANCH  22  25
BRANCH  23  38
HETATM   38  O   UNL     1      -7.229   6.823  68.948  1.00  0.00    -0.086 OA 
HETATM   39  C   UNL     1      -7.342   5.852  69.983  1.00  0.00    -0.074 C  
ENDBRANCH  23  38
ENDBRANCH  17  19
ENDBRANCH   8  17
BRANCH   5  40
HETATM   40  C   UNL     1     -13.945   9.440  71.875  1.00  0.00    -0.234 C  
HETATM   41  H2  UNL     1     -13.517   8.093  70.480  1.00  0.00     0.000 HD 
HETATM   42  N   UNL     1     -14.321   8.609  70.837  1.00  0.00    -0.549 N  
HETATM   43  O   UNL     1     -14.385   9.276  73.002  1.00  0.00    -0.382 OA 
HETATM   44  H1  UNL     1     -15.081   7.971  71.073  1.00  0.00     0.000 HD 
ENDBRANCH   5  40
ENDBRANCH   2   3
TORSDOF 9
ENDMDL
MODEL       87
REMARK 921   NORMALIZED FREE ENERGY PREDICTED BY IDOCK:   -3.34 KCAL/MOL
REMARK 922        TOTAL FREE ENERGY PREDICTED BY IDOCK:   -7.24 KCAL/MOL
REMARK 923 INTER-LIGAND FREE ENERGY PREDICTED BY IDOCK:   -6.06 KCAL/MOL
REMARK 924 INTRA-LIGAND FREE ENERGY PREDICTED BY IDOCK:   -1.18 KCAL/MOL
REMARK 927      BINDING AFFINITY PREDICTED BY RF-SCORE:    0.00 PKD
ROOT
HETATM    1  C   UNL     1      -7.378   5.031  62.330  1.00  0.00    -0.038 C  
HETATM    2  C   UNL     1      -6.995   5.100  63.807  1.00  0.00    -0.047 C  
ENDROOT
BRANCH   2   3
HETATM    3  C   UNL     1      -6.825   6.491  64.320  1.00  0.00    -0.042 A  
HETATM    4  C   UNL     1      -6.873   6.862  65.695  1.00  0.00    -0.052 A  
HETATM    5  C   UNL     1      -7.152   8.626  63.680  1.00  0.00    -0.089 A  
HETATM    6  N   UNL     1      -6.892   8.195  66.029  1.00  0.00    -0.057 NA 
HETATM    7  N   UNL     1      -6.868   7.364  63.307  1.00  0.00    -0.053 NA 
HETATM    8  C   UNL     1      -6.994   9.113  64.989  1.00  0.00    -0.081 A  
BRANCH   4   9
HETATM    9  N   UNL     1      -6.822   5.812  66.592  1.00  0.00    -0.058 NA 
HETATM   10  H   UNL     1      -5.879   5.425  66.614  1.00  0.00     0.000 HD 
BRANCH   9  11
HETATM   11  C   UNL     1      -7.680   5.073  67.524  1.00  0.00    -0.091 C  
HETATM   12  O   UNL     1      -9.979   5.896  69.017  1.00  0.00    -0.146 OA 
HETATM   13  C   UNL     1      -8.742   6.577  69.223  1.00  0.00    -0.130 C  
HETATM   14  C   UNL     1      -9.081   4.653  67.113  1.00  0.00    -0.129 C  
HETATM   15  C   UNL     1      -7.600   5.628  68.942  1.00  0.00    -0.088 C  
HETATM   16  C   UNL     1     -10.180   5.561  67.644  1.00  0.00    -0.193 C  
ENDBRANCH   9  11
ENDBRANCH   4   9
BRANCH   8  17
HETATM   17  N   UNL     1      -6.810  10.514  65.207  1.00  0.00    -0.292 NA 
HETATM   18  H   UNL     1      -5.956  10.916  64.820  1.00  0.00     0.000 HD 
BRANCH  17  19
HETATM   19  C   UNL     1      -7.667  11.424  65.896  1.00  0.00     0.242 A  
HETATM   20  C   UNL     1      -7.319  11.896  67.160  1.00  0.00    -0.142 A  
HETATM   21  C   UNL     1      -8.286  12.476  68.010  1.00  0.00    -0.166 A  
HETATM   22  C   UNL     1      -9.647  12.579  67.658  1.00  0.00    -0.190 A  
HETATM   23  C   UNL     1      -9.969  12.222  66.330  1.00  0.00    -0.232 A  
HETATM   24  C   UNL     1      -8.978  11.702  65.463  1.00  0.00     0.033 A  
BRANCH  22  25
HETATM   25  N   UNL     1     -10.574  12.906  68.645  1.00  0.00    -0.249 NA 
HETATM   26  C   UNL     1     -10.669  14.269  69.180  1.00  0.00    -0.220 C  
HETATM   27  C   UNL     1     -11.162  11.870  69.493  1.00  0.00    -0.166 C  
HETATM   28  C   UNL     1     -12.639  12.196  69.718  1.00  0.00     0.219 C  
HETATM   29  C   UNL     1     -12.145  14.602  69.412  1.00  0.00    -0.317 C  
HETATM   30  C   UNL     1     -12.834  13.596  70.369  1.00  0.00    -0.042 C  
BRANCH  30  31
HETATM   31  N   UNL     1     -12.327  13.666  71.769  1.00  0.00    -0.105 NA 
HETATM   32  C   UNL     1     -11.305  14.721  71.980  1.00  0.00     0.197 C  
HETATM   33  C   UNL     1     -11.860  16.167  71.977  1.00  0.00    -0.530 C  
HETATM   34  N   UNL     1     -12.955  16.402  72.941  1.00  0.00    -0.184 NA 
HETATM   35  C   UNL     1     -12.447  16.467  74.313  1.00  0.00    -0.429 C  
HETATM   36  C   UNL     1     -13.969  15.338  72.797  1.00  0.00    -0.377 C  
HETATM   37  C   UNL     1     -13.397  13.897  72.773  1.00  0.00    -0.462 C  
ENDBRANCH  30  31
ENDBRANCH  22  25
BRANCH  23  38
HETATM   38  O   UNL     1     -11.266  12.430  65.909  1.00  0.00    -0.306 OA 
HETATM   39  C   UNL     1     -11.558  12.058  64.567  1.00  0.00    -0.317 C  
ENDBRANCH  23  38
ENDBRANCH  17  19
ENDBRANCH   8  17
BRANCH   5  40
HETATM   40  C   UNL     1      -8.145   9.220  62.723  1.00  0.00    -0.152 C  
HETATM   41  H2  UNL     1      -9.628   7.982  63.180  1.00  0.00     0.000 HD 
HETATM   42  N   UNL     1      -9.155   8.352  62.356  1.00  0.00    -0.430 N  
HETATM   43  O   UNL     1      -8.187  10.401  62.415  1.00  0.00    -0.148 OA 
HETATM   44  H1  UNL     1      -9.830   8.756  61.706  1.00  0.00     0.000 HD 
ENDBRANCH   5  40
ENDBRANCH   2   3
TORSDOF 9
ENDMDL
MODEL       88
REMARK 921   NORMALIZED FREE ENERGY PREDICTED BY IDOCK:   -3.28 KCAL/MOL
REMARK 922        TOTAL FREE ENERGY PREDICTED BY IDOCK:   -7.14 KCAL/MOL
REMARK 923 INTER-LIGAND FREE ENERGY PREDICTED BY IDOCK:   -6.84 KCAL/MOL
REMARK 924 INTRA-LIGAND FREE ENERGY PREDICTED BY IDOCK:   -0.29 KCAL/MOL
REMARK 927      BINDING AFFINITY PREDICTED BY RF-SCORE:    0.00 PKD
ROOT
HETATM    1  C   UNL     1     -10.309  19.212  66.089  1.00  0.00    -0.561 C  
HETATM    2  C   UNL     1      -9.952  18.292  67.254  1.00  0.00    -0.343 C  
ENDROOT
BRANCH   2   3
HETATM    3  C   UNL     1     -10.000  16.841  66.913  1.00  0.00    -0.273 A  
HETATM    4  C   UNL     1      -8.867  15.977  66.871  1.00  0.00    -0.231 A  
HETATM    5  C   UNL     1     -11.217  15.386  65.697  1.00  0.00    -0.208 A  
HETATM    6  N   UNL     1      -9.009  14.709  66.361  1.00  0.00    -0.212 NA 
HETATM    7  N   UNL     1     -11.201  16.524  66.417  1.00  0.00     0.265 NA 
HETATM    8  C   UNL     1     -10.235  14.384  65.790  1.00  0.00    -0.337 A  
BRANCH   4   9
HETATM    9  N   UNL     1      -7.713  16.489  67.432  1.00  0.00    -0.141 NA 
HETATM   10  H   UNL     1      -7.779  16.449  68.449  1.00  0.00     0.000 HD 
BRANCH   9  11
HETATM   11  C   UNL     1      -6.423  17.071  67.044  1.00  0.00    -0.197 C  
HETATM   12  O   UNL     1      -5.695  19.762  66.399  1.00  0.00    -0.171 OA 
HETATM   13  C   UNL     1      -6.700  19.114  65.621  1.00  0.00    -0.279 C  
HETATM   14  C   UNL     1      -5.643  17.934  68.022  1.00  0.00    -0.150 C  
HETATM   15  C   UNL     1      -6.447  17.624  65.624  1.00  0.00    -0.049 C  
HETATM   16  C   UNL     1      -5.794  19.429  67.784  1.00  0.00    -0.196 C  
ENDBRANCH   9  11
ENDBRANCH   4   9
BRANCH   8  17
HETATM   17  N   UNL     1     -10.558  13.039  65.425  1.00  0.00    -0.286 NA 
HETATM   18  H   UNL     1     -11.476  12.902  65.002  1.00  0.00     0.000 HD 
BRANCH  17  19
HETATM   19  C   UNL     1      -9.761  11.865  65.575  1.00  0.00    -0.215 A  
HETATM   20  C   UNL     1     -10.165  10.664  64.995  1.00  0.00    -0.380 A  
HETATM   21  C   UNL     1      -9.625   9.432  65.425  1.00  0.00    -0.296 A  
HETATM   22  C   UNL     1      -8.687   9.336  66.474  1.00  0.00    -0.132 A  
HETATM   23  C   UNL     1      -8.184  10.560  66.965  1.00  0.00    -0.125 A  
HETATM   24  C   UNL     1      -8.685  11.792  66.481  1.00  0.00    -0.173 A  
BRANCH  22  25
HETATM   25  N   UNL     1      -8.412   8.083  67.016  1.00  0.00    -0.119 NA 
HETATM   26  C   UNL     1      -9.168   6.893  66.610  1.00  0.00    -0.157 C  
HETATM   27  C   UNL     1      -7.706   7.958  68.291  1.00  0.00    -0.121 C  
HETATM   28  C   UNL     1      -6.737   6.778  68.205  1.00  0.00    -0.068 C  
HETATM   29  C   UNL     1      -8.205   5.705  66.526  1.00  0.00    -0.106 C  
HETATM   30  C   UNL     1      -7.467   5.448  67.865  1.00  0.00    -0.077 C  
BRANCH  30  31
HETATM   31  N   UNL     1      -8.366   4.976  68.957  1.00  0.00    -0.086 NA 
HETATM   32  C   UNL     1      -9.531   4.193  68.472  1.00  0.00    -0.153 C  
HETATM   33  C   UNL     1      -9.186   2.768  67.973  1.00  0.00    -0.204 C  
HETATM   34  N   UNL     1      -8.460   1.936  68.955  1.00  0.00    -0.056 NA 
HETATM   35  C   UNL     1      -9.352   1.481  70.024  1.00  0.00    -0.097 C  
HETATM   36  C   UNL     1      -7.322   2.704  69.500  1.00  0.00    -0.044 C  
HETATM   37  C   UNL     1      -7.676   4.139  69.970  1.00  0.00    -0.052 C  
ENDBRANCH  30  31
ENDBRANCH  22  25
BRANCH  23  38
HETATM   38  O   UNL     1      -7.171  10.505  67.901  1.00  0.00    -0.082 OA 
HETATM   39  C   UNL     1      -7.427  11.157  69.140  1.00  0.00    -0.109 C  
ENDBRANCH  23  38
ENDBRANCH  17  19
ENDBRANCH   8  17
BRANCH   5  40
HETATM   40  C   UNL     1     -12.031  15.591  64.452  1.00  0.00    -0.183 C  
HETATM   41  H2  UNL     1     -10.650  16.637  63.481  1.00  0.00     0.000 HD 
HETATM   42  N   UNL     1     -11.643  16.688  63.706  1.00  0.00     0.259 N  
HETATM   43  O   UNL     1     -12.846  14.792  64.019  1.00  0.00    -0.697 OA 
HETATM   44  H1  UNL     1     -12.196  16.828  62.860  1.00  0.00     0.000 HD 
ENDBRANCH   5  40
ENDBRANCH   2   3
TORSDOF 9
ENDMDL
MODEL       89
REMARK 921   NORMALIZED FREE ENERGY PREDICTED BY IDOCK:   -3.17 KCAL/MOL
REMARK 922        TOTAL FREE ENERGY PREDICTED BY IDOCK:   -6.97 KCAL/MOL
REMARK 923 INTER-LIGAND FREE ENERGY PREDICTED BY IDOCK:   -6.27 KCAL/MOL
REMARK 924 INTRA-LIGAND FREE ENERGY PREDICTED BY IDOCK:   -0.70 KCAL/MOL
REMARK 927      BINDING AFFINITY PREDICTED BY RF-SCORE:    0.00 PKD
ROOT
HETATM    1  C   UNL     1     -11.332  15.330  70.527  1.00  0.00    -0.340 C  
HETATM    2  C   UNL     1     -10.597  16.312  69.617  1.00  0.00    -0.320 C  
ENDROOT
BRANCH   2   3
HETATM    3  C   UNL     1      -9.304  15.790  69.087  1.00  0.00    -0.258 A  
HETATM    4  C   UNL     1      -8.405  16.527  68.262  1.00  0.00    -0.190 A  
HETATM    5  C   UNL     1      -8.334  13.845  68.491  1.00  0.00    -0.132 A  
HETATM    6  N   UNL     1      -7.342  15.879  67.682  1.00  0.00    -0.143 NA 
HETATM    7  N   UNL     1      -9.224  14.469  69.286  1.00  0.00     0.024 NA 
HETATM    8  C   UNL     1      -7.277  14.498  67.833  1.00  0.00    -0.158 A  
BRANCH   4   9
HETATM    9  N   UNL     1      -8.658  17.884  68.180  1.00  0.00    -0.257 NA 
HETATM   10  H   UNL     1      -9.660  18.051  68.265  1.00  0.00     0.000 HD 
BRANCH   9  11
HETATM   11  C   UNL     1      -7.957  19.160  68.010  1.00  0.00    -0.296 C  
HETATM   12  O   UNL     1      -5.800  19.904  66.282  1.00  0.00    -0.168 OA 
HETATM   13  C   UNL     1      -5.601  18.845  67.216  1.00  0.00    -0.156 C  
HETATM   14  C   UNL     1      -8.193  20.010  66.773  1.00  0.00    -0.362 C  
HETATM   15  C   UNL     1      -6.491  19.069  68.418  1.00  0.00    -0.255 C  
HETATM   16  C   UNL     1      -7.109  19.875  65.713  1.00  0.00    -0.303 C  
ENDBRANCH   9  11
ENDBRANCH   4   9
BRANCH   8  17
HETATM   17  N   UNL     1      -6.113  13.757  67.455  1.00  0.00    -0.340 NA 
HETATM   18  H   UNL     1      -5.330  14.309  67.104  1.00  0.00     0.000 HD 
BRANCH  17  19
HETATM   19  C   UNL     1      -5.904  12.347  67.506  1.00  0.00    -0.142 A  
HETATM   20  C   UNL     1      -5.953  11.587  66.339  1.00  0.00    -0.039 A  
HETATM   21  C   UNL     1      -6.128  10.187  66.391  1.00  0.00    -0.070 A  
HETATM   22  C   UNL     1      -6.299   9.484  67.601  1.00  0.00    -0.058 A  
HETATM   23  C   UNL     1      -6.116  10.237  68.782  1.00  0.00    -0.047 A  
HETATM   24  C   UNL     1      -5.876  11.630  68.719  1.00  0.00    -0.047 A  
BRANCH  22  25
HETATM   25  N   UNL     1      -6.735   8.162  67.555  1.00  0.00    -0.061 NA 
HETATM   26  C   UNL     1      -6.002   7.144  66.795  1.00  0.00    -0.034 C  
HETATM   27  C   UNL     1      -8.123   7.821  67.862  1.00  0.00    -0.126 C  
HETATM   28  C   UNL     1      -8.146   6.516  68.660  1.00  0.00    -0.118 C  
HETATM   29  C   UNL     1      -6.024   5.832  67.585  1.00  0.00    -0.021 C  
HETATM   30  C   UNL     1      -7.466   5.349  67.887  1.00  0.00    -0.077 C  
BRANCH  30  31
HETATM   31  N   UNL     1      -8.220   4.932  66.671  1.00  0.00    -0.107 NA 
HETATM   32  C   UNL     1      -7.426   4.097  65.736  1.00  0.00    -0.081 C  
HETATM   33  C   UNL     1      -7.169   2.649  66.224  1.00  0.00    -0.065 C  
HETATM   34  N   UNL     1      -8.391   1.897  66.572  1.00  0.00    -0.085 NA 
HETATM   35  C   UNL     1      -9.126   1.495  65.370  1.00  0.00    -0.096 C  
HETATM   36  C   UNL     1      -9.235   2.721  67.462  1.00  0.00    -0.187 C  
HETATM   37  C   UNL     1      -9.460   4.176  66.976  1.00  0.00    -0.192 C  
ENDBRANCH  30  31
ENDBRANCH  22  25
BRANCH  23  38
HETATM   38  O   UNL     1      -6.149   9.558  69.983  1.00  0.00    -0.041 OA 
HETATM   39  C   UNL     1      -7.387   9.586  70.686  1.00  0.00    -0.120 C  
ENDBRANCH  23  38
ENDBRANCH  17  19
ENDBRANCH   8  17
BRANCH   5  40
HETATM   40  C   UNL     1      -8.934  12.572  67.969  1.00  0.00    -0.192 C  
HETATM   41  H2  UNL     1     -10.095  12.238  69.545  1.00  0.00     0.000 HD 
HETATM   42  N   UNL     1      -9.426  11.740  68.958  1.00  0.00    -0.405 N  
HETATM   43  O   UNL     1      -9.142  12.338  66.789  1.00  0.00    -0.202 OA 
HETATM   44  H1  UNL     1      -9.834  10.875  68.603  1.00  0.00     0.000 HD 
ENDBRANCH   5  40
ENDBRANCH   2   3
TORSDOF 9
ENDMDL
MODEL       90
REMARK 921   NORMALIZED FREE ENERGY PREDICTED BY IDOCK:   -3.15 KCAL/MOL
REMARK 922        TOTAL FREE ENERGY PREDICTED BY IDOCK:   -6.94 KCAL/MOL
REMARK 923 INTER-LIGAND FREE ENERGY PREDICTED BY IDOCK:   -6.65 KCAL/MOL
REMARK 924 INTRA-LIGAND FREE ENERGY PREDICTED BY IDOCK:   -0.29 KCAL/MOL
REMARK 927      BINDING AFFINITY PREDICTED BY RF-SCORE:    0.00 PKD
ROOT
HETATM    1  C   UNL     1     -10.778  17.375  65.451  1.00  0.00    -0.040 C  
HETATM    2  C   UNL     1      -9.505  17.417  66.293  1.00  0.00    -0.247 C  
ENDROOT
BRANCH   2   3
HETATM    3  C   UNL     1      -8.912  16.073  66.554  1.00  0.00    -0.292 A  
HETATM    4  C   UNL     1      -9.632  14.844  66.517  1.00  0.00    -0.276 A  
HETATM    5  C   UNL     1      -7.240  15.115  67.722  1.00  0.00    -0.167 A  
HETATM    6  N   UNL     1      -9.022  13.695  66.960  1.00  0.00    -0.236 NA 
HETATM    7  N   UNL     1      -7.682  16.204  67.066  1.00  0.00    -0.197 NA 
HETATM    8  C   UNL     1      -7.767  13.823  67.545  1.00  0.00    -0.176 A  
BRANCH   4   9
HETATM    9  N   UNL     1     -10.892  14.915  65.953  1.00  0.00    -0.324 NA 
HETATM   10  H   UNL     1     -11.087  15.876  65.670  1.00  0.00     0.000 HD 
BRANCH   9  11
HETATM   11  C   UNL     1     -12.040  14.063  65.628  1.00  0.00    -0.417 C  
HETATM   12  O   UNL     1     -12.298  11.876  63.799  1.00  0.00    -0.458 OA 
HETATM   13  C   UNL     1     -11.910  13.155  63.296  1.00  0.00    -0.306 C  
HETATM   14  C   UNL     1     -12.094  12.625  66.117  1.00  0.00    -0.399 C  
HETATM   15  C   UNL     1     -12.491  14.233  64.182  1.00  0.00    -0.256 C  
HETATM   16  C   UNL     1     -11.702  11.598  65.065  1.00  0.00    -0.002 C  
ENDBRANCH   9  11
ENDBRANCH   4   9
BRANCH   8  17
HETATM   17  N   UNL     1      -6.961  12.681  67.844  1.00  0.00    -0.096 NA 
HETATM   18  H   UNL     1      -5.962  12.858  67.954  1.00  0.00     0.000 HD 
BRANCH  17  19
HETATM   19  C   UNL     1      -7.372  11.324  68.010  1.00  0.00    -0.092 A  
HETATM   20  C   UNL     1      -8.586  11.029  68.629  1.00  0.00    -0.157 A  
HETATM   21  C   UNL     1      -8.845   9.739  69.140  1.00  0.00    -0.160 A  
HETATM   22  C   UNL     1      -7.898   8.695  69.092  1.00  0.00    -0.099 A  
HETATM   23  C   UNL     1      -6.726   8.960  68.348  1.00  0.00    -0.060 A  
HETATM   24  C   UNL     1      -6.504  10.238  67.783  1.00  0.00    -0.062 A  
BRANCH  22  25
HETATM   25  N   UNL     1      -8.121   7.549  69.851  1.00  0.00    -0.126 NA 
HETATM   26  C   UNL     1      -8.348   6.246  69.216  1.00  0.00    -0.117 C  
HETATM   27  C   UNL     1      -8.579   7.647  71.236  1.00  0.00    -0.120 C  
HETATM   28  C   UNL     1      -7.869   6.577  72.067  1.00  0.00    -0.099 C  
HETATM   29  C   UNL     1      -7.644   5.168  70.045  1.00  0.00    -0.064 C  
HETATM   30  C   UNL     1      -8.128   5.145  71.517  1.00  0.00    -0.115 C  
BRANCH  30  31
HETATM   31  N   UNL     1      -9.544   4.706  71.670  1.00  0.00    -0.153 NA 
HETATM   32  C   UNL     1      -9.779   3.299  71.259  1.00  0.00    -0.151 C  
HETATM   33  C   UNL     1      -9.215   2.239  72.237  1.00  0.00    -0.082 C  
HETATM   34  N   UNL     1      -9.683   2.385  73.631  1.00  0.00    -0.089 NA 
HETATM   35  C   UNL     1     -11.076   1.954  73.768  1.00  0.00    -0.185 C  
HETATM   36  C   UNL     1      -9.515   3.789  74.058  1.00  0.00    -0.095 C  
HETATM   37  C   UNL     1     -10.058   4.840  73.056  1.00  0.00    -0.160 C  
ENDBRANCH  30  31
ENDBRANCH  22  25
BRANCH  23  38
HETATM   38  O   UNL     1      -5.835   7.921  68.171  1.00  0.00    -0.038 OA 
HETATM   39  C   UNL     1      -5.396   7.693  66.836  1.00  0.00    -0.027 C  
ENDBRANCH  23  38
ENDBRANCH  17  19
ENDBRANCH   8  17
BRANCH   5  40
HETATM   40  C   UNL     1      -6.570  15.535  68.998  1.00  0.00    -0.123 C  
HETATM   41  H2  UNL     1      -6.989  13.872  69.999  1.00  0.00     0.000 HD 
HETATM   42  N   UNL     1      -7.047  14.883  70.119  1.00  0.00    -0.278 N  
HETATM   43  O   UNL     1      -5.581  16.248  69.058  1.00  0.00    -0.113 OA 
HETATM   44  H1  UNL     1      -6.592  15.168  70.987  1.00  0.00     0.000 HD 
ENDBRANCH   5  40
ENDBRANCH   2   3
TORSDOF 9
ENDMDL
MODEL       91
REMARK 921   NORMALIZED FREE ENERGY PREDICTED BY IDOCK:   -3.02 KCAL/MOL
REMARK 922        TOTAL FREE ENERGY PREDICTED BY IDOCK:   -6.75 KCAL/MOL
REMARK 923 INTER-LIGAND FREE ENERGY PREDICTED BY IDOCK:   -8.23 KCAL/MOL
REMARK 924 INTRA-LIGAND FREE ENERGY PREDICTED BY IDOCK:    1.48 KCAL/MOL
REMARK 927      BINDING AFFINITY PREDICTED BY RF-SCORE:    0.00 PKD
ROOT
HETATM    1  C   UNL     1     -11.869  15.914  71.531  1.00  0.00    -0.536 C  
HETATM    2  C   UNL     1     -12.689  15.274  70.413  1.00  0.00    -0.400 C  
ENDROOT
BRANCH   2   3
HETATM    3  C   UNL     1     -12.220  13.913  70.024  1.00  0.00    -0.344 A  
HETATM    4  C   UNL     1     -12.107  13.443  68.683  1.00  0.00    -0.246 A  
HETATM    5  C   UNL     1     -12.167  11.806  70.820  1.00  0.00    -0.326 A  
HETATM    6  N   UNL     1     -11.845  12.113  68.458  1.00  0.00    -0.327 NA 
HETATM    7  N   UNL     1     -12.157  13.122  71.101  1.00  0.00    -0.074 NA 
HETATM    8  C   UNL     1     -11.833  11.269  69.564  1.00  0.00    -0.357 A  
BRANCH   4   9
HETATM    9  N   UNL     1     -12.203  14.416  67.706  1.00  0.00    -0.624 NA 
HETATM   10  H   UNL     1     -12.317  15.330  68.144  1.00  0.00     0.000 HD 
BRANCH   9  11
HETATM   11  C   UNL     1     -12.194  14.564  66.248  1.00  0.00    -0.250 C  
HETATM   12  O   UNL     1     -10.351  13.617  64.274  1.00  0.00    -0.376 OA 
HETATM   13  C   UNL     1      -9.875  14.481  65.305  1.00  0.00    -0.186 C  
HETATM   14  C   UNL     1     -12.533  13.385  65.352  1.00  0.00    -0.543 C  
HETATM   15  C   UNL     1     -11.002  15.379  65.760  1.00  0.00    -0.311 C  
HETATM   16  C   UNL     1     -11.317  12.686  64.762  1.00  0.00    -0.312 C  
ENDBRANCH   9  11
ENDBRANCH   4   9
BRANCH   8  17
HETATM   17  N   UNL     1     -11.367   9.920  69.471  1.00  0.00    -0.398 NA 
HETATM   18  H   UNL     1     -11.463   9.357  70.316  1.00  0.00     0.000 HD 
BRANCH  17  19
HETATM   19  C   UNL     1     -10.785   9.259  68.348  1.00  0.00    -0.145 A  
HETATM   20  C   UNL     1     -10.840   7.870  68.244  1.00  0.00     0.019 A  
HETATM   21  C   UNL     1      -9.973   7.172  67.375  1.00  0.00    -0.224 A  
HETATM   22  C   UNL     1      -8.989   7.818  66.599  1.00  0.00    -0.149 A  
HETATM   23  C   UNL     1      -9.027   9.230  66.606  1.00  0.00    -0.140 A  
HETATM   24  C   UNL     1      -9.944   9.923  67.432  1.00  0.00    -0.235 A  
BRANCH  22  25
HETATM   25  N   UNL     1      -8.005   7.048  65.984  1.00  0.00    -0.103 NA 
HETATM   26  C   UNL     1      -8.271   6.324  64.736  1.00  0.00    -0.100 C  
HETATM   27  C   UNL     1      -6.852   6.564  66.742  1.00  0.00    -0.066 C  
HETATM   28  C   UNL     1      -5.607   6.656  65.858  1.00  0.00    -0.021 C  
HETATM   29  C   UNL     1      -7.028   6.407  63.846  1.00  0.00    -0.043 C  
HETATM   30  C   UNL     1      -5.765   5.839  64.543  1.00  0.00    -0.024 C  
BRANCH  30  31
HETATM   31  N   UNL     1      -5.824   4.367  64.771  1.00  0.00    -0.014 NA 
HETATM   32  C   UNL     1      -7.203   3.848  64.956  1.00  0.00    -0.067 C  
HETATM   33  C   UNL     1      -8.055   3.808  63.664  1.00  0.00    -0.089 C  
HETATM   34  N   UNL     1      -7.439   3.059  62.550  1.00  0.00    -0.051 NA 
HETATM   35  C   UNL     1      -7.500   1.615  62.785  1.00  0.00    -0.044 C  
HETATM   36  C   UNL     1      -6.044   3.511  62.370  1.00  0.00    -0.013 C  
HETATM   37  C   UNL     1      -5.210   3.575  63.675  1.00  0.00    -0.008 C  
ENDBRANCH  30  31
ENDBRANCH  22  25
BRANCH  23  38
HETATM   38  O   UNL     1      -8.164   9.897  65.760  1.00  0.00    -0.119 OA 
HETATM   39  C   UNL     1      -7.294  10.844  66.371  1.00  0.00    -0.141 C  
ENDBRANCH  23  38
ENDBRANCH  17  19
ENDBRANCH   8  17
BRANCH   5  40
HETATM   40  C   UNL     1     -13.084  11.095  71.772  1.00  0.00    -0.431 C  
HETATM   41  H2  UNL     1     -14.584  12.386  71.605  1.00  0.00     0.000 HD 
HETATM   42  N   UNL     1     -14.049  11.911  72.332  1.00  0.00    -0.003 N  
HETATM   43  O   UNL     1     -13.117   9.885  71.929  1.00  0.00    -0.404 OA 
HETATM   44  H1  UNL     1     -14.673  11.429  72.979  1.00  0.00     0.000 HD 
ENDBRANCH   5  40
ENDBRANCH   2   3
TORSDOF 9
ENDMDL
MODEL       92
REMARK 921   NORMALIZED FREE ENERGY PREDICTED BY IDOCK:   -2.91 KCAL/MOL
REMARK 922        TOTAL FREE ENERGY PREDICTED BY IDOCK:   -6.58 KCAL/MOL
REMARK 923 INTER-LIGAND FREE ENERGY PREDICTED BY IDOCK:   -5.62 KCAL/MOL
REMARK 924 INTRA-LIGAND FREE ENERGY PREDICTED BY IDOCK:   -0.97 KCAL/MOL
REMARK 927      BINDING AFFINITY PREDICTED BY RF-SCORE:    0.00 PKD
ROOT
HETATM    1  C   UNL     1     -10.979  16.948  66.304  1.00  0.00     0.171 C  
HETATM    2  C   UNL     1     -10.972  15.498  65.826  1.00  0.00    -0.285 C  
ENDROOT
BRANCH   2   3
HETATM    3  C   UNL     1      -9.777  14.723  66.273  1.00  0.00    -0.303 A  
HETATM    4  C   UNL     1      -9.662  13.304  66.220  1.00  0.00    -0.268 A  
HETATM    5  C   UNL     1      -8.077  14.857  67.745  1.00  0.00    -0.152 A  
HETATM    6  N   UNL     1      -8.594  12.694  66.833  1.00  0.00    -0.184 NA 
HETATM    7  N   UNL     1      -8.940  15.517  66.951  1.00  0.00    -0.227 NA 
HETATM    8  C   UNL     1      -7.747  13.499  67.588  1.00  0.00    -0.176 A  
BRANCH   4   9
HETATM    9  N   UNL     1     -10.628  12.660  65.470  1.00  0.00    -0.270 NA 
HETATM   10  H   UNL     1     -11.469  13.236  65.429  1.00  0.00     0.000 HD 
BRANCH   9  11
HETATM   11  C   UNL     1     -10.841  11.422  64.715  1.00  0.00    -0.273 C  
HETATM   12  O   UNL     1      -9.061   9.892  63.077  1.00  0.00    -0.245 OA 
HETATM   13  C   UNL     1      -9.317  11.253  62.733  1.00  0.00    -0.332 C  
HETATM   14  C   UNL     1     -10.248  10.111  65.203  1.00  0.00    -0.233 C  
HETATM   15  C   UNL     1     -10.699  11.634  63.212  1.00  0.00    -0.404 C  
HETATM   16  C   UNL     1      -8.966   9.707  64.489  1.00  0.00    -0.235 C  
ENDBRANCH   9  11
ENDBRANCH   4   9
BRANCH   8  17
HETATM   17  N   UNL     1      -6.500  13.010  68.089  1.00  0.00    -0.087 NA 
HETATM   18  H   UNL     1      -5.690  13.609  67.928  1.00  0.00     0.000 HD 
BRANCH  17  19
HETATM   19  C   UNL     1      -6.241  11.792  68.786  1.00  0.00    -0.057 A  
HETATM   20  C   UNL     1      -5.254  10.919  68.332  1.00  0.00    -0.040 A  
HETATM   21  C   UNL     1      -5.227   9.572  68.752  1.00  0.00    -0.037 A  
HETATM   22  C   UNL     1      -6.199   9.021  69.612  1.00  0.00    -0.039 A  
HETATM   23  C   UNL     1      -7.116   9.938  70.172  1.00  0.00    -0.145 A  
HETATM   24  C   UNL     1      -7.094  11.302  69.794  1.00  0.00     0.045 A  
BRANCH  22  25
HETATM   25  N   UNL     1      -6.261   7.638  69.759  1.00  0.00    -0.030 NA 
HETATM   26  C   UNL     1      -6.847   6.786  68.719  1.00  0.00    -0.066 C  
HETATM   27  C   UNL     1      -6.172   7.021  71.082  1.00  0.00    -0.037 C  
HETATM   28  C   UNL     1      -5.335   5.746  70.977  1.00  0.00    -0.013 C  
HETATM   29  C   UNL     1      -6.016   5.503  68.610  1.00  0.00    -0.021 C  
HETATM   30  C   UNL     1      -5.935   4.737  69.955  1.00  0.00    -0.021 C  
BRANCH  30  31
HETATM   31  N   UNL     1      -7.240   4.166  70.393  1.00  0.00    -0.041 NA 
HETATM   32  C   UNL     1      -7.360   2.705  70.156  1.00  0.00    -0.040 C  
HETATM   33  C   UNL     1      -6.513   1.826  71.110  1.00  0.00    -0.023 C  
HETATM   34  N   UNL     1      -6.761   2.070  72.545  1.00  0.00    -0.018 NA 
HETATM   35  C   UNL     1      -8.047   1.507  72.964  1.00  0.00    -0.051 C  
HETATM   36  C   UNL     1      -6.703   3.523  72.811  1.00  0.00    -0.033 C  
HETATM   37  C   UNL     1      -7.532   4.393  71.831  1.00  0.00    -0.070 C  
ENDBRANCH  30  31
ENDBRANCH  22  25
BRANCH  23  38
HETATM   38  O   UNL     1      -8.001   9.459  71.116  1.00  0.00    -0.322 OA 
HETATM   39  C   UNL     1      -9.282   9.070  70.634  1.00  0.00    -0.231 C  
ENDBRANCH  23  38
ENDBRANCH  17  19
ENDBRANCH   8  17
BRANCH   5  40
HETATM   40  C   UNL     1      -7.983  15.552  69.072  1.00  0.00    -0.205 C  
HETATM   41  H2  UNL     1      -9.195  14.309  70.035  1.00  0.00     0.000 HD 
HETATM   42  N   UNL     1      -9.058  15.312  69.906  1.00  0.00    -0.403 N  
HETATM   43  O   UNL     1      -6.991  16.138  69.477  1.00  0.00    -0.215 OA 
HETATM   44  H1  UNL     1      -8.994  15.784  70.808  1.00  0.00     0.000 HD 
ENDBRANCH   5  40
ENDBRANCH   2   3
TORSDOF 9
ENDMDL
MODEL       93
REMARK 921   NORMALIZED FREE ENERGY PREDICTED BY IDOCK:   -2.87 KCAL/MOL
REMARK 922        TOTAL FREE ENERGY PREDICTED BY IDOCK:   -6.52 KCAL/MOL
REMARK 923 INTER-LIGAND FREE ENERGY PREDICTED BY IDOCK:   -6.76 KCAL/MOL
REMARK 924 INTRA-LIGAND FREE ENERGY PREDICTED BY IDOCK:    0.24 KCAL/MOL
REMARK 927      BINDING AFFINITY PREDICTED BY RF-SCORE:    0.00 PKD
ROOT
HETATM    1  C   UNL     1      -9.805   4.038  73.755  1.00  0.00    -0.151 C  
HETATM    2  C   UNL     1     -11.005   4.914  73.403  1.00  0.00    -0.394 C  
ENDROOT
BRANCH   2   3
HETATM    3  C   UNL     1     -10.899   5.573  72.069  1.00  0.00    -0.226 A  
HETATM    4  C   UNL     1      -9.675   5.843  71.389  1.00  0.00    -0.166 A  
HETATM    5  C   UNL     1     -12.001   7.052  70.774  1.00  0.00    -0.345 A  
HETATM    6  N   UNL     1      -9.694   6.622  70.257  1.00  0.00    -0.171 NA 
HETATM    7  N   UNL     1     -12.080   6.094  71.717  1.00  0.00    -0.209 NA 
HETATM    8  C   UNL     1     -10.903   7.216  69.911  1.00  0.00    -0.254 A  
BRANCH   4   9
HETATM    9  N   UNL     1      -8.560   5.214  71.910  1.00  0.00    -0.128 NA 
HETATM   10  H   UNL     1      -8.847   4.538  72.617  1.00  0.00     0.000 HD 
BRANCH   9  11
HETATM   11  C   UNL     1      -7.100   5.200  71.778  1.00  0.00    -0.074 C  
HETATM   12  O   UNL     1      -5.421   5.323  69.463  1.00  0.00    -0.007 OA 
HETATM   13  C   UNL     1      -6.360   4.255  69.579  1.00  0.00    -0.028 C  
HETATM   14  C   UNL     1      -6.348   6.469  71.414  1.00  0.00    -0.042 C  
HETATM   15  C   UNL     1      -6.601   3.962  71.042  1.00  0.00    -0.031 C  
HETATM   16  C   UNL     1      -5.954   6.556  69.946  1.00  0.00    -0.022 C  
ENDBRANCH   9  11
ENDBRANCH   4   9
BRANCH   8  17
HETATM   17  N   UNL     1     -11.083   7.866  68.650  1.00  0.00    -0.378 NA 
HETATM   18  H   UNL     1     -11.186   7.251  67.843  1.00  0.00     0.000 HD 
BRANCH  17  19
HETATM   19  C   UNL     1     -11.139   9.265  68.375  1.00  0.00     0.122 A  
HETATM   20  C   UNL     1     -10.731   9.754  67.135  1.00  0.00    -0.273 A  
HETATM   21  C   UNL     1     -10.417  11.120  66.961  1.00  0.00    -0.277 A  
HETATM   22  C   UNL     1     -10.460  12.053  68.016  1.00  0.00    -0.207 A  
HETATM   23  C   UNL     1     -11.000  11.582  69.234  1.00  0.00    -0.208 A  
HETATM   24  C   UNL     1     -11.373  10.225  69.380  1.00  0.00    -0.279 A  
BRANCH  22  25
HETATM   25  N   UNL     1      -9.881  13.306  67.830  1.00  0.00    -0.227 NA 
HETATM   26  C   UNL     1      -8.604  13.657  68.461  1.00  0.00    -0.103 C  
HETATM   27  C   UNL     1     -10.687  14.446  67.396  1.00  0.00    -0.280 C  
HETATM   28  C   UNL     1      -9.872  15.277  66.403  1.00  0.00    -0.295 C  
HETATM   29  C   UNL     1      -7.783  14.494  67.475  1.00  0.00    -0.208 C  
HETATM   30  C   UNL     1      -8.533  15.772  67.020  1.00  0.00    -0.220 C  
BRANCH  30  31
HETATM   31  N   UNL     1      -8.723  16.769  68.111  1.00  0.00    -0.212 NA 
HETATM   32  C   UNL     1      -7.473  17.098  68.842  1.00  0.00    -0.241 C  
HETATM   33  C   UNL     1      -6.473  17.974  68.047  1.00  0.00    -0.188 C  
HETATM   34  N   UNL     1      -7.041  19.238  67.536  1.00  0.00    -0.212 NA 
HETATM   35  C   UNL     1      -7.226  20.209  68.617  1.00  0.00    -0.163 C  
HETATM   36  C   UNL     1      -8.317  18.957  66.848  1.00  0.00    -0.280 C  
HETATM   37  C   UNL     1      -9.297  18.056  67.642  1.00  0.00    -0.259 C  
ENDBRANCH  30  31
ENDBRANCH  22  25
BRANCH  23  38
HETATM   38  O   UNL     1     -11.177  12.498  70.250  1.00  0.00     0.219 OA 
HETATM   39  C   UNL     1     -12.477  12.551  70.827  1.00  0.00    -0.268 C  
ENDBRANCH  23  38
ENDBRANCH  17  19
ENDBRANCH   8  17
BRANCH   5  40
HETATM   40  C   UNL     1     -12.904   8.193  71.142  1.00  0.00    -0.088 C  
HETATM   41  H2  UNL     1     -11.448   9.437  71.666  1.00  0.00     0.000 HD 
HETATM   42  N   UNL     1     -12.337   9.091  72.026  1.00  0.00    -0.373 N  
HETATM   43  O   UNL     1     -13.972   8.434  70.600  1.00  0.00     0.381 OA 
HETATM   44  H1  UNL     1     -12.950   9.867  72.276  1.00  0.00     0.000 HD 
ENDBRANCH   5  40
ENDBRANCH   2   3
TORSDOF 9
ENDMDL
MODEL       94
REMARK 921   NORMALIZED FREE ENERGY PREDICTED BY IDOCK:   -2.83 KCAL/MOL
REMARK 922        TOTAL FREE ENERGY PREDICTED BY IDOCK:   -6.46 KCAL/MOL
REMARK 923 INTER-LIGAND FREE ENERGY PREDICTED BY IDOCK:   -6.29 KCAL/MOL
REMARK 924 INTRA-LIGAND FREE ENERGY PREDICTED BY IDOCK:   -0.18 KCAL/MOL
REMARK 927      BINDING AFFINITY PREDICTED BY RF-SCORE:    0.00 PKD
ROOT
HETATM    1  C   UNL     1     -11.327  16.248  69.198  1.00  0.00    -0.291 C  
HETATM    2  C   UNL     1     -11.244  15.818  67.736  1.00  0.00    -0.286 C  
ENDROOT
BRANCH   2   3
HETATM    3  C   UNL     1     -10.141  14.855  67.453  1.00  0.00    -0.228 A  
HETATM    4  C   UNL     1     -10.121  13.494  67.876  1.00  0.00    -0.248 A  
HETATM    5  C   UNL     1      -7.918  14.825  67.084  1.00  0.00    -0.174 A  
HETATM    6  N   UNL     1      -8.969  12.760  67.720  1.00  0.00    -0.180 NA 
HETATM    7  N   UNL     1      -9.075  15.503  66.968  1.00  0.00    -0.218 NA 
HETATM    8  C   UNL     1      -7.838  13.434  67.270  1.00  0.00    -0.095 A  
BRANCH   4   9
HETATM    9  N   UNL     1     -11.323  13.006  68.352  1.00  0.00    -0.270 NA 
HETATM   10  H   UNL     1     -11.955  13.782  68.546  1.00  0.00     0.000 HD 
BRANCH   9  11
HETATM   11  C   UNL     1     -11.987  11.738  68.670  1.00  0.00    -0.239 C  
HETATM   12  O   UNL     1     -10.972   9.323  69.824  1.00  0.00    -0.234 OA 
HETATM   13  C   UNL     1     -10.400   9.800  68.607  1.00  0.00    -0.201 C  
HETATM   14  C   UNL     1     -12.285  11.365  70.112  1.00  0.00    -0.401 C  
HETATM   15  C   UNL     1     -11.443  10.580  67.840  1.00  0.00    -0.190 C  
HETATM   16  C   UNL     1     -11.288  10.390  70.719  1.00  0.00    -0.284 C  
ENDBRANCH   9  11
ENDBRANCH   4   9
BRANCH   8  17
HETATM   17  N   UNL     1      -6.657  12.732  66.875  1.00  0.00    -0.446 NA 
HETATM   18  H   UNL     1      -5.881  13.312  66.556  1.00  0.00     0.000 HD 
BRANCH  17  19
HETATM   19  C   UNL     1      -6.422  11.324  66.869  1.00  0.00    -0.128 A  
HETATM   20  C   UNL     1      -6.893  10.538  65.818  1.00  0.00    -0.127 A  
HETATM   21  C   UNL     1      -7.013   9.139  65.956  1.00  0.00    -0.085 A  
HETATM   22  C   UNL     1      -6.708   8.461  67.154  1.00  0.00    -0.063 A  
HETATM   23  C   UNL     1      -6.108   9.241  68.168  1.00  0.00    -0.053 A  
HETATM   24  C   UNL     1      -5.931  10.635  67.995  1.00  0.00    -0.046 A  
BRANCH  22  25
HETATM   25  N   UNL     1      -7.108   7.135  67.298  1.00  0.00    -0.081 NA 
HETATM   26  C   UNL     1      -8.323   6.631  66.649  1.00  0.00    -0.117 C  
HETATM   27  C   UNL     1      -6.625   6.324  68.415  1.00  0.00    -0.058 C  
HETATM   28  C   UNL     1      -6.349   4.906  67.913  1.00  0.00    -0.036 C  
HETATM   29  C   UNL     1      -8.057   5.209  66.147  1.00  0.00    -0.108 C  
HETATM   30  C   UNL     1      -7.615   4.254  67.285  1.00  0.00    -0.077 C  
BRANCH  30  31
HETATM   31  N   UNL     1      -8.689   3.981  68.282  1.00  0.00    -0.096 NA 
HETATM   32  C   UNL     1      -9.214   2.593  68.226  1.00  0.00    -0.201 C  
HETATM   33  C   UNL     1      -8.251   1.517  68.785  1.00  0.00    -0.052 C  
HETATM   34  N   UNL     1      -7.790   1.768  70.165  1.00  0.00    -0.042 NA 
HETATM   35  C   UNL     1      -8.854   1.500  71.135  1.00  0.00    -0.055 C  
HETATM   36  C   UNL     1      -7.309   3.161  70.274  1.00  0.00    -0.040 C  
HETATM   37  C   UNL     1      -8.269   4.226  69.685  1.00  0.00    -0.059 C  
ENDBRANCH  30  31
ENDBRANCH  22  25
BRANCH  23  38
HETATM   38  O   UNL     1      -5.678   8.589  69.305  1.00  0.00    -0.034 OA 
HETATM   39  C   UNL     1      -5.962   9.233  70.542  1.00  0.00    -0.047 C  
ENDBRANCH  23  38
ENDBRANCH  17  19
ENDBRANCH   8  17
BRANCH   5  40
HETATM   40  C   UNL     1      -6.836  15.755  67.550  1.00  0.00    -0.189 C  
HETATM   41  H2  UNL     1      -7.646  16.132  69.323  1.00  0.00     0.000 HD 
HETATM   42  N   UNL     1      -7.242  16.636  68.534  1.00  0.00    -0.173 N  
HETATM   43  O   UNL     1      -5.659  15.657  67.240  1.00  0.00    -0.332 OA 
HETATM   44  H1  UNL     1      -6.506  17.268  68.851  1.00  0.00     0.000 HD 
ENDBRANCH   5  40
ENDBRANCH   2   3
TORSDOF 9
ENDMDL
MODEL       95
REMARK 921   NORMALIZED FREE ENERGY PREDICTED BY IDOCK:   -2.79 KCAL/MOL
REMARK 922        TOTAL FREE ENERGY PREDICTED BY IDOCK:   -6.40 KCAL/MOL
REMARK 923 INTER-LIGAND FREE ENERGY PREDICTED BY IDOCK:   -6.58 KCAL/MOL
REMARK 924 INTRA-LIGAND FREE ENERGY PREDICTED BY IDOCK:    0.18 KCAL/MOL
REMARK 927      BINDING AFFINITY PREDICTED BY RF-SCORE:    0.00 PKD
ROOT
HETATM    1  C   UNL     1     -10.213  16.589  65.005  1.00  0.00     0.274 C  
HETATM    2  C   UNL     1     -10.894  16.555  66.371  1.00  0.00    -0.042 C  
ENDROOT
BRANCH   2   3
HETATM    3  C   UNL     1     -10.993  15.188  66.961  1.00  0.00    -0.322 A  
HETATM    4  C   UNL     1     -10.122  14.669  67.964  1.00  0.00    -0.227 A  
HETATM    5  C   UNL     1     -11.687  13.114  66.421  1.00  0.00    -0.379 A  
HETATM    6  N   UNL     1     -10.194  13.336  68.290  1.00  0.00    -0.246 NA 
HETATM    7  N   UNL     1     -11.845  14.440  66.251  1.00  0.00    -0.387 NA 
HETATM    8  C   UNL     1     -11.033  12.536  67.523  1.00  0.00    -0.251 A  
BRANCH   4   9
HETATM    9  N   UNL     1      -9.312  15.603  68.582  1.00  0.00    -0.192 NA 
HETATM   10  H   UNL     1      -9.799  16.001  69.385  1.00  0.00     0.000 HD 
BRANCH   9  11
HETATM   11  C   UNL     1      -7.982  16.208  68.463  1.00  0.00    -0.175 C  
HETATM   12  O   UNL     1      -7.044  18.382  66.855  1.00  0.00    -0.193 OA 
HETATM   13  C   UNL     1      -7.616  17.244  66.211  1.00  0.00    -0.325 C  
HETATM   14  C   UNL     1      -7.700  17.573  69.067  1.00  0.00    -0.139 C  
HETATM   15  C   UNL     1      -7.389  16.022  67.071  1.00  0.00    -0.258 C  
HETATM   16  C   UNL     1      -7.732  18.714  68.061  1.00  0.00    -0.262 C  
ENDBRANCH   9  11
ENDBRANCH   4   9
BRANCH   8  17
HETATM   17  N   UNL     1     -11.342  11.193  67.906  1.00  0.00    -0.364 NA 
HETATM   18  H   UNL     1     -12.307  11.022  68.189  1.00  0.00     0.000 HD 
BRANCH  17  19
HETATM   19  C   UNL     1     -10.474  10.060  67.943  1.00  0.00    -0.231 A  
HETATM   20  C   UNL     1     -11.003   8.771  67.965  1.00  0.00     0.066 A  
HETATM   21  C   UNL     1     -10.218   7.671  68.375  1.00  0.00    -0.226 A  
HETATM   22  C   UNL     1      -8.885   7.808  68.816  1.00  0.00    -0.134 A  
HETATM   23  C   UNL     1      -8.315   9.091  68.666  1.00  0.00    -0.123 A  
HETATM   24  C   UNL     1      -9.092  10.175  68.191  1.00  0.00    -0.128 A  
BRANCH  22  25
HETATM   25  N   UNL     1      -8.275   6.731  69.455  1.00  0.00    -0.129 NA 
HETATM   26  C   UNL     1      -7.902   5.519  68.719  1.00  0.00    -0.095 C  
HETATM   27  C   UNL     1      -8.382   6.563  70.904  1.00  0.00    -0.126 C  
HETATM   28  C   UNL     1      -7.039   6.067  71.443  1.00  0.00    -0.078 C  
HETATM   29  C   UNL     1      -6.560   5.012  69.256  1.00  0.00    -0.047 C  
HETATM   30  C   UNL     1      -6.604   4.729  70.780  1.00  0.00    -0.031 C  
BRANCH  30  31
HETATM   31  N   UNL     1      -7.480   3.580  71.145  1.00  0.00    -0.040 NA 
HETATM   32  C   UNL     1      -6.730   2.365  71.550  1.00  0.00    -0.026 C  
HETATM   33  C   UNL     1      -6.058   2.455  72.942  1.00  0.00    -0.009 C  
HETATM   34  N   UNL     1      -6.980   2.802  74.043  1.00  0.00    -0.035 NA 
HETATM   35  C   UNL     1      -7.838   1.668  74.392  1.00  0.00    -0.033 C  
HETATM   36  C   UNL     1      -7.784   3.979  73.654  1.00  0.00    -0.080 C  
HETATM   37  C   UNL     1      -8.427   3.888  72.247  1.00  0.00    -0.094 C  
ENDBRANCH  30  31
ENDBRANCH  22  25
BRANCH  23  38
HETATM   38  O   UNL     1      -6.976   9.234  68.966  1.00  0.00    -0.058 OA 
HETATM   39  C   UNL     1      -6.075   8.430  68.212  1.00  0.00    -0.046 C  
ENDBRANCH  23  38
ENDBRANCH  17  19
ENDBRANCH   8  17
BRANCH   5  40
HETATM   40  C   UNL     1     -11.769  12.424  65.090  1.00  0.00    -0.382 C  
HETATM   41  H2  UNL     1     -12.563  13.962  64.117  1.00  0.00     0.000 HD 
HETATM   42  N   UNL     1     -12.717  12.961  64.240  1.00  0.00    -0.693 N  
HETATM   43  O   UNL     1     -10.975  11.584  64.697  1.00  0.00    -0.317 OA 
HETATM   44  H1  UNL     1     -12.772  12.492  63.335  1.00  0.00     0.000 HD 
ENDBRANCH   5  40
ENDBRANCH   2   3
TORSDOF 9
ENDMDL
MODEL       96
REMARK 921   NORMALIZED FREE ENERGY PREDICTED BY IDOCK:   -2.70 KCAL/MOL
REMARK 922        TOTAL FREE ENERGY PREDICTED BY IDOCK:   -6.26 KCAL/MOL
REMARK 923 INTER-LIGAND FREE ENERGY PREDICTED BY IDOCK:   -5.95 KCAL/MOL
REMARK 924 INTRA-LIGAND FREE ENERGY PREDICTED BY IDOCK:   -0.31 KCAL/MOL
REMARK 927      BINDING AFFINITY PREDICTED BY RF-SCORE:    0.00 PKD
ROOT
HETATM    1  C   UNL     1     -11.259  15.708  65.582  1.00  0.00    -0.106 C  
HETATM    2  C   UNL     1      -9.950  15.138  65.039  1.00  0.00    -0.178 C  
ENDROOT
BRANCH   2   3
HETATM    3  C   UNL     1      -9.098  14.490  66.078  1.00  0.00     0.061 A  
HETATM    4  C   UNL     1      -8.020  15.128  66.759  1.00  0.00    -0.012 A  
HETATM    5  C   UNL     1      -8.335  12.455  66.672  1.00  0.00     0.016 A  
HETATM    6  N   UNL     1      -7.190  14.375  67.555  1.00  0.00    -0.185 NA 
HETATM    7  N   UNL     1      -9.322  13.172  66.103  1.00  0.00    -0.141 NA 
HETATM    8  C   UNL     1      -7.376  12.996  67.547  1.00  0.00    -0.152 A  
BRANCH   4   9
HETATM    9  N   UNL     1      -7.954  16.500  66.606  1.00  0.00    -0.254 NA 
HETATM   10  H   UNL     1      -8.099  16.742  65.626  1.00  0.00     0.000 HD 
BRANCH   9  11
HETATM   11  C   UNL     1      -7.744  17.720  67.391  1.00  0.00    -0.202 C  
HETATM   12  O   UNL     1      -9.254  20.148  67.528  1.00  0.00    -0.344 OA 
HETATM   13  C   UNL     1      -8.716  19.740  66.271  1.00  0.00    -0.363 C  
HETATM   14  C   UNL     1      -8.634  18.032  68.583  1.00  0.00    -0.274 C  
HETATM   15  C   UNL     1      -7.462  18.930  66.508  1.00  0.00    -0.256 C  
HETATM   16  C   UNL     1      -9.735  19.039  68.288  1.00  0.00    -0.361 C  
ENDBRANCH   9  11
ENDBRANCH   4   9
BRANCH   8  17
HETATM   17  N   UNL     1      -6.715  12.146  68.488  1.00  0.00    -0.066 NA 
HETATM   18  H   UNL     1      -5.719  12.319  68.619  1.00  0.00     0.000 HD 
BRANCH  17  19
HETATM   19  C   UNL     1      -7.270  11.088  69.268  1.00  0.00    -0.124 A  
HETATM   20  C   UNL     1      -6.438  10.130  69.844  1.00  0.00    -0.086 A  
HETATM   21  C   UNL     1      -6.955   8.892  70.287  1.00  0.00    -0.047 A  
HETATM   22  C   UNL     1      -8.312   8.538  70.145  1.00  0.00    -0.123 A  
HETATM   23  C   UNL     1      -9.171   9.560  69.685  1.00  0.00    -0.200 A  
HETATM   24  C   UNL     1      -8.653  10.820  69.304  1.00  0.00    -0.047 A  
BRANCH  22  25
HETATM   25  N   UNL     1      -8.685   7.212  70.352  1.00  0.00    -0.148 NA 
HETATM   26  C   UNL     1      -9.648   6.845  71.397  1.00  0.00    -0.166 C  
HETATM   27  C   UNL     1      -7.843   6.114  69.879  1.00  0.00    -0.109 C  
HETATM   28  C   UNL     1      -8.741   5.001  69.336  1.00  0.00    -0.108 C  
HETATM   29  C   UNL     1     -10.548   5.727  70.863  1.00  0.00    -0.329 C  
HETATM   30  C   UNL     1      -9.741   4.484  70.410  1.00  0.00    -0.217 C  
BRANCH  30  31
HETATM   31  N   UNL     1      -9.075   3.767  71.534  1.00  0.00    -0.107 NA 
HETATM   32  C   UNL     1      -9.502   4.236  72.876  1.00  0.00    -0.123 C  
HETATM   33  C   UNL     1     -10.933   3.805  73.284  1.00  0.00    -0.183 C  
HETATM   34  N   UNL     1     -11.173   2.349  73.220  1.00  0.00    -0.161 NA 
HETATM   35  C   UNL     1     -10.512   1.654  74.327  1.00  0.00    -0.115 C  
HETATM   36  C   UNL     1     -10.709   1.835  71.914  1.00  0.00     0.374 C  
HETATM   37  C   UNL     1      -9.287   2.298  71.505  1.00  0.00    -0.121 C  
ENDBRANCH  30  31
ENDBRANCH  22  25
BRANCH  23  38
HETATM   38  O   UNL     1     -10.524   9.291  69.654  1.00  0.00    -0.208 OA 
HETATM   39  C   UNL     1     -11.335  10.051  70.544  1.00  0.00    -0.335 C  
ENDBRANCH  23  38
ENDBRANCH  17  19
ENDBRANCH   8  17
BRANCH   5  40
HETATM   40  C   UNL     1      -8.061  11.232  65.846  1.00  0.00     0.050 C  
HETATM   41  H2  UNL     1      -8.740  11.989  64.140  1.00  0.00     0.000 HD 
HETATM   42  N   UNL     1      -8.835  11.145  64.704  1.00  0.00    -0.379 N  
HETATM   43  O   UNL     1      -7.134  10.461  66.038  1.00  0.00    -0.120 OA 
HETATM   44  H1  UNL     1      -8.649  10.314  64.142  1.00  0.00     0.000 HD 
ENDBRANCH   5  40
ENDBRANCH   2   3
TORSDOF 9
ENDMDL
MODEL       97
REMARK 921   NORMALIZED FREE ENERGY PREDICTED BY IDOCK:   -2.54 KCAL/MOL
REMARK 922        TOTAL FREE ENERGY PREDICTED BY IDOCK:   -6.02 KCAL/MOL
REMARK 923 INTER-LIGAND FREE ENERGY PREDICTED BY IDOCK:   -5.64 KCAL/MOL
REMARK 924 INTRA-LIGAND FREE ENERGY PREDICTED BY IDOCK:   -0.37 KCAL/MOL
REMARK 927      BINDING AFFINITY PREDICTED BY RF-SCORE:    0.00 PKD
ROOT
HETATM    1  C   UNL     1      -5.776   6.754  62.369  1.00  0.00    -0.035 C  
HETATM    2  C   UNL     1      -6.993   6.055  62.970  1.00  0.00    -0.045 C  
ENDROOT
BRANCH   2   3
HETATM    3  C   UNL     1      -7.267   6.435  64.387  1.00  0.00    -0.065 A  
HETATM    4  C   UNL     1      -8.434   6.066  65.117  1.00  0.00    -0.112 A  
HETATM    5  C   UNL     1      -6.799   8.071  65.863  1.00  0.00    -0.057 A  
HETATM    6  N   UNL     1      -8.661   6.632  66.349  1.00  0.00    -0.124 NA 
HETATM    7  N   UNL     1      -6.394   7.365  64.791  1.00  0.00    -0.037 NA 
HETATM    8  C   UNL     1      -7.794   7.640  66.758  1.00  0.00    -0.107 A  
BRANCH   4   9
HETATM    9  N   UNL     1      -9.214   5.088  64.529  1.00  0.00    -0.350 NA 
HETATM   10  H   UNL     1     -10.091   4.996  65.042  1.00  0.00     0.000 HD 
BRANCH   9  11
HETATM   11  C   UNL     1      -9.194   4.141  63.410  1.00  0.00    -0.137 C  
HETATM   12  O   UNL     1     -10.191   1.467  63.194  1.00  0.00    -0.106 OA 
HETATM   13  C   UNL     1      -9.211   1.760  64.189  1.00  0.00    -0.122 C  
HETATM   14  C   UNL     1     -10.467   3.833  62.640  1.00  0.00    -0.204 C  
HETATM   15  C   UNL     1      -8.350   2.909  63.715  1.00  0.00    -0.086 C  
HETATM   16  C   UNL     1     -11.135   2.528  63.047  1.00  0.00    -0.185 C  
ENDBRANCH   9  11
ENDBRANCH   4   9
BRANCH   8  17
HETATM   17  N   UNL     1      -7.811   8.144  68.096  1.00  0.00    -0.120 NA 
HETATM   18  H   UNL     1      -7.607   7.465  68.829  1.00  0.00     0.000 HD 
BRANCH  17  19
HETATM   19  C   UNL     1      -8.076   9.475  68.538  1.00  0.00    -0.101 A  
HETATM   20  C   UNL     1      -9.297  10.081  68.246  1.00  0.00    -0.136 A  
HETATM   21  C   UNL     1      -9.449  11.483  68.329  1.00  0.00    -0.189 A  
HETATM   22  C   UNL     1      -8.387  12.346  68.670  1.00  0.00     0.006 A  
HETATM   23  C   UNL     1      -7.194  11.719  69.093  1.00  0.00    -0.043 A  
HETATM   24  C   UNL     1      -7.073  10.309  69.069  1.00  0.00    -0.072 A  
BRANCH  22  25
HETATM   25  N   UNL     1      -8.542  13.715  68.466  1.00  0.00    -0.143 NA 
HETATM   26  C   UNL     1      -9.784  14.405  68.830  1.00  0.00    -0.144 C  
HETATM   27  C   UNL     1      -7.702  14.428  67.504  1.00  0.00    -0.192 C  
HETATM   28  C   UNL     1      -7.339  15.796  68.084  1.00  0.00    -0.130 C  
HETATM   29  C   UNL     1      -9.431  15.778  69.408  1.00  0.00    -0.275 C  
HETATM   30  C   UNL     1      -8.603  16.639  68.420  1.00  0.00    -0.221 C  
BRANCH  30  31
HETATM   31  N   UNL     1      -9.368  17.055  67.210  1.00  0.00    -0.234 NA 
HETATM   32  C   UNL     1     -10.650  17.737  67.522  1.00  0.00    -0.359 C  
HETATM   33  C   UNL     1     -10.497  19.176  68.073  1.00  0.00    -0.370 C  
HETATM   34  N   UNL     1      -9.706  20.078  67.212  1.00  0.00    -0.384 NA 
HETATM   35  C   UNL     1     -10.466  20.478  66.025  1.00  0.00     0.194 C  
HETATM   36  C   UNL     1      -8.443  19.411  66.836  1.00  0.00    -0.293 C  
HETATM   37  C   UNL     1      -8.607  17.961  66.313  1.00  0.00    -0.177 C  
ENDBRANCH  30  31
ENDBRANCH  22  25
BRANCH  23  38
HETATM   38  O   UNL     1      -6.177  12.529  69.556  1.00  0.00    -0.105 OA 
HETATM   39  C   UNL     1      -5.340  11.969  70.563  1.00  0.00    -0.143 C  
ENDBRANCH  23  38
ENDBRANCH  17  19
ENDBRANCH   8  17
BRANCH   5  40
HETATM   40  C   UNL     1      -6.496   9.526  65.649  1.00  0.00    -0.071 C  
HETATM   41  H2  UNL     1      -5.224   9.246  64.150  1.00  0.00     0.000 HD 
HETATM   42  N   UNL     1      -5.282   9.758  65.030  1.00  0.00    -0.045 N  
HETATM   43  O   UNL     1      -7.292  10.433  65.831  1.00  0.00    -0.125 OA 
HETATM   44  H1  UNL     1      -5.075  10.747  64.885  1.00  0.00     0.000 HD 
ENDBRANCH   5  40
ENDBRANCH   2   3
TORSDOF 9
ENDMDL
MODEL       98
REMARK 921   NORMALIZED FREE ENERGY PREDICTED BY IDOCK:   -2.44 KCAL/MOL
REMARK 922        TOTAL FREE ENERGY PREDICTED BY IDOCK:   -5.87 KCAL/MOL
REMARK 923 INTER-LIGAND FREE ENERGY PREDICTED BY IDOCK:   -6.44 KCAL/MOL
REMARK 924 INTRA-LIGAND FREE ENERGY PREDICTED BY IDOCK:    0.57 KCAL/MOL
REMARK 927      BINDING AFFINITY PREDICTED BY RF-SCORE:    0.00 PKD
ROOT
HETATM    1  C   UNL     1      -5.462   4.369  66.423  1.00  0.00    -0.013 C  
HETATM    2  C   UNL     1      -6.948   4.110  66.660  1.00  0.00    -0.059 C  
ENDROOT
BRANCH   2   3
HETATM    3  C   UNL     1      -7.760   5.353  66.809  1.00  0.00    -0.100 A  
HETATM    4  C   UNL     1      -8.700   5.831  65.851  1.00  0.00    -0.149 A  
HETATM    5  C   UNL     1      -7.666   7.375  67.799  1.00  0.00    -0.112 A  
HETATM    6  N   UNL     1      -9.245   7.082  66.012  1.00  0.00    -0.082 NA 
HETATM    7  N   UNL     1      -7.307   6.078  67.839  1.00  0.00    -0.082 NA 
HETATM    8  C   UNL     1      -8.744   7.869  67.044  1.00  0.00    -0.129 A  
BRANCH   4   9
HETATM    9  N   UNL     1      -9.039   4.932  64.857  1.00  0.00    -0.237 NA 
HETATM   10  H   UNL     1      -9.018   5.399  63.951  1.00  0.00     0.000 HD 
BRANCH   9  11
HETATM   11  C   UNL     1      -9.418   3.527  64.679  1.00  0.00    -0.156 C  
HETATM   12  O   UNL     1     -10.297   2.097  62.360  1.00  0.00    -0.094 OA 
HETATM   13  C   UNL     1     -11.055   3.221  62.807  1.00  0.00     0.002 C  
HETATM   14  C   UNL     1      -8.496   2.568  63.945  1.00  0.00    -0.086 C  
HETATM   15  C   UNL     1     -10.887   3.371  64.302  1.00  0.00     0.023 C  
HETATM   16  C   UNL     1      -8.893   2.312  62.498  1.00  0.00    -0.074 C  
ENDBRANCH   9  11
ENDBRANCH   4   9
BRANCH   8  17
HETATM   17  N   UNL     1      -9.380   9.091  67.429  1.00  0.00    -0.137 NA 
HETATM   18  H   UNL     1     -10.000   9.034  68.237  1.00  0.00     0.000 HD 
BRANCH  17  19
HETATM   19  C   UNL     1      -9.258  10.380  66.830  1.00  0.00    -0.155 A  
HETATM   20  C   UNL     1      -8.124  11.157  67.059  1.00  0.00    -0.148 A  
HETATM   21  C   UNL     1      -8.132  12.546  66.807  1.00  0.00     0.043 A  
HETATM   22  C   UNL     1      -9.277  13.231  66.350  1.00  0.00    -0.119 A  
HETATM   23  C   UNL     1     -10.378  12.422  65.993  1.00  0.00    -0.251 A  
HETATM   24  C   UNL     1     -10.337  11.021  66.190  1.00  0.00    -0.306 A  
BRANCH  22  25
HETATM   25  N   UNL     1      -9.286  14.623  66.386  1.00  0.00    -0.291 NA 
HETATM   26  C   UNL     1     -10.046  15.407  65.407  1.00  0.00    -0.359 C  
HETATM   27  C   UNL     1      -8.229  15.361  67.078  1.00  0.00    -0.236 C  
HETATM   28  C   UNL     1      -8.853  16.557  67.798  1.00  0.00    -0.197 C  
HETATM   29  C   UNL     1     -10.671  16.611  66.119  1.00  0.00    -0.132 C  
HETATM   30  C   UNL     1      -9.609  17.499  66.817  1.00  0.00    -0.282 C  
BRANCH  30  31
HETATM   31  N   UNL     1      -8.704  18.202  65.864  1.00  0.00    -0.482 NA 
HETATM   32  C   UNL     1      -8.860  19.678  65.875  1.00  0.00    -0.101 C  
HETATM   33  C   UNL     1      -8.284  20.378  67.131  1.00  0.00    -0.320 C  
HETATM   34  N   UNL     1      -6.864  20.074  67.402  1.00  0.00    -0.218 NA 
HETATM   35  C   UNL     1      -5.985  20.767  66.458  1.00  0.00    -0.219 C  
HETATM   36  C   UNL     1      -6.659  18.612  67.347  1.00  0.00    -0.197 C  
HETATM   37  C   UNL     1      -7.265  17.919  66.099  1.00  0.00    -0.303 C  
ENDBRANCH  30  31
ENDBRANCH  22  25
BRANCH  23  38
HETATM   38  O   UNL     1     -11.470  13.044  65.422  1.00  0.00    -0.299 OA 
HETATM   39  C   UNL     1     -12.411  12.193  64.778  1.00  0.00    -0.230 C  
ENDBRANCH  23  38
ENDBRANCH  17  19
ENDBRANCH   8  17
BRANCH   5  40
HETATM   40  C   UNL     1      -6.490   8.233  68.165  1.00  0.00    -0.056 C  
HETATM   41  H2  UNL     1      -6.665   9.477  66.628  1.00  0.00     0.000 HD 
HETATM   42  N   UNL     1      -5.949   8.923  67.097  1.00  0.00    -0.056 N  
HETATM   43  O   UNL     1      -6.127   8.459  69.309  1.00  0.00    -0.037 OA 
HETATM   44  H1  UNL     1      -5.150   9.507  67.345  1.00  0.00     0.000 HD 
ENDBRANCH   5  40
ENDBRANCH   2   3
TORSDOF 9
ENDMDL
MODEL       99
REMARK 921   NORMALIZED FREE ENERGY PREDICTED BY IDOCK:   -2.38 KCAL/MOL
REMARK 922        TOTAL FREE ENERGY PREDICTED BY IDOCK:   -5.77 KCAL/MOL
REMARK 923 INTER-LIGAND FREE ENERGY PREDICTED BY IDOCK:   -7.70 KCAL/MOL
REMARK 924 INTRA-LIGAND FREE ENERGY PREDICTED BY IDOCK:    1.93 KCAL/MOL
REMARK 927      BINDING AFFINITY PREDICTED BY RF-SCORE:    0.00 PKD
ROOT
HETATM    1  C   UNL     1     -10.516  18.662  66.481  1.00  0.00    -0.465 C  
HETATM    2  C   UNL     1     -10.113  17.697  67.594  1.00  0.00    -0.339 C  
ENDROOT
BRANCH   2   3
HETATM    3  C   UNL     1     -10.172  16.260  67.195  1.00  0.00    -0.276 A  
HETATM    4  C   UNL     1      -9.053  15.378  67.166  1.00  0.00    -0.220 A  
HETATM    5  C   UNL     1     -11.362  14.875  65.875  1.00  0.00    -0.306 A  
HETATM    6  N   UNL     1      -9.195  14.132  66.602  1.00  0.00    -0.268 NA 
HETATM    7  N   UNL     1     -11.357  15.984  66.638  1.00  0.00     0.138 NA 
HETATM    8  C   UNL     1     -10.402  13.852  65.970  1.00  0.00    -0.305 A  
BRANCH   4   9
HETATM    9  N   UNL     1      -7.914  15.847  67.793  1.00  0.00    -0.136 NA 
HETATM   10  H   UNL     1      -7.988  15.692  68.798  1.00  0.00     0.000 HD 
BRANCH   9  11
HETATM   11  C   UNL     1      -6.635  16.494  67.487  1.00  0.00    -0.151 C  
HETATM   12  O   UNL     1      -5.853  19.246  67.572  1.00  0.00    -0.184 OA 
HETATM   13  C   UNL     1      -6.935  18.862  66.724  1.00  0.00    -0.199 C  
HETATM   14  C   UNL     1      -5.757  17.032  68.604  1.00  0.00    -0.141 C  
HETATM   15  C   UNL     1      -6.737  17.429  66.286  1.00  0.00    -0.295 C  
HETATM   16  C   UNL     1      -5.868  18.536  68.810  1.00  0.00    -0.206 C  
ENDBRANCH   9  11
ENDBRANCH   4   9
BRANCH   8  17
HETATM   17  N   UNL     1     -10.732  12.529  65.540  1.00  0.00    -0.265 NA 
HETATM   18  H   UNL     1     -11.580  12.441  64.981  1.00  0.00     0.000 HD 
BRANCH  17  19
HETATM   19  C   UNL     1     -10.027  11.314  65.792  1.00  0.00    -0.237 A  
HETATM   20  C   UNL     1      -9.770  10.422  64.752  1.00  0.00    -0.383 A  
HETATM   21  C   UNL     1      -9.427   9.078  65.016  1.00  0.00     0.083 A  
HETATM   22  C   UNL     1      -9.358   8.551  66.322  1.00  0.00    -0.224 A  
HETATM   23  C   UNL     1      -9.487   9.487  67.372  1.00  0.00    -0.135 A  
HETATM   24  C   UNL     1      -9.767  10.847  67.096  1.00  0.00    -0.199 A  
BRANCH  22  25
HETATM   25  N   UNL     1      -9.283   7.170  66.487  1.00  0.00    -0.159 NA 
HETATM   26  C   UNL     1      -8.700   6.309  65.452  1.00  0.00    -0.045 C  
HETATM   27  C   UNL     1     -10.149   6.483  67.443  1.00  0.00    -0.162 C  
HETATM   28  C   UNL     1      -9.345   5.379  68.132  1.00  0.00    -0.131 C  
HETATM   29  C   UNL     1      -7.897   5.198  66.133  1.00  0.00    -0.103 C  
HETATM   30  C   UNL     1      -8.760   4.361  67.112  1.00  0.00    -0.105 C  
BRANCH  30  31
HETATM   31  N   UNL     1      -9.806   3.546  66.431  1.00  0.00    -0.017 NA 
HETATM   32  C   UNL     1     -10.359   4.185  65.211  1.00  0.00    -0.168 C  
HETATM   33  C   UNL     1      -9.399   4.193  63.996  1.00  0.00    -0.153 C  
HETATM   34  N   UNL     1      -8.888   2.861  63.613  1.00  0.00    -0.092 NA 
HETATM   35  C   UNL     1      -9.925   2.068  62.949  1.00  0.00    -0.100 C  
HETATM   36  C   UNL     1      -8.377   2.171  64.815  1.00  0.00    -0.088 C  
HETATM   37  C   UNL     1      -9.336   2.195  66.033  1.00  0.00     0.111 C  
ENDBRANCH  30  31
ENDBRANCH  22  25
BRANCH  23  38
HETATM   38  O   UNL     1      -9.298   9.031  68.661  1.00  0.00    -0.137 OA 
HETATM   39  C   UNL     1     -10.258   9.453  69.622  1.00  0.00    -0.212 C  
ENDBRANCH  23  38
ENDBRANCH  17  19
ENDBRANCH   8  17
BRANCH   5  40
HETATM   40  C   UNL     1     -12.120  15.142  64.607  1.00  0.00    -0.257 C  
HETATM   41  H2  UNL     1     -13.588  13.858  64.979  1.00  0.00     0.000 HD 
HETATM   42  N   UNL     1     -12.949  14.105  64.224  1.00  0.00    -0.240 N  
HETATM   43  O   UNL     1     -12.160  16.222  64.039  1.00  0.00    -0.928 OA 
HETATM   44  H1  UNL     1     -13.464  14.286  63.362  1.00  0.00     0.000 HD 
ENDBRANCH   5  40
ENDBRANCH   2   3
TORSDOF 9
ENDMDL
MODEL      100
REMARK 921   NORMALIZED FREE ENERGY PREDICTED BY IDOCK:   -2.23 KCAL/MOL
REMARK 922        TOTAL FREE ENERGY PREDICTED BY IDOCK:   -5.55 KCAL/MOL
REMARK 923 INTER-LIGAND FREE ENERGY PREDICTED BY IDOCK:   -5.60 KCAL/MOL
REMARK 924 INTRA-LIGAND FREE ENERGY PREDICTED BY IDOCK:    0.06 KCAL/MOL
REMARK 927      BINDING AFFINITY PREDICTED BY RF-SCORE:    0.00 PKD
ROOT
HETATM    1  C   UNL     1      -8.559   6.116  68.265  1.00  0.00    -0.116 C  
HETATM    2  C   UNL     1      -9.943   6.241  67.633  1.00  0.00    -0.151 C  
ENDROOT
BRANCH   2   3
HETATM    3  C   UNL     1     -10.519   7.615  67.710  1.00  0.00    -0.216 A  
HETATM    4  C   UNL     1     -10.276   8.653  66.764  1.00  0.00    -0.291 A  
HETATM    5  C   UNL     1     -11.246   9.106  69.235  1.00  0.00     0.132 A  
HETATM    6  N   UNL     1     -10.707   9.928  67.042  1.00  0.00    -0.206 NA 
HETATM    7  N   UNL     1     -11.086   7.810  68.906  1.00  0.00     0.136 NA 
HETATM    8  C   UNL     1     -11.248  10.158  68.303  1.00  0.00    -0.183 A  
BRANCH   4   9
HETATM    9  N   UNL     1      -9.674   8.251  65.587  1.00  0.00    -0.371 NA 
HETATM   10  H   UNL     1     -10.389   7.990  64.908  1.00  0.00     0.000 HD 
BRANCH   9  11
HETATM   11  C   UNL     1      -8.344   8.076  64.995  1.00  0.00    -0.113 C  
HETATM   12  O   UNL     1      -7.491   6.602  62.695  1.00  0.00    -0.063 OA 
HETATM   13  C   UNL     1      -8.140   5.906  63.759  1.00  0.00    -0.095 C  
HETATM   14  C   UNL     1      -7.982   8.777  63.697  1.00  0.00    -0.158 C  
HETATM   15  C   UNL     1      -7.872   6.628  65.060  1.00  0.00    -0.113 C  
HETATM   16  C   UNL     1      -8.070   7.886  62.466  1.00  0.00    -0.152 C  
ENDBRANCH   9  11
ENDBRANCH   4   9
BRANCH   8  17
HETATM   17  N   UNL     1     -11.915  11.384  68.619  1.00  0.00    -0.517 NA 
HETATM   18  H   UNL     1     -12.922  11.316  68.766  1.00  0.00     0.000 HD 
BRANCH  17  19
HETATM   19  C   UNL     1     -11.353  12.688  68.754  1.00  0.00    -0.289 A  
HETATM   20  C   UNL     1     -12.177  13.813  68.740  1.00  0.00    -0.221 A  
HETATM   21  C   UNL     1     -11.647  15.098  68.494  1.00  0.00    -0.354 A  
HETATM   22  C   UNL     1     -10.282  15.319  68.216  1.00  0.00    -0.226 A  
HETATM   23  C   UNL     1      -9.433  14.200  68.363  1.00  0.00    -0.214 A  
HETATM   24  C   UNL     1      -9.967  12.927  68.674  1.00  0.00    -0.099 A  
BRANCH  22  25
HETATM   25  N   UNL     1      -9.890  16.561  67.720  1.00  0.00    -0.237 NA 
HETATM   26  C   UNL     1      -8.992  16.672  66.565  1.00  0.00    -0.277 C  
HETATM   27  C   UNL     1      -9.972  17.759  68.554  1.00  0.00    -0.370 C  
HETATM   28  C   UNL     1     -10.442  18.931  67.689  1.00  0.00    -0.514 C  
HETATM   29  C   UNL     1      -9.454  17.846  65.696  1.00  0.00     0.499 C  
HETATM   30  C   UNL     1      -9.493  19.181  66.482  1.00  0.00    -0.356 C  
BRANCH  30  31
HETATM   31  N   UNL     1      -8.146  19.672  66.888  1.00  0.00    -0.275 NA 
HETATM   32  C   UNL     1      -7.036  18.780  66.466  1.00  0.00    -0.218 C  
HETATM   33  C   UNL     1      -6.727  18.809  64.949  1.00  0.00     0.282 C  
HETATM   34  N   UNL     1      -6.452  20.156  64.408  1.00  0.00    -0.270 NA 
HETATM   35  C   UNL     1      -5.127  20.629  64.815  1.00  0.00    -0.173 C  
HETATM   36  C   UNL     1      -7.510  21.086  64.852  1.00  0.00     0.850 C  
HETATM   37  C   UNL     1      -7.830  21.026  66.368  1.00  0.00     0.490 C  
ENDBRANCH  30  31
ENDBRANCH  22  25
BRANCH  23  38
HETATM   38  O   UNL     1      -8.076  14.406  68.225  1.00  0.00    -0.124 OA 
HETATM   39  C   UNL     1      -7.369  13.435  67.460  1.00  0.00    -0.156 C  
ENDBRANCH  23  38
ENDBRANCH  17  19
ENDBRANCH   8  17
BRANCH   5  40
HETATM   40  C   UNL     1     -10.851   9.311  70.669  1.00  0.00    -0.278 C  
HETATM   41  H2  UNL     1      -8.894   9.340  70.335  1.00  0.00     0.000 HD 
HETATM   42  N   UNL     1      -9.566   8.894  70.960  1.00  0.00    -0.230 N  
HETATM   43  O   UNL     1     -11.508   9.940  71.484  1.00  0.00    -0.365 OA 
HETATM   44  H1  UNL     1      -9.298   9.034  71.934  1.00  0.00     0.000 HD 
ENDBRANCH   5  40
ENDBRANCH   2   3
TORSDOF 9
ENDMDL
MODEL      101
REMARK 921   NORMALIZED FREE ENERGY PREDICTED BY IDOCK:   -2.21 KCAL/MOL
REMARK 922        TOTAL FREE ENERGY PREDICTED BY IDOCK:   -5.51 KCAL/MOL
REMARK 923 INTER-LIGAND FREE ENERGY PREDICTED BY IDOCK:   -4.85 KCAL/MOL
REMARK 924 INTRA-LIGAND FREE ENERGY PREDICTED BY IDOCK:   -0.66 KCAL/MOL
REMARK 927      BINDING AFFINITY PREDICTED BY RF-SCORE:    0.00 PKD
ROOT
HETATM    1  C   UNL     1     -11.342   5.383  66.025  1.00  0.00     0.636 C  
HETATM    2  C   UNL     1     -10.184   4.895  66.892  1.00  0.00    -0.254 C  
ENDROOT
BRANCH   2   3
HETATM    3  C   UNL     1      -9.267   5.983  67.340  1.00  0.00    -0.109 A  
HETATM    4  C   UNL     1      -7.856   5.994  67.137  1.00  0.00    -0.102 A  
HETATM    5  C   UNL     1      -9.098   7.553  68.948  1.00  0.00    -0.140 A  
HETATM    6  N   UNL     1      -7.096   6.954  67.760  1.00  0.00    -0.083 NA 
HETATM    7  N   UNL     1      -9.910   6.815  68.168  1.00  0.00    -0.135 NA 
HETATM    8  C   UNL     1      -7.741   7.791  68.665  1.00  0.00    -0.118 A  
BRANCH   4   9
HETATM    9  N   UNL     1      -7.381   5.050  66.246  1.00  0.00    -0.080 NA 
HETATM   10  H   UNL     1      -8.122   4.789  65.596  1.00  0.00     0.000 HD 
BRANCH   9  11
HETATM   11  C   UNL     1      -6.160   4.302  65.929  1.00  0.00    -0.031 C  
HETATM   12  O   UNL     1      -5.674   1.487  65.756  1.00  0.00    -0.012 OA 
HETATM   13  C   UNL     1      -6.144   2.032  66.988  1.00  0.00    -0.020 C  
HETATM   14  C   UNL     1      -6.011   3.607  64.586  1.00  0.00    -0.022 C  
HETATM   15  C   UNL     1      -5.677   3.464  67.107  1.00  0.00    -0.022 C  
HETATM   16  C   UNL     1      -6.287   2.112  64.628  1.00  0.00    -0.019 C  
ENDBRANCH   9  11
ENDBRANCH   4   9
BRANCH   8  17
HETATM   17  N   UNL     1      -7.096   8.948  69.205  1.00  0.00    -0.062 NA 
HETATM   18  H   UNL     1      -6.627   8.819  70.101  1.00  0.00     0.000 HD 
BRANCH  17  19
HETATM   19  C   UNL     1      -7.025  10.261  68.650  1.00  0.00    -0.066 A  
HETATM   20  C   UNL     1      -5.847  11.000  68.745  1.00  0.00    -0.039 A  
HETATM   21  C   UNL     1      -5.851  12.399  68.557  1.00  0.00    -0.054 A  
HETATM   22  C   UNL     1      -7.029  13.131  68.302  1.00  0.00    -0.105 A  
HETATM   23  C   UNL     1      -8.194  12.365  68.076  1.00  0.00    -0.168 A  
HETATM   24  C   UNL     1      -8.166  10.956  68.203  1.00  0.00    -0.121 A  
BRANCH  22  25
HETATM   25  N   UNL     1      -6.991  14.520  68.400  1.00  0.00    -0.099 NA 
HETATM   26  C   UNL     1      -6.921  15.191  69.703  1.00  0.00    -0.192 C  
HETATM   27  C   UNL     1      -7.460  15.361  67.299  1.00  0.00    -0.207 C  
HETATM   28  C   UNL     1      -6.529  16.567  67.169  1.00  0.00    -0.229 C  
HETATM   29  C   UNL     1      -5.994  16.404  69.580  1.00  0.00    -0.176 C  
HETATM   30  C   UNL     1      -6.462  17.396  68.484  1.00  0.00    -0.180 C  
BRANCH  30  31
HETATM   31  N   UNL     1      -7.745  18.081  68.811  1.00  0.00    -0.289 NA 
HETATM   32  C   UNL     1      -7.579  19.509  69.181  1.00  0.00    -0.270 C  
HETATM   33  C   UNL     1      -7.238  20.446  67.995  1.00  0.00    -0.239 C  
HETATM   34  N   UNL     1      -8.194  20.380  66.871  1.00  0.00    -0.288 NA 
HETATM   35  C   UNL     1      -9.451  21.053  67.205  1.00  0.00    -0.054 C  
HETATM   36  C   UNL     1      -8.425  18.967  66.509  1.00  0.00    -0.304 C  
HETATM   37  C   UNL     1      -8.738  18.034  67.708  1.00  0.00    -0.251 C  
ENDBRANCH  30  31
ENDBRANCH  22  25
BRANCH  23  38
HETATM   38  O   UNL     1      -9.337  13.039  67.698  1.00  0.00    -0.188 OA 
HETATM   39  C   UNL     1     -10.395  13.062  68.650  1.00  0.00    -0.191 C  
ENDBRANCH  23  38
ENDBRANCH  17  19
ENDBRANCH   8  17
BRANCH   5  40
HETATM   40  C   UNL     1      -9.638   7.583  70.348  1.00  0.00    -0.168 C  
HETATM   41  H2  UNL     1      -9.736   9.562  70.480  1.00  0.00     0.000 HD 
HETATM   42  N   UNL     1      -9.389   8.767  71.017  1.00  0.00    -0.200 N  
HETATM   43  O   UNL     1     -10.378   6.737  70.823  1.00  0.00    -0.201 OA 
HETATM   44  H1  UNL     1      -9.756   8.788  71.968  1.00  0.00     0.000 HD 
ENDBRANCH   5  40
ENDBRANCH   2   3
TORSDOF 9
ENDMDL
MODEL      102
REMARK 921   NORMALIZED FREE ENERGY PREDICTED BY IDOCK:   -2.07 KCAL/MOL
REMARK 922        TOTAL FREE ENERGY PREDICTED BY IDOCK:   -5.29 KCAL/MOL
REMARK 923 INTER-LIGAND FREE ENERGY PREDICTED BY IDOCK:   -6.46 KCAL/MOL
REMARK 924 INTRA-LIGAND FREE ENERGY PREDICTED BY IDOCK:    1.17 KCAL/MOL
REMARK 927      BINDING AFFINITY PREDICTED BY RF-SCORE:    0.00 PKD
ROOT
HETATM    1  C   UNL     1     -10.696  18.651  66.031  1.00  0.00    -0.295 C  
HETATM    2  C   UNL     1     -10.861  17.166  65.716  1.00  0.00    -0.039 C  
ENDROOT
BRANCH   2   3
HETATM    3  C   UNL     1      -9.666  16.341  66.060  1.00  0.00    -0.339 A  
HETATM    4  C   UNL     1      -9.716  15.043  66.646  1.00  0.00    -0.258 A  
HETATM    5  C   UNL     1      -7.507  16.583  66.655  1.00  0.00    -0.261 A  
HETATM    6  N   UNL     1      -8.552  14.463  67.090  1.00  0.00    -0.213 NA 
HETATM    7  N   UNL     1      -8.555  17.081  65.973  1.00  0.00    -0.518 NA 
HETATM    8  C   UNL     1      -7.398  15.240  67.058  1.00  0.00    -0.037 A  
BRANCH   4   9
HETATM    9  N   UNL     1     -10.960  14.442  66.646  1.00  0.00    -0.312 NA 
HETATM   10  H   UNL     1     -11.632  15.047  67.118  1.00  0.00     0.000 HD 
BRANCH   9  11
HETATM   11  C   UNL     1     -11.631  13.220  66.190  1.00  0.00    -0.348 C  
HETATM   12  O   UNL     1     -10.619  10.923  64.816  1.00  0.00    -0.315 OA 
HETATM   13  C   UNL     1     -10.492  12.206  64.203  1.00  0.00    -0.362 C  
HETATM   14  C   UNL     1     -11.405  11.903  66.913  1.00  0.00    -0.392 C  
HETATM   15  C   UNL     1     -11.622  13.093  64.671  1.00  0.00    -0.384 C  
HETATM   16  C   UNL     1     -10.407  10.983  66.226  1.00  0.00    -0.251 C  
ENDBRANCH   9  11
ENDBRANCH   4   9
BRANCH   8  17
HETATM   17  N   UNL     1      -6.107  14.673  67.295  1.00  0.00    -0.243 NA 
HETATM   18  H   UNL     1      -5.312  15.282  67.100  1.00  0.00     0.000 HD 
BRANCH  17  19
HETATM   19  C   UNL     1      -5.787  13.366  67.769  1.00  0.00    -0.126 A  
HETATM   20  C   UNL     1      -6.064  12.247  66.985  1.00  0.00    -0.045 A  
HETATM   21  C   UNL     1      -6.115  10.956  67.555  1.00  0.00    -0.049 A  
HETATM   22  C   UNL     1      -5.928  10.723  68.933  1.00  0.00    -0.040 A  
HETATM   23  C   UNL     1      -5.518  11.838  69.697  1.00  0.00    -0.071 A  
HETATM   24  C   UNL     1      -5.406  13.117  69.103  1.00  0.00    -0.070 A  
BRANCH  22  25
HETATM   25  N   UNL     1      -6.261   9.475  69.454  1.00  0.00    -0.040 NA 
HETATM   26  C   UNL     1      -5.227   8.514  69.852  1.00  0.00    -0.029 C  
HETATM   27  C   UNL     1      -7.583   8.895  69.221  1.00  0.00    -0.082 C  
HETATM   28  C   UNL     1      -8.046   8.191  70.497  1.00  0.00    -0.104 C  
HETATM   29  C   UNL     1      -5.684   7.801  71.128  1.00  0.00    -0.034 C  
HETATM   30  C   UNL     1      -7.047   7.086  70.947  1.00  0.00    -0.070 C  
BRANCH  30  31
HETATM   31  N   UNL     1      -6.991   5.929  70.009  1.00  0.00    -0.063 NA 
HETATM   32  C   UNL     1      -7.902   4.817  70.380  1.00  0.00    -0.061 C  
HETATM   33  C   UNL     1      -9.404   5.104  70.132  1.00  0.00    -0.154 C  
HETATM   34  N   UNL     1      -9.727   5.509  68.748  1.00  0.00    -0.135 NA 
HETATM   35  C   UNL     1      -9.666   4.366  67.835  1.00  0.00    -0.129 C  
HETATM   36  C   UNL     1      -8.803   6.580  68.324  1.00  0.00    -0.119 C  
HETATM   37  C   UNL     1      -7.306   6.292  68.604  1.00  0.00    -0.086 C  
ENDBRANCH  30  31
ENDBRANCH  22  25
BRANCH  23  38
HETATM   38  O   UNL     1      -5.202  11.622  71.023  1.00  0.00    -0.121 OA 
HETATM   39  C   UNL     1      -5.536  12.670  71.926  1.00  0.00     0.288 C  
ENDBRANCH  23  38
ENDBRANCH  17  19
ENDBRANCH   8  17
BRANCH   5  40
HETATM   40  C   UNL     1      -6.811  17.694  67.387  1.00  0.00    -0.164 C  
HETATM   41  H2  UNL     1      -6.145  18.618  65.761  1.00  0.00     0.000 HD 
HETATM   42  N   UNL     1      -5.798  18.291  66.662  1.00  0.00    -0.145 N  
HETATM   43  O   UNL     1      -7.189  18.166  68.448  1.00  0.00    -0.241 OA 
HETATM   44  H1  UNL     1      -5.325  19.046  67.159  1.00  0.00     0.000 HD 
ENDBRANCH   5  40
ENDBRANCH   2   3
TORSDOF 9
ENDMDL
MODEL      103
REMARK 921   NORMALIZED FREE ENERGY PREDICTED BY IDOCK:   -1.92 KCAL/MOL
REMARK 922        TOTAL FREE ENERGY PREDICTED BY IDOCK:   -5.07 KCAL/MOL
REMARK 923 INTER-LIGAND FREE ENERGY PREDICTED BY IDOCK:   -6.53 KCAL/MOL
REMARK 924 INTRA-LIGAND FREE ENERGY PREDICTED BY IDOCK:    1.46 KCAL/MOL
REMARK 927      BINDING AFFINITY PREDICTED BY RF-SCORE:    0.00 PKD
ROOT
HETATM    1  C   UNL     1     -13.842  11.453  72.287  1.00  0.00     0.353 C  
HETATM    2  C   UNL     1     -13.015  10.411  71.536  1.00  0.00    -0.562 C  
ENDROOT
BRANCH   2   3
HETATM    3  C   UNL     1     -11.964  10.998  70.655  1.00  0.00    -0.365 A  
HETATM    4  C   UNL     1     -12.004  12.313  70.105  1.00  0.00    -0.298 A  
HETATM    5  C   UNL     1     -10.411  10.362  69.151  1.00  0.00    -0.227 A  
HETATM    6  N   UNL     1     -11.075  12.672  69.158  1.00  0.00    -0.228 NA 
HETATM    7  N   UNL     1     -11.114  10.046  70.255  1.00  0.00    -0.295 NA 
HETATM    8  C   UNL     1     -10.221  11.678  68.692  1.00  0.00    -0.206 A  
BRANCH   4   9
HETATM    9  N   UNL     1     -12.959  13.151  70.648  1.00  0.00    -0.009 NA 
HETATM   10  H   UNL     1     -13.675  12.596  71.116  1.00  0.00     0.000 HD 
BRANCH   9  11
HETATM   11  C   UNL     1     -13.279  14.577  70.772  1.00  0.00    -0.259 C  
HETATM   12  O   UNL     1     -12.703  16.458  72.851  1.00  0.00    -0.357 OA 
HETATM   13  C   UNL     1     -13.470  15.296  73.165  1.00  0.00    -0.414 C  
HETATM   14  C   UNL     1     -12.193  15.627  70.609  1.00  0.00    -0.446 C  
HETATM   15  C   UNL     1     -14.227  14.854  71.934  1.00  0.00    -0.640 C  
HETATM   16  C   UNL     1     -11.656  16.171  71.924  1.00  0.00    -0.402 C  
ENDBRANCH   9  11
ENDBRANCH   4   9
BRANCH   8  17
HETATM   17  N   UNL     1      -9.092  11.986  67.871  1.00  0.00    -0.176 NA 
HETATM   18  H   UNL     1      -8.825  12.970  67.833  1.00  0.00     0.000 HD 
BRANCH  17  19
HETATM   19  C   UNL     1      -8.288  11.095  67.098  1.00  0.00    -0.136 A  
HETATM   20  C   UNL     1      -8.633  10.803  65.780  1.00  0.00    -0.187 A  
HETATM   21  C   UNL     1      -8.103   9.670  65.125  1.00  0.00    -0.124 A  
HETATM   22  C   UNL     1      -7.236   8.758  65.760  1.00  0.00    -0.084 A  
HETATM   23  C   UNL     1      -6.787   9.128  67.047  1.00  0.00    -0.080 A  
HETATM   24  C   UNL     1      -7.274  10.302  67.671  1.00  0.00    -0.087 A  
BRANCH  22  25
HETATM   25  N   UNL     1      -6.978   7.535  65.145  1.00  0.00    -0.057 NA 
HETATM   26  C   UNL     1      -6.182   7.453  63.916  1.00  0.00    -0.048 C  
HETATM   27  C   UNL     1      -7.824   6.371  65.410  1.00  0.00    -0.105 C  
HETATM   28  C   UNL     1      -6.938   5.127  65.493  1.00  0.00    -0.065 C  
HETATM   29  C   UNL     1      -5.295   6.206  63.989  1.00  0.00    -0.018 C  
HETATM   30  C   UNL     1      -6.117   4.908  64.189  1.00  0.00    -0.022 C  
BRANCH  30  31
HETATM   31  N   UNL     1      -6.965   4.555  63.015  1.00  0.00    -0.038 NA 
HETATM   32  C   UNL     1      -6.559   3.293  62.346  1.00  0.00    -0.022 C  
HETATM   33  C   UNL     1      -6.901   2.006  63.137  1.00  0.00    -0.026 C  
HETATM   34  N   UNL     1      -8.324   1.879  63.511  1.00  0.00    -0.075 NA 
HETATM   35  C   UNL     1      -9.148   1.536  62.349  1.00  0.00    -0.071 C  
HETATM   36  C   UNL     1      -8.780   3.139  64.133  1.00  0.00    -0.093 C  
HETATM   37  C   UNL     1      -8.406   4.422  63.346  1.00  0.00    -0.104 C  
ENDBRANCH  30  31
ENDBRANCH  22  25
BRANCH  23  38
HETATM   38  O   UNL     1      -5.839   8.325  67.648  1.00  0.00    -0.041 OA 
HETATM   39  C   UNL     1      -6.274   7.585  68.783  1.00  0.00    -0.032 C  
ENDBRANCH  23  38
ENDBRANCH  17  19
ENDBRANCH   8  17
BRANCH   5  40
HETATM   40  C   UNL     1     -10.369   9.181  68.227  1.00  0.00    -0.214 C  
HETATM   41  H2  UNL     1     -10.077   7.825  69.648  1.00  0.00     0.000 HD 
HETATM   42  N   UNL     1      -9.692   8.092  68.742  1.00  0.00    -0.153 N  
HETATM   43  O   UNL     1     -11.007   9.091  67.189  1.00  0.00    -0.119 OA 
HETATM   44  H1  UNL     1      -9.663   7.289  68.114  1.00  0.00     0.000 HD 
ENDBRANCH   5  40
ENDBRANCH   2   3
TORSDOF 9
ENDMDL
MODEL      104
REMARK 921   NORMALIZED FREE ENERGY PREDICTED BY IDOCK:   -1.82 KCAL/MOL
REMARK 922        TOTAL FREE ENERGY PREDICTED BY IDOCK:   -4.92 KCAL/MOL
REMARK 923 INTER-LIGAND FREE ENERGY PREDICTED BY IDOCK:   -9.08 KCAL/MOL
REMARK 924 INTRA-LIGAND FREE ENERGY PREDICTED BY IDOCK:    4.16 KCAL/MOL
REMARK 927      BINDING AFFINITY PREDICTED BY RF-SCORE:    0.00 PKD
ROOT
HETATM    1  C   UNL     1     -11.422  15.501  71.276  1.00  0.00    -0.462 C  
HETATM    2  C   UNL     1     -12.411  14.934  70.260  1.00  0.00    -0.393 C  
ENDROOT
BRANCH   2   3
HETATM    3  C   UNL     1     -12.048  13.575  69.761  1.00  0.00    -0.318 A  
HETATM    4  C   UNL     1     -11.971  13.207  68.386  1.00  0.00    -0.289 A  
HETATM    5  C   UNL     1     -12.161  11.413  70.385  1.00  0.00    -0.384 A  
HETATM    6  N   UNL     1     -11.814  11.883  68.054  1.00  0.00    -0.526 NA 
HETATM    7  N   UNL     1     -12.049  12.698  70.771  1.00  0.00    -0.259 NA 
HETATM    8  C   UNL     1     -11.868  10.955  69.088  1.00  0.00    -0.317 A  
BRANCH   4   9
HETATM    9  N   UNL     1     -11.990  14.260  67.491  1.00  0.00    -0.500 NA 
HETATM   10  H   UNL     1     -12.520  15.036  67.887  1.00  0.00     0.000 HD 
BRANCH   9  11
HETATM   11  C   UNL     1     -11.498  14.627  66.159  1.00  0.00    -0.339 C  
HETATM   12  O   UNL     1     -10.354  13.035  64.075  1.00  0.00    -0.419 OA 
HETATM   13  C   UNL     1      -9.714  13.066  65.350  1.00  0.00    -0.017 C  
HETATM   14  C   UNL     1     -12.293  14.262  64.917  1.00  0.00    -0.435 C  
HETATM   15  C   UNL     1      -9.999  14.393  66.016  1.00  0.00    -0.337 C  
HETATM   16  C   UNL     1     -11.776  13.028  64.192  1.00  0.00    -0.412 C  
ENDBRANCH   9  11
ENDBRANCH   4   9
BRANCH   8  17
HETATM   17  N   UNL     1     -11.509   9.585  68.884  1.00  0.00    -0.384 NA 
HETATM   18  H   UNL     1     -12.046   9.086  68.175  1.00  0.00     0.000 HD 
BRANCH  17  19
HETATM   19  C   UNL     1     -10.497   8.827  69.545  1.00  0.00    -0.220 A  
HETATM   20  C   UNL     1      -9.968   7.687  68.942  1.00  0.00    -0.178 A  
HETATM   21  C   UNL     1      -9.265   6.725  69.701  1.00  0.00    -0.145 A  
HETATM   22  C   UNL     1      -9.088   6.835  71.095  1.00  0.00    -0.151 A  
HETATM   23  C   UNL     1      -9.508   8.051  71.677  1.00  0.00    -0.164 A  
HETATM   24  C   UNL     1     -10.154   9.039  70.895  1.00  0.00    -0.329 A  
BRANCH  22  25
HETATM   25  N   UNL     1      -8.630   5.726  71.803  1.00  0.00    -0.131 NA 
HETATM   26  C   UNL     1      -7.250   5.250  71.665  1.00  0.00    -0.076 C  
HETATM   27  C   UNL     1      -9.569   4.744  72.345  1.00  0.00    -0.144 C  
HETATM   28  C   UNL     1      -9.074   4.296  73.721  1.00  0.00    -0.093 C  
HETATM   29  C   UNL     1      -6.748   4.794  73.038  1.00  0.00    -0.065 C  
HETATM   30  C   UNL     1      -7.643   3.690  73.657  1.00  0.00    -0.063 C  
BRANCH  30  31
HETATM   31  N   UNL     1      -7.586   2.397  72.918  1.00  0.00    -0.044 NA 
HETATM   32  C   UNL     1      -8.184   2.460  71.560  1.00  0.00    -0.055 C  
HETATM   33  C   UNL     1      -7.338   3.235  70.519  1.00  0.00    -0.040 C  
HETATM   34  N   UNL     1      -5.950   2.749  70.377  1.00  0.00    -0.018 NA 
HETATM   35  C   UNL     1      -5.907   1.477  69.652  1.00  0.00    -0.022 C  
HETATM   36  C   UNL     1      -5.339   2.621  71.716  1.00  0.00    -0.004 C  
HETATM   37  C   UNL     1      -6.208   1.869  72.756  1.00  0.00    -0.009 C  
ENDBRANCH  30  31
ENDBRANCH  22  25
BRANCH  23  38
HETATM   38  O   UNL     1      -9.236   8.247  73.015  1.00  0.00    -0.260 OA 
HETATM   39  C   UNL     1      -7.879   8.525  73.344  1.00  0.00     0.004 C  
ENDBRANCH  23  38
ENDBRANCH  17  19
ENDBRANCH   8  17
BRANCH   5  40
HETATM   40  C   UNL     1     -13.131  10.702  71.282  1.00  0.00    -0.359 C  
HETATM   41  H2  UNL     1     -13.981  12.347  72.000  1.00  0.00     0.000 HD 
HETATM   42  N   UNL     1     -13.582  11.471  72.338  1.00  0.00    -0.410 N  
HETATM   43  O   UNL     1     -13.631   9.615  71.038  1.00  0.00    -0.309 OA 
HETATM   44  H1  UNL     1     -14.242  10.988  72.948  1.00  0.00     0.000 HD 
ENDBRANCH   5  40
ENDBRANCH   2   3
TORSDOF 9
ENDMDL
MODEL      105
REMARK 921   NORMALIZED FREE ENERGY PREDICTED BY IDOCK:   -1.74 KCAL/MOL
REMARK 922        TOTAL FREE ENERGY PREDICTED BY IDOCK:   -4.79 KCAL/MOL
REMARK 923 INTER-LIGAND FREE ENERGY PREDICTED BY IDOCK:   -8.33 KCAL/MOL
REMARK 924 INTRA-LIGAND FREE ENERGY PREDICTED BY IDOCK:    3.54 KCAL/MOL
REMARK 927      BINDING AFFINITY PREDICTED BY RF-SCORE:    0.00 PKD
ROOT
HETATM    1  C   UNL     1     -11.127  15.780  71.494  1.00  0.00    -0.184 C  
HETATM    2  C   UNL     1     -12.151  15.343  70.450  1.00  0.00    -0.408 C  
ENDROOT
BRANCH   2   3
HETATM    3  C   UNL     1     -11.825  14.044  69.794  1.00  0.00    -0.324 A  
HETATM    4  C   UNL     1     -11.784  13.831  68.385  1.00  0.00    -0.358 A  
HETATM    5  C   UNL     1     -11.965  11.827  70.174  1.00  0.00    -0.339 A  
HETATM    6  N   UNL     1     -11.659  12.551  67.903  1.00  0.00    -0.328 NA 
HETATM    7  N   UNL     1     -11.821  13.058  70.699  1.00  0.00    -0.128 NA 
HETATM    8  C   UNL     1     -11.709  11.513  68.827  1.00  0.00    -0.334 A  
BRANCH   4   9
HETATM    9  N   UNL     1     -11.803  14.979  67.614  1.00  0.00    -0.425 NA 
HETATM   10  H   UNL     1     -12.765  15.296  67.495  1.00  0.00     0.000 HD 
BRANCH   9  11
HETATM   11  C   UNL     1     -10.893  15.889  66.912  1.00  0.00    -0.240 C  
HETATM   12  O   UNL     1      -8.160  16.571  67.416  1.00  0.00    -0.143 OA 
HETATM   13  C   UNL     1      -9.131  16.819  68.432  1.00  0.00    -0.233 C  
HETATM   14  C   UNL     1      -9.770  15.340  66.049  1.00  0.00    -0.367 C  
HETATM   15  C   UNL     1     -10.474  17.068  67.784  1.00  0.00    -0.349 C  
HETATM   16  C   UNL     1      -8.408  15.346  66.728  1.00  0.00    -0.250 C  
ENDBRANCH   9  11
ENDBRANCH   4   9
BRANCH   8  17
HETATM   17  N   UNL     1     -11.380  10.169  68.463  1.00  0.00    -0.491 NA 
HETATM   18  H   UNL     1     -11.872   9.796  67.651  1.00  0.00     0.000 HD 
BRANCH  17  19
HETATM   19  C   UNL     1     -10.453   9.283  69.089  1.00  0.00    -0.217 A  
HETATM   20  C   UNL     1     -10.793   7.949  69.305  1.00  0.00    -0.077 A  
HETATM   21  C   UNL     1     -10.081   7.160  70.234  1.00  0.00    -0.195 A  
HETATM   22  C   UNL     1      -9.024   7.669  71.015  1.00  0.00    -0.146 A  
HETATM   23  C   UNL     1      -8.598   8.978  70.698  1.00  0.00    -0.210 A  
HETATM   24  C   UNL     1      -9.278   9.740  69.718  1.00  0.00    -0.248 A  
BRANCH  22  25
HETATM   25  N   UNL     1      -8.558   6.915  72.090  1.00  0.00    -0.117 NA 
HETATM   26  C   UNL     1      -7.266   6.223  72.033  1.00  0.00    -0.091 C  
HETATM   27  C   UNL     1      -9.481   6.413  73.107  1.00  0.00    -0.138 C  
HETATM   28  C   UNL     1      -8.814   6.528  74.478  1.00  0.00    -0.187 C  
HETATM   29  C   UNL     1      -6.593   6.329  73.405  1.00  0.00    -0.074 C  
HETATM   30  C   UNL     1      -7.471   5.745  74.540  1.00  0.00    -0.087 C  
BRANCH  30  31
HETATM   31  N   UNL     1      -7.650   4.267  74.452  1.00  0.00    -0.076 NA 
HETATM   32  C   UNL     1      -8.380   3.828  73.237  1.00  0.00    -0.087 C  
HETATM   33  C   UNL     1      -7.567   3.933  71.923  1.00  0.00    -0.061 C  
HETATM   34  N   UNL     1      -6.270   3.225  71.949  1.00  0.00    -0.014 NA 
HETATM   35  C   UNL     1      -6.458   1.775  71.865  1.00  0.00    -0.015 C  
HETATM   36  C   UNL     1      -5.536   3.597  73.176  1.00  0.00     0.000 C  
HETATM   37  C   UNL     1      -6.370   3.516  74.480  1.00  0.00    -0.022 C  
ENDBRANCH  30  31
ENDBRANCH  22  25
BRANCH  23  38
HETATM   38  O   UNL     1      -7.484   9.463  71.352  1.00  0.00    -0.335 OA 
HETATM   39  C   UNL     1      -6.226   9.146  70.768  1.00  0.00    -0.053 C  
ENDBRANCH  23  38
ENDBRANCH  17  19
ENDBRANCH   8  17
BRANCH   5  40
HETATM   40  C   UNL     1     -12.930  11.036  71.008  1.00  0.00    -0.276 C  
HETATM   41  H2  UNL     1     -13.487  12.553  72.161  1.00  0.00     0.000 HD 
HETATM   42  N   UNL     1     -13.175  11.586  72.252  1.00  0.00    -0.506 N  
HETATM   43  O   UNL     1     -13.586  10.091  70.598  1.00  0.00    -0.194 OA 
HETATM   44  H1  UNL     1     -13.831  11.049  72.819  1.00  0.00     0.000 HD 
ENDBRANCH   5  40
ENDBRANCH   2   3
TORSDOF 9
ENDMDL
MODEL      106
REMARK 921   NORMALIZED FREE ENERGY PREDICTED BY IDOCK:   -1.62 KCAL/MOL
REMARK 922        TOTAL FREE ENERGY PREDICTED BY IDOCK:   -4.61 KCAL/MOL
REMARK 923 INTER-LIGAND FREE ENERGY PREDICTED BY IDOCK:   -6.76 KCAL/MOL
REMARK 924 INTRA-LIGAND FREE ENERGY PREDICTED BY IDOCK:    2.15 KCAL/MOL
REMARK 927      BINDING AFFINITY PREDICTED BY RF-SCORE:    0.00 PKD
ROOT
HETATM    1  C   UNL     1      -8.571   5.982  68.233  1.00  0.00    -0.115 C  
HETATM    2  C   UNL     1      -9.904   6.178  67.516  1.00  0.00    -0.140 C  
ENDROOT
BRANCH   2   3
HETATM    3  C   UNL     1     -10.327   7.605  67.411  1.00  0.00    -0.277 A  
HETATM    4  C   UNL     1      -9.845   8.528  66.438  1.00  0.00    -0.257 A  
HETATM    5  C   UNL     1     -11.080   9.288  68.707  1.00  0.00     0.096 A  
HETATM    6  N   UNL     1     -10.164   9.859  66.560  1.00  0.00    -0.234 NA 
HETATM    7  N   UNL     1     -11.025   7.959  68.497  1.00  0.00     0.103 NA 
HETATM    8  C   UNL     1     -10.840  10.251  67.710  1.00  0.00    -0.292 A  
BRANCH   4   9
HETATM    9  N   UNL     1      -9.140   7.966  65.391  1.00  0.00    -0.393 NA 
HETATM   10  H   UNL     1      -9.781   7.731  64.633  1.00  0.00     0.000 HD 
BRANCH   9  11
HETATM   11  C   UNL     1      -7.772   7.599  65.012  1.00  0.00    -0.109 C  
HETATM   12  O   UNL     1      -6.696   6.669  62.528  1.00  0.00    -0.041 OA 
HETATM   13  C   UNL     1      -7.727   5.912  63.160  1.00  0.00    -0.094 C  
HETATM   14  C   UNL     1      -6.950   8.510  64.116  1.00  0.00    -0.078 C  
HETATM   15  C   UNL     1      -7.652   6.121  64.655  1.00  0.00    -0.093 C  
HETATM   16  C   UNL     1      -6.909   8.074  62.659  1.00  0.00    -0.086 C  
ENDBRANCH   9  11
ENDBRANCH   4   9
BRANCH   8  17
HETATM   17  N   UNL     1     -11.401  11.560  67.840  1.00  0.00    -0.283 NA 
HETATM   18  H   UNL     1     -12.410  11.626  67.708  1.00  0.00     0.000 HD 
BRANCH  17  19
HETATM   19  C   UNL     1     -10.732  12.787  68.129  1.00  0.00    -0.226 A  
HETATM   20  C   UNL     1     -11.315  14.004  67.782  1.00  0.00    -0.328 A  
HETATM   21  C   UNL     1     -10.543  15.183  67.705  1.00  0.00    -0.263 A  
HETATM   22  C   UNL     1      -9.152  15.200  67.933  1.00  0.00    -0.179 A  
HETATM   23  C   UNL     1      -8.591  13.995  68.412  1.00  0.00    -0.174 A  
HETATM   24  C   UNL     1      -9.388  12.834  68.549  1.00  0.00    -0.078 A  
BRANCH  22  25
HETATM   25  N   UNL     1      -8.425  16.333  67.574  1.00  0.00    -0.166 NA 
HETATM   26  C   UNL     1      -7.309  16.254  66.626  1.00  0.00    -0.169 C  
HETATM   27  C   UNL     1      -8.430  17.524  68.422  1.00  0.00    -0.275 C  
HETATM   28  C   UNL     1      -8.469  18.765  67.529  1.00  0.00    -0.288 C  
HETATM   29  C   UNL     1      -7.338  17.497  65.730  1.00  0.00    -0.021 C  
HETATM   30  C   UNL     1      -7.265  18.813  66.545  1.00  0.00    -0.230 C  
BRANCH  30  31
HETATM   31  N   UNL     1      -5.956  19.016  67.228  1.00  0.00    -0.164 NA 
HETATM   32  C   UNL     1      -5.683  20.432  67.581  1.00  0.00    -0.192 C  
HETATM   33  C   UNL     1      -6.524  20.976  68.762  1.00  0.00     0.198 C  
HETATM   34  N   UNL     1      -6.426  20.177  70.001  1.00  0.00    -0.335 NA 
HETATM   35  C   UNL     1      -5.136  20.381  70.662  1.00  0.00    -0.258 C  
HETATM   36  C   UNL     1      -6.641  18.751  69.680  1.00  0.00    -0.145 C  
HETATM   37  C   UNL     1      -5.814  18.226  68.478  1.00  0.00    -0.181 C  
ENDBRANCH  30  31
ENDBRANCH  22  25
BRANCH  23  38
HETATM   38  O   UNL     1      -7.258  14.009  68.769  1.00  0.00    -0.105 OA 
HETATM   39  C   UNL     1      -6.591  12.751  68.750  1.00  0.00    -0.090 C  
ENDBRANCH  23  38
ENDBRANCH  17  19
ENDBRANCH   8  17
BRANCH   5  40
HETATM   40  C   UNL     1     -10.861   9.576  70.163  1.00  0.00    -0.258 C  
HETATM   41  H2  UNL     1     -12.715  10.187  70.527  1.00  0.00     0.000 HD 
HETATM   42  N   UNL     1     -11.755  10.487  70.693  1.00  0.00    -0.335 N  
HETATM   43  O   UNL     1     -10.094   8.957  70.883  1.00  0.00    -0.204 OA 
HETATM   44  H1  UNL     1     -11.607  10.683  71.683  1.00  0.00     0.000 HD 
ENDBRANCH   5  40
ENDBRANCH   2   3
TORSDOF 9
ENDMDL
MODEL      107
REMARK 921   NORMALIZED FREE ENERGY PREDICTED BY IDOCK:   -1.54 KCAL/MOL
REMARK 922        TOTAL FREE ENERGY PREDICTED BY IDOCK:   -4.49 KCAL/MOL
REMARK 923 INTER-LIGAND FREE ENERGY PREDICTED BY IDOCK:   -9.83 KCAL/MOL
REMARK 924 INTRA-LIGAND FREE ENERGY PREDICTED BY IDOCK:    5.34 KCAL/MOL
REMARK 927      BINDING AFFINITY PREDICTED BY RF-SCORE:    0.00 PKD
ROOT
HETATM    1  C   UNL     1      -8.718   8.922  65.107  1.00  0.00    -0.213 C  
HETATM    2  C   UNL     1      -9.701   8.314  66.106  1.00  0.00    -0.189 C  
ENDROOT
BRANCH   2   3
HETATM    3  C   UNL     1     -10.268   9.302  67.070  1.00  0.00    -0.262 A  
HETATM    4  C   UNL     1     -10.991   8.963  68.250  1.00  0.00     0.121 A  
HETATM    5  C   UNL     1     -11.068  11.407  67.123  1.00  0.00    -0.305 A  
HETATM    6  N   UNL     1     -11.626   9.957  68.956  1.00  0.00     0.058 NA 
HETATM    7  N   UNL     1     -10.221  10.534  66.549  1.00  0.00    -0.224 NA 
HETATM    8  C   UNL     1     -11.633  11.231  68.399  1.00  0.00    -0.308 A  
BRANCH   4   9
HETATM    9  N   UNL     1     -10.922   7.635  68.624  1.00  0.00    -0.424 NA 
HETATM   10  H   UNL     1     -10.618   7.071  67.831  1.00  0.00     0.000 HD 
BRANCH   9  11
HETATM   11  C   UNL     1     -11.141   6.770  69.788  1.00  0.00    -0.316 C  
HETATM   12  O   UNL     1     -10.143   6.934  72.466  1.00  0.00    -0.169 OA 
HETATM   13  C   UNL     1      -9.214   6.833  71.387  1.00  0.00    -0.153 C  
HETATM   14  C   UNL     1     -12.025   7.233  70.934  1.00  0.00    -0.342 C  
HETATM   15  C   UNL     1      -9.859   6.084  70.244  1.00  0.00    -0.221 C  
HETATM   16  C   UNL     1     -11.256   7.765  72.134  1.00  0.00    -0.297 C  
ENDBRANCH   9  11
ENDBRANCH   4   9
BRANCH   8  17
HETATM   17  N   UNL     1     -12.076  12.370  69.142  1.00  0.00    -0.213 NA 
HETATM   18  H   UNL     1     -12.950  12.255  69.653  1.00  0.00     0.000 HD 
BRANCH  17  19
HETATM   19  C   UNL     1     -11.452  13.649  69.259  1.00  0.00    -0.291 A  
HETATM   20  C   UNL     1     -12.225  14.790  69.467  1.00  0.00    -0.280 A  
HETATM   21  C   UNL     1     -11.701  16.077  69.215  1.00  0.00    -0.302 A  
HETATM   22  C   UNL     1     -10.400  16.285  68.711  1.00  0.00    -0.261 A  
HETATM   23  C   UNL     1      -9.580  15.139  68.629  1.00  0.00    -0.213 A  
HETATM   24  C   UNL     1     -10.095  13.859  68.947  1.00  0.00    -0.106 A  
BRANCH  22  25
HETATM   25  N   UNL     1     -10.059  17.549  68.235  1.00  0.00    -0.324 NA 
HETATM   26  C   UNL     1     -10.300  17.929  66.839  1.00  0.00    -0.355 C  
HETATM   27  C   UNL     1      -9.071  18.370  68.935  1.00  0.00    -0.160 C  
HETATM   28  C   UNL     1      -9.533  19.828  68.907  1.00  0.00    -0.310 C  
HETATM   29  C   UNL     1     -10.758  19.390  66.801  1.00  0.00    -0.550 C  
HETATM   30  C   UNL     1      -9.730  20.348  67.454  1.00  0.00    -0.457 C  
BRANCH  30  31
HETATM   31  N   UNL     1      -8.453  20.457  66.692  1.00  0.00    -0.209 NA 
HETATM   32  C   UNL     1      -7.301  20.892  67.520  1.00  0.00    -0.281 C  
HETATM   33  C   UNL     1      -6.769  19.817  68.500  1.00  0.00    -0.295 C  
HETATM   34  N   UNL     1      -6.405  18.536  67.862  1.00  0.00    -0.194 NA 
HETATM   35  C   UNL     1      -5.151  18.654  67.114  1.00  0.00    -0.133 C  
HETATM   36  C   UNL     1      -7.510  18.096  66.985  1.00  0.00    -0.208 C  
HETATM   37  C   UNL     1      -8.052  19.190  66.029  1.00  0.00    -0.189 C  
ENDBRANCH  30  31
ENDBRANCH  22  25
BRANCH  23  38
HETATM   38  O   UNL     1      -8.262  15.321  68.263  1.00  0.00    -0.136 OA 
HETATM   39  C   UNL     1      -7.558  14.155  67.852  1.00  0.00    -0.158 C  
ENDBRANCH  23  38
ENDBRANCH  17  19
ENDBRANCH   8  17
BRANCH   5  40
HETATM   40  C   UNL     1     -11.740  12.227  66.060  1.00  0.00    -0.388 C  
HETATM   41  H2  UNL     1     -11.173  11.084  64.539  1.00  0.00     0.000 HD 
HETATM   42  N   UNL     1     -11.190  12.070  64.802  1.00  0.00    -0.316 N  
HETATM   43  O   UNL     1     -12.780  12.847  66.218  1.00  0.00    -0.254 OA 
HETATM   44  H1  UNL     1     -11.647  12.626  64.080  1.00  0.00     0.000 HD 
ENDBRANCH   5  40
ENDBRANCH   2   3
TORSDOF 9
ENDMDL
MODEL      108
REMARK 921   NORMALIZED FREE ENERGY PREDICTED BY IDOCK:   -1.25 KCAL/MOL
REMARK 922        TOTAL FREE ENERGY PREDICTED BY IDOCK:   -4.05 KCAL/MOL
REMARK 923 INTER-LIGAND FREE ENERGY PREDICTED BY IDOCK:   -3.86 KCAL/MOL
REMARK 924 INTRA-LIGAND FREE ENERGY PREDICTED BY IDOCK:   -0.19 KCAL/MOL
REMARK 927      BINDING AFFINITY PREDICTED BY RF-SCORE:    0.00 PKD
ROOT
HETATM    1  C   UNL     1     -11.312  14.970  69.853  1.00  0.00    -0.307 C  
HETATM    2  C   UNL     1     -10.673  15.720  68.687  1.00  0.00    -0.263 C  
ENDROOT
BRANCH   2   3
HETATM    3  C   UNL     1      -9.370  15.144  68.242  1.00  0.00    -0.193 A  
HETATM    4  C   UNL     1      -8.431  15.808  67.401  1.00  0.00    -0.171 A  
HETATM    5  C   UNL     1      -8.414  13.148  67.819  1.00  0.00    -0.185 A  
HETATM    6  N   UNL     1      -7.359  15.106  66.906  1.00  0.00    -0.081 NA 
HETATM    7  N   UNL     1      -9.320  13.839  68.535  1.00  0.00    -0.180 NA 
HETATM    8  C   UNL     1      -7.323  13.737  67.155  1.00  0.00     0.167 A  
BRANCH   4   9
HETATM    9  N   UNL     1      -8.658  17.159  67.215  1.00  0.00    -0.198 NA 
HETATM   10  H   UNL     1      -9.614  17.304  66.890  1.00  0.00     0.000 HD 
BRANCH   9  11
HETATM   11  C   UNL     1      -7.975  18.451  67.331  1.00  0.00    -0.238 C  
HETATM   12  O   UNL     1      -8.779  20.895  68.585  1.00  0.00     0.871 OA 
HETATM   13  C   UNL     1      -9.588  20.356  67.541  1.00  0.00    -0.420 C  
HETATM   14  C   UNL     1      -7.381  18.891  68.659  1.00  0.00    -0.343 C  
HETATM   15  C   UNL     1      -8.716  19.562  66.596  1.00  0.00    -0.377 C  
HETATM   16  C   UNL     1      -8.249  19.874  69.430  1.00  0.00     0.302 C  
ENDBRANCH   9  11
ENDBRANCH   4   9
BRANCH   8  17
HETATM   17  N   UNL     1      -6.159  12.956  66.872  1.00  0.00    -0.415 NA 
HETATM   18  H   UNL     1      -5.471  13.390  66.256  1.00  0.00     0.000 HD 
BRANCH  17  19
HETATM   19  C   UNL     1      -5.835  11.647  67.340  1.00  0.00    -0.092 A  
HETATM   20  C   UNL     1      -5.802  10.573  66.453  1.00  0.00    -0.081 A  
HETATM   21  C   UNL     1      -5.861   9.242  66.922  1.00  0.00    -0.051 A  
HETATM   22  C   UNL     1      -5.992   8.921  68.289  1.00  0.00    -0.042 A  
HETATM   23  C   UNL     1      -5.891  10.004  69.190  1.00  0.00    -0.037 A  
HETATM   24  C   UNL     1      -5.766  11.330  68.711  1.00  0.00    -0.042 A  
BRANCH  22  25
HETATM   25  N   UNL     1      -6.315   7.613  68.644  1.00  0.00    -0.035 NA 
HETATM   26  C   UNL     1      -7.685   7.104  68.513  1.00  0.00    -0.120 C  
HETATM   27  C   UNL     1      -5.460   6.851  69.552  1.00  0.00    -0.015 C  
HETATM   28  C   UNL     1      -5.390   5.403  69.065  1.00  0.00     0.000 C  
HETATM   29  C   UNL     1      -7.624   5.652  68.030  1.00  0.00    -0.085 C  
HETATM   30  C   UNL     1      -6.799   4.748  68.981  1.00  0.00    -0.051 C  
BRANCH  30  31
HETATM   31  N   UNL     1      -7.435   4.552  70.314  1.00  0.00    -0.049 NA 
HETATM   32  C   UNL     1      -8.873   4.192  70.240  1.00  0.00    -0.085 C  
HETATM   33  C   UNL     1      -9.153   2.748  69.756  1.00  0.00    -0.122 C  
HETATM   34  N   UNL     1      -8.467   1.699  70.538  1.00  0.00    -0.044 NA 
HETATM   35  C   UNL     1      -9.098   1.517  71.847  1.00  0.00    -0.070 C  
HETATM   36  C   UNL     1      -7.039   2.051  70.679  1.00  0.00    -0.033 C  
HETATM   37  C   UNL     1      -6.773   3.508  71.136  1.00  0.00    -0.031 C  
ENDBRANCH  30  31
ENDBRANCH  22  25
BRANCH  23  38
HETATM   38  O   UNL     1      -5.886   9.715  70.539  1.00  0.00    -0.047 OA 
HETATM   39  C   UNL     1      -7.119   9.266  71.088  1.00  0.00    -0.041 C  
ENDBRANCH  23  38
ENDBRANCH  17  19
ENDBRANCH   8  17
BRANCH   5  40
HETATM   40  C   UNL     1      -9.016  11.850  67.366  1.00  0.00    -0.173 C  
HETATM   41  H2  UNL     1      -7.789  11.588  65.826  1.00  0.00     0.000 HD 
HETATM   42  N   UNL     1      -8.788  11.564  66.033  1.00  0.00    -0.317 N  
HETATM   43  O   UNL     1      -9.513  11.020  68.111  1.00  0.00    -0.160 OA 
HETATM   44  H1  UNL     1      -9.196  10.681  65.725  1.00  0.00     0.000 HD 
ENDBRANCH   5  40
ENDBRANCH   2   3
TORSDOF 9
ENDMDL
MODEL      109
REMARK 921   NORMALIZED FREE ENERGY PREDICTED BY IDOCK:   -1.17 KCAL/MOL
REMARK 922        TOTAL FREE ENERGY PREDICTED BY IDOCK:   -3.93 KCAL/MOL
REMARK 923 INTER-LIGAND FREE ENERGY PREDICTED BY IDOCK:   -5.82 KCAL/MOL
REMARK 924 INTRA-LIGAND FREE ENERGY PREDICTED BY IDOCK:    1.89 KCAL/MOL
REMARK 927      BINDING AFFINITY PREDICTED BY RF-SCORE:    0.00 PKD
ROOT
HETATM    1  C   UNL     1     -10.530   4.847  70.458  1.00  0.00    -0.170 C  
HETATM    2  C   UNL     1      -9.560   6.026  70.426  1.00  0.00    -0.194 C  
ENDROOT
BRANCH   2   3
HETATM    3  C   UNL     1      -9.489   6.712  69.103  1.00  0.00    -0.136 A  
HETATM    4  C   UNL     1      -8.614   6.341  68.040  1.00  0.00    -0.116 A  
HETATM    5  C   UNL     1      -9.829   8.740  68.182  1.00  0.00    -0.168 A  
HETATM    6  N   UNL     1      -8.505   7.162  66.944  1.00  0.00    -0.120 NA 
HETATM    7  N   UNL     1     -10.173   7.861  69.142  1.00  0.00    -0.212 NA 
HETATM    8  C   UNL     1      -9.165   8.385  66.994  1.00  0.00    -0.151 A  
BRANCH   4   9
HETATM    9  N   UNL     1      -7.994   5.115  68.187  1.00  0.00    -0.087 NA 
HETATM   10  H   UNL     1      -8.353   4.646  69.018  1.00  0.00     0.000 HD 
BRANCH   9  11
HETATM   11  C   UNL     1      -6.989   4.266  67.538  1.00  0.00    -0.063 C  
HETATM   12  O   UNL     1      -6.091   4.159  64.822  1.00  0.00    -0.022 OA 
HETATM   13  C   UNL     1      -7.471   3.927  65.103  1.00  0.00    -0.077 C  
HETATM   14  C   UNL     1      -5.645   4.843  67.127  1.00  0.00    -0.013 C  
HETATM   15  C   UNL     1      -7.604   3.344  66.492  1.00  0.00    -0.077 C  
HETATM   16  C   UNL     1      -5.545   5.187  65.648  1.00  0.00    -0.014 C  
ENDBRANCH   9  11
ENDBRANCH   4   9
BRANCH   8  17
HETATM   17  N   UNL     1      -9.292   9.216  65.836  1.00  0.00    -0.226 NA 
HETATM   18  H   UNL     1      -9.544   8.738  64.972  1.00  0.00     0.000 HD 
BRANCH  17  19
HETATM   19  C   UNL     1      -9.110  10.628  65.735  1.00  0.00    -0.186 A  
HETATM   20  C   UNL     1      -7.883  11.203  66.059  1.00  0.00    -0.020 A  
HETATM   21  C   UNL     1      -7.778  12.584  66.332  1.00  0.00     0.695 A  
HETATM   22  C   UNL     1      -8.892  13.448  66.330  1.00  0.00     0.249 A  
HETATM   23  C   UNL     1     -10.105  12.889  65.872  1.00  0.00    -0.289 A  
HETATM   24  C   UNL     1     -10.185  11.516  65.538  1.00  0.00    -0.303 A  
BRANCH  22  25
HETATM   25  N   UNL     1      -8.754  14.725  66.870  1.00  0.00    -0.236 NA 
HETATM   26  C   UNL     1      -9.202  15.915  66.139  1.00  0.00    -0.349 C  
HETATM   27  C   UNL     1      -7.787  14.985  67.936  1.00  0.00    -0.138 C  
HETATM   28  C   UNL     1      -8.409  15.959  68.938  1.00  0.00    -0.226 C  
HETATM   29  C   UNL     1      -9.823  16.898  67.137  1.00  0.00    -0.270 C  
HETATM   30  C   UNL     1      -8.836  17.295  68.265  1.00  0.00    -0.258 C  
BRANCH  30  31
HETATM   31  N   UNL     1      -7.681  18.105  67.785  1.00  0.00    -0.224 NA 
HETATM   32  C   UNL     1      -7.800  19.553  68.094  1.00  0.00    -0.312 C  
HETATM   33  C   UNL     1      -7.592  19.912  69.586  1.00  0.00     0.199 C  
HETATM   34  N   UNL     1      -6.316  19.434  70.157  1.00  0.00    -0.201 NA 
HETATM   35  C   UNL     1      -5.189  20.235  69.677  1.00  0.00    -0.246 C  
HETATM   36  C   UNL     1      -6.137  18.006  69.823  1.00  0.00    -0.208 C  
HETATM   37  C   UNL     1      -6.376  17.655  68.332  1.00  0.00    -0.187 C  
ENDBRANCH  30  31
ENDBRANCH  22  25
BRANCH  23  38
HETATM   38  O   UNL     1     -11.187  13.735  65.734  1.00  0.00    -0.295 OA 
HETATM   39  C   UNL     1     -11.949  13.975  66.911  1.00  0.00    -0.447 C  
ENDBRANCH  23  38
ENDBRANCH  17  19
ENDBRANCH   8  17
BRANCH   5  40
HETATM   40  C   UNL     1      -9.722  10.115  68.775  1.00  0.00    -0.172 C  
HETATM   41  H2  UNL     1      -8.089   9.746  69.842  1.00  0.00     0.000 HD 
HETATM   42  N   UNL     1      -9.014  10.158  69.961  1.00  0.00    -0.380 N  
HETATM   43  O   UNL     1     -10.062  11.141  68.208  1.00  0.00    -0.172 OA 
HETATM   44  H1  UNL     1      -8.941  11.092  70.364  1.00  0.00     0.000 HD 
ENDBRANCH   5  40
ENDBRANCH   2   3
TORSDOF 9
ENDMDL
MODEL      110
REMARK 921   NORMALIZED FREE ENERGY PREDICTED BY IDOCK:   -1.17 KCAL/MOL
REMARK 922        TOTAL FREE ENERGY PREDICTED BY IDOCK:   -3.92 KCAL/MOL
REMARK 923 INTER-LIGAND FREE ENERGY PREDICTED BY IDOCK:   -5.96 KCAL/MOL
REMARK 924 INTRA-LIGAND FREE ENERGY PREDICTED BY IDOCK:    2.04 KCAL/MOL
REMARK 927      BINDING AFFINITY PREDICTED BY RF-SCORE:    0.00 PKD
ROOT
HETATM    1  C   UNL     1     -13.226  15.158  71.387  1.00  0.00    -0.528 C  
HETATM    2  C   UNL     1     -12.618  15.422  70.011  1.00  0.00    -0.269 C  
ENDROOT
BRANCH   2   3
HETATM    3  C   UNL     1     -11.421  14.584  69.711  1.00  0.00    -0.279 A  
HETATM    4  C   UNL     1     -10.425  14.903  68.743  1.00  0.00    -0.242 A  
HETATM    5  C   UNL     1     -10.759  12.430  69.754  1.00  0.00     0.629 A  
HETATM    6  N   UNL     1      -9.474  13.964  68.423  1.00  0.00    -0.216 NA 
HETATM    7  N   UNL     1     -11.541  13.385  70.293  1.00  0.00    -0.126 NA 
HETATM    8  C   UNL     1      -9.618  12.696  68.976  1.00  0.00     0.389 A  
BRANCH   4   9
HETATM    9  N   UNL     1     -10.470  16.195  68.254  1.00  0.00    -0.265 NA 
HETATM   10  H   UNL     1     -11.291  16.673  68.625  1.00  0.00     0.000 HD 
BRANCH   9  11
HETATM   11  C   UNL     1      -9.724  17.104  67.378  1.00  0.00    -0.253 C  
HETATM   12  O   UNL     1      -9.436  19.951  67.431  1.00  0.00    -0.326 OA 
HETATM   13  C   UNL     1     -10.743  19.392  67.304  1.00  0.00    -0.490 C  
HETATM   14  C   UNL     1      -8.442  17.760  67.862  1.00  0.00    -0.245 C  
HETATM   15  C   UNL     1     -10.644  18.050  66.614  1.00  0.00    -0.268 C  
HETATM   16  C   UNL     1      -8.619  19.198  68.326  1.00  0.00    -0.335 C  
ENDBRANCH   9  11
ENDBRANCH   4   9
BRANCH   8  17
HETATM   17  N   UNL     1      -8.581  11.716  68.880  1.00  0.00    -0.368 NA 
HETATM   18  H   UNL     1      -7.629  12.078  68.849  1.00  0.00     0.000 HD 
BRANCH  17  19
HETATM   19  C   UNL     1      -8.707  10.295  68.823  1.00  0.00    -0.144 A  
HETATM   20  C   UNL     1      -7.912   9.487  69.633  1.00  0.00    -0.120 A  
HETATM   21  C   UNL     1      -7.738   8.116  69.342  1.00  0.00    -0.103 A  
HETATM   22  C   UNL     1      -8.316   7.496  68.215  1.00  0.00    -0.125 A  
HETATM   23  C   UNL     1      -9.224   8.285  67.476  1.00  0.00    -0.137 A  
HETATM   24  C   UNL     1      -9.442   9.642  67.814  1.00  0.00    -0.146 A  
BRANCH  22  25
HETATM   25  N   UNL     1      -7.880   6.224  67.851  1.00  0.00    -0.102 NA 
HETATM   26  C   UNL     1      -7.523   5.909  66.463  1.00  0.00    -0.087 C  
HETATM   27  C   UNL     1      -8.175   5.063  68.690  1.00  0.00    -0.085 C  
HETATM   28  C   UNL     1      -6.953   4.142  68.704  1.00  0.00    -0.048 C  
HETATM   29  C   UNL     1      -6.303   4.982  66.469  1.00  0.00    -0.036 C  
HETATM   30  C   UNL     1      -6.554   3.681  67.273  1.00  0.00    -0.042 C  
BRANCH  30  31
HETATM   31  N   UNL     1      -7.562   2.780  66.645  1.00  0.00    -0.074 NA 
HETATM   32  C   UNL     1      -8.342   3.425  65.558  1.00  0.00    -0.099 C  
HETATM   33  C   UNL     1      -7.550   3.658  64.248  1.00  0.00    -0.076 C  
HETATM   34  N   UNL     1      -6.922   2.442  63.690  1.00  0.00    -0.035 NA 
HETATM   35  C   UNL     1      -7.921   1.563  63.079  1.00  0.00    -0.056 C  
HETATM   36  C   UNL     1      -6.179   1.743  64.759  1.00  0.00    -0.018 C  
HETATM   37  C   UNL     1      -6.973   1.542  66.075  1.00  0.00    -0.042 C  
ENDBRANCH  30  31
ENDBRANCH  22  25
BRANCH  23  38
HETATM   38  O   UNL     1      -9.906   7.674  66.443  1.00  0.00    -0.191 OA 
HETATM   39  C   UNL     1     -11.139   7.054  66.786  1.00  0.00     0.100 C  
ENDBRANCH  23  38
ENDBRANCH  17  19
ENDBRANCH   8  17
BRANCH   5  40
HETATM   40  C   UNL     1     -11.547  11.161  69.607  1.00  0.00    -0.326 C  
HETATM   41  H2  UNL     1     -12.496  11.313  71.344  1.00  0.00     0.000 HD 
HETATM   42  N   UNL     1     -11.969  10.623  70.808  1.00  0.00    -0.349 N  
HETATM   43  O   UNL     1     -11.944  10.712  68.543  1.00  0.00    -0.425 OA 
HETATM   44  H1  UNL     1     -12.505   9.761  70.708  1.00  0.00     0.000 HD 
ENDBRANCH   5  40
ENDBRANCH   2   3
TORSDOF 9
ENDMDL
MODEL      111
REMARK 921   NORMALIZED FREE ENERGY PREDICTED BY IDOCK:   -1.10 KCAL/MOL
REMARK 922        TOTAL FREE ENERGY PREDICTED BY IDOCK:   -3.81 KCAL/MOL
REMARK 923 INTER-LIGAND FREE ENERGY PREDICTED BY IDOCK:   -4.83 KCAL/MOL
REMARK 924 INTRA-LIGAND FREE ENERGY PREDICTED BY IDOCK:    1.02 KCAL/MOL
REMARK 927      BINDING AFFINITY PREDICTED BY RF-SCORE:    0.00 PKD
ROOT
HETATM    1  C   UNL     1     -10.933  14.430  66.353  1.00  0.00    -0.319 C  
HETATM    2  C   UNL     1      -9.441  14.541  66.047  1.00  0.00    -0.262 C  
ENDROOT
BRANCH   2   3
HETATM    3  C   UNL     1      -8.564  13.995  67.123  1.00  0.00    -0.205 A  
HETATM    4  C   UNL     1      -7.838  14.786  68.061  1.00  0.00    -0.130 A  
HETATM    5  C   UNL     1      -7.274  12.201  67.562  1.00  0.00    -0.133 A  
HETATM    6  N   UNL     1      -6.918  14.178  68.881  1.00  0.00    -0.104 NA 
HETATM    7  N   UNL     1      -8.358  12.687  66.930  1.00  0.00    -0.127 NA 
HETATM    8  C   UNL     1      -6.653  12.831  68.655  1.00  0.00    -0.084 A  
BRANCH   4   9
HETATM    9  N   UNL     1      -8.194  16.120  68.108  1.00  0.00    -0.155 NA 
HETATM   10  H   UNL     1      -9.150  16.209  68.451  1.00  0.00     0.000 HD 
BRANCH   9  11
HETATM   11  C   UNL     1      -7.646  17.451  67.826  1.00  0.00    -0.194 C  
HETATM   12  O   UNL     1      -5.254  18.730  68.740  1.00  0.00    -0.186 OA 
HETATM   13  C   UNL     1      -6.217  18.299  69.701  1.00  0.00    -0.215 C  
HETATM   14  C   UNL     1      -6.438  17.610  66.918  1.00  0.00    -0.206 C  
HETATM   15  C   UNL     1      -7.592  18.326  69.073  1.00  0.00    -0.161 C  
HETATM   16  C   UNL     1      -5.125  17.804  67.662  1.00  0.00    -0.128 C  
ENDBRANCH   9  11
ENDBRANCH   4   9
BRANCH   8  17
HETATM   17  N   UNL     1      -5.879  12.056  69.575  1.00  0.00    -0.080 NA 
HETATM   18  H   UNL     1      -4.976  12.451  69.839  1.00  0.00     0.000 HD 
BRANCH  17  19
HETATM   19  C   UNL     1      -6.206  10.802  70.171  1.00  0.00    -0.136 A  
HETATM   20  C   UNL     1      -5.196   9.919  70.549  1.00  0.00    -0.041 A  
HETATM   21  C   UNL     1      -5.473   8.555  70.781  1.00  0.00    -0.028 A  
HETATM   22  C   UNL     1      -6.758   7.998  70.613  1.00  0.00    -0.037 A  
HETATM   23  C   UNL     1      -7.800   8.918  70.360  1.00  0.00    -0.102 A  
HETATM   24  C   UNL     1      -7.521  10.295  70.194  1.00  0.00    -0.084 A  
BRANCH  22  25
HETATM   25  N   UNL     1      -6.893   6.612  70.595  1.00  0.00    -0.061 NA 
HETATM   26  C   UNL     1      -7.851   5.927  71.469  1.00  0.00    -0.112 C  
HETATM   27  C   UNL     1      -5.824   5.764  70.068  1.00  0.00    -0.024 C  
HETATM   28  C   UNL     1      -6.452   4.610  69.283  1.00  0.00    -0.036 C  
HETATM   29  C   UNL     1      -8.481   4.767  70.692  1.00  0.00    -0.106 C  
HETATM   30  C   UNL     1      -7.421   3.768  70.162  1.00  0.00    -0.041 C  
BRANCH  30  31
HETATM   31  N   UNL     1      -6.727   3.011  71.242  1.00  0.00    -0.030 NA 
HETATM   32  C   UNL     1      -6.791   3.673  72.569  1.00  0.00    -0.041 C  
HETATM   33  C   UNL     1      -8.180   3.615  73.251  1.00  0.00    -0.080 C  
HETATM   34  N   UNL     1      -8.730   2.252  73.401  1.00  0.00    -0.069 NA 
HETATM   35  C   UNL     1      -8.038   1.516  74.462  1.00  0.00    -0.037 C  
HETATM   36  C   UNL     1      -8.633   1.542  72.110  1.00  0.00    -0.052 C  
HETATM   37  C   UNL     1      -7.246   1.632  71.423  1.00  0.00    -0.032 C  
ENDBRANCH  30  31
ENDBRANCH  22  25
BRANCH  23  38
HETATM   38  O   UNL     1      -9.088   8.427  70.317  1.00  0.00    -0.143 OA 
HETATM   39  C   UNL     1     -10.093   9.250  70.899  1.00  0.00    -0.302 C  
ENDBRANCH  23  38
ENDBRANCH  17  19
ENDBRANCH   8  17
BRANCH   5  40
HETATM   40  C   UNL     1      -6.524  11.284  66.639  1.00  0.00    -0.128 C  
HETATM   41  H2  UNL     1      -7.588  11.717  65.020  1.00  0.00     0.000 HD 
HETATM   42  N   UNL     1      -7.246  10.900  65.525  1.00  0.00    -0.362 N  
HETATM   43  O   UNL     1      -5.336  11.022  66.739  1.00  0.00    -0.057 OA 
HETATM   44  H1  UNL     1      -6.737  10.277  64.898  1.00  0.00     0.000 HD 
ENDBRANCH   5  40
ENDBRANCH   2   3
TORSDOF 9
ENDMDL
MODEL      112
REMARK 921   NORMALIZED FREE ENERGY PREDICTED BY IDOCK:   -1.07 KCAL/MOL
REMARK 922        TOTAL FREE ENERGY PREDICTED BY IDOCK:   -3.77 KCAL/MOL
REMARK 923 INTER-LIGAND FREE ENERGY PREDICTED BY IDOCK:   -3.49 KCAL/MOL
REMARK 924 INTRA-LIGAND FREE ENERGY PREDICTED BY IDOCK:   -0.28 KCAL/MOL
REMARK 927      BINDING AFFINITY PREDICTED BY RF-SCORE:    0.00 PKD
ROOT
HETATM    1  C   UNL     1     -10.128  15.054  65.539  1.00  0.00    -0.400 C  
HETATM    2  C   UNL     1      -8.669  15.140  65.982  1.00  0.00     0.201 C  
ENDROOT
BRANCH   2   3
HETATM    3  C   UNL     1      -8.339  14.262  67.142  1.00  0.00    -0.180 A  
HETATM    4  C   UNL     1      -8.205  14.710  68.489  1.00  0.00    -0.152 A  
HETATM    5  C   UNL     1      -7.236  12.355  67.614  1.00  0.00    -0.130 A  
HETATM    6  N   UNL     1      -7.713  13.846  69.437  1.00  0.00     0.201 NA 
HETATM    7  N   UNL     1      -7.948  13.057  66.713  1.00  0.00     0.124 NA 
HETATM    8  C   UNL     1      -7.250  12.610  68.997  1.00  0.00     0.009 A  
BRANCH   4   9
HETATM    9  N   UNL     1      -8.664  15.991  68.733  1.00  0.00    -0.209 NA 
HETATM   10  H   UNL     1      -9.656  15.960  68.966  1.00  0.00     0.000 HD 
BRANCH   9  11
HETATM   11  C   UNL     1      -8.191  17.378  68.768  1.00  0.00    -0.226 C  
HETATM   12  O   UNL     1      -5.966  18.638  67.483  1.00  0.00    -0.172 OA 
HETATM   13  C   UNL     1      -5.724  17.545  68.367  1.00  0.00    -0.152 C  
HETATM   14  C   UNL     1      -8.384  18.287  67.567  1.00  0.00    -0.247 C  
HETATM   15  C   UNL     1      -6.815  17.501  69.412  1.00  0.00    -0.140 C  
HETATM   16  C   UNL     1      -7.143  18.440  66.700  1.00  0.00    -0.210 C  
ENDBRANCH   9  11
ENDBRANCH   4   9
BRANCH   8  17
HETATM   17  N   UNL     1      -6.919  11.565  69.915  1.00  0.00    -0.367 NA 
HETATM   18  H   UNL     1      -6.295  11.825  70.678  1.00  0.00     0.000 HD 
BRANCH  17  19
HETATM   19  C   UNL     1      -7.349  10.204  69.900  1.00  0.00    -0.165 A  
HETATM   20  C   UNL     1      -6.438   9.177  70.142  1.00  0.00    -0.046 A  
HETATM   21  C   UNL     1      -6.728   7.846  69.771  1.00  0.00    -0.038 A  
HETATM   22  C   UNL     1      -7.920   7.482  69.112  1.00  0.00    -0.121 A  
HETATM   23  C   UNL     1      -8.893   8.498  68.989  1.00  0.00    -0.145 A  
HETATM   24  C   UNL     1      -8.617   9.817  69.424  1.00  0.00    -0.168 A  
BRANCH  22  25
HETATM   25  N   UNL     1      -8.012   6.214  68.541  1.00  0.00    -0.107 NA 
HETATM   26  C   UNL     1      -7.419   5.923  67.232  1.00  0.00    -0.081 C  
HETATM   27  C   UNL     1      -9.043   5.272  68.974  1.00  0.00    -0.115 C  
HETATM   28  C   UNL     1      -8.439   3.867  69.021  1.00  0.00    -0.101 C  
HETATM   29  C   UNL     1      -6.816   4.515  67.268  1.00  0.00    -0.055 C  
HETATM   30  C   UNL     1      -7.862   3.435  67.642  1.00  0.00    -0.077 C  
BRANCH  30  31
HETATM   31  N   UNL     1      -8.912   3.240  66.602  1.00  0.00    -0.145 NA 
HETATM   32  C   UNL     1      -8.793   4.173  65.454  1.00  0.00    -0.124 C  
HETATM   33  C   UNL     1      -7.613   3.870  64.497  1.00  0.00    -0.080 C  
HETATM   34  N   UNL     1      -7.601   2.493  63.961  1.00  0.00    -0.066 NA 
HETATM   35  C   UNL     1      -8.638   2.312  62.943  1.00  0.00    -0.077 C  
HETATM   36  C   UNL     1      -7.772   1.535  65.073  1.00  0.00    -0.063 C  
HETATM   37  C   UNL     1      -8.938   1.866  66.040  1.00  0.00    -0.097 C  
ENDBRANCH  30  31
ENDBRANCH  22  25
BRANCH  23  38
HETATM   38  O   UNL     1     -10.120   8.148  68.465  1.00  0.00    -0.189 OA 
HETATM   39  C   UNL     1     -10.392   8.605  67.145  1.00  0.00    -0.299 C  
ENDBRANCH  23  38
ENDBRANCH  17  19
ENDBRANCH   8  17
BRANCH   5  40
HETATM   40  C   UNL     1      -6.065  11.708  66.935  1.00  0.00    -0.148 C  
HETATM   41  H2  UNL     1      -5.058  13.391  66.626  1.00  0.00     0.000 HD 
HETATM   42  N   UNL     1      -5.354  12.561  66.113  1.00  0.00     1.106 N  
HETATM   43  O   UNL     1      -5.646  10.590  67.193  1.00  0.00    -0.041 OA 
HETATM   44  H1  UNL     1      -4.557  12.122  65.651  1.00  0.00     0.000 HD 
ENDBRANCH   5  40
ENDBRANCH   2   3
TORSDOF 9
ENDMDL
MODEL      113
REMARK 921   NORMALIZED FREE ENERGY PREDICTED BY IDOCK:   -0.98 KCAL/MOL
REMARK 922        TOTAL FREE ENERGY PREDICTED BY IDOCK:   -3.64 KCAL/MOL
REMARK 923 INTER-LIGAND FREE ENERGY PREDICTED BY IDOCK:   -4.83 KCAL/MOL
REMARK 924 INTRA-LIGAND FREE ENERGY PREDICTED BY IDOCK:    1.19 KCAL/MOL
REMARK 927      BINDING AFFINITY PREDICTED BY RF-SCORE:    0.00 PKD
ROOT
HETATM    1  C   UNL     1      -7.233   2.888  68.988  1.00  0.00    -0.048 C  
HETATM    2  C   UNL     1      -8.007   3.024  67.678  1.00  0.00    -0.075 C  
ENDROOT
BRANCH   2   3
HETATM    3  C   UNL     1      -7.939   4.387  67.077  1.00  0.00    -0.101 A  
HETATM    4  C   UNL     1      -8.431   5.574  67.692  1.00  0.00    -0.102 A  
HETATM    5  C   UNL     1      -7.897   5.390  65.059  1.00  0.00    -0.096 A  
HETATM    6  N   UNL     1      -8.483   6.737  66.962  1.00  0.00    -0.113 NA 
HETATM    7  N   UNL     1      -7.580   4.305  65.790  1.00  0.00    -0.085 NA 
HETATM    8  C   UNL     1      -8.167   6.656  65.609  1.00  0.00    -0.137 A  
BRANCH   4   9
HETATM    9  N   UNL     1      -8.754   5.455  69.031  1.00  0.00    -0.101 NA 
HETATM   10  H   UNL     1      -8.322   4.614  69.413  1.00  0.00     0.000 HD 
BRANCH   9  11
HETATM   11  C   UNL     1      -9.514   6.141  70.081  1.00  0.00    -0.159 C  
HETATM   12  O   UNL     1      -9.645   5.690  72.904  1.00  0.00    -0.154 OA 
HETATM   13  C   UNL     1     -10.017   4.635  72.018  1.00  0.00    -0.189 C  
HETATM   14  C   UNL     1      -8.810   7.063  71.062  1.00  0.00    -0.146 C  
HETATM   15  C   UNL     1     -10.546   5.229  70.733  1.00  0.00    -0.256 C  
HETATM   16  C   UNL     1      -8.525   6.427  72.414  1.00  0.00    -0.120 C  
ENDBRANCH   9  11
ENDBRANCH   4   9
BRANCH   8  17
HETATM   17  N   UNL     1      -7.984   7.829  64.812  1.00  0.00    -0.138 NA 
HETATM   18  H   UNL     1      -7.508   7.691  63.921  1.00  0.00     0.000 HD 
BRANCH  17  19
HETATM   19  C   UNL     1      -8.383   9.168  65.102  1.00  0.00    -0.154 A  
HETATM   20  C   UNL     1      -7.844   9.840  66.198  1.00  0.00    -0.107 A  
HETATM   21  C   UNL     1      -8.474  10.988  66.727  1.00  0.00    -0.148 A  
HETATM   22  C   UNL     1      -9.684  11.499  66.214  1.00  0.00    -0.215 A  
HETATM   23  C   UNL     1     -10.152  10.897  65.026  1.00  0.00    -0.300 A  
HETATM   24  C   UNL     1      -9.478   9.786  64.465  1.00  0.00    -0.269 A  
BRANCH  22  25
HETATM   25  N   UNL     1     -10.375  12.456  66.952  1.00  0.00    -0.223 NA 
HETATM   26  C   UNL     1     -10.248  12.533  68.411  1.00  0.00    -0.228 C  
HETATM   27  C   UNL     1     -11.561  13.112  66.402  1.00  0.00    -0.349 C  
HETATM   28  C   UNL     1     -11.542  14.587  66.806  1.00  0.00    -0.388 C  
HETATM   29  C   UNL     1     -10.233  14.007  68.826  1.00  0.00    -0.200 C  
HETATM   30  C   UNL     1     -11.498  14.767  68.351  1.00  0.00    -0.314 C  
BRANCH  30  31
HETATM   31  N   UNL     1     -12.748  14.319  69.029  1.00  0.00     0.306 NA 
HETATM   32  C   UNL     1     -12.533  13.235  70.020  1.00  0.00    -0.100 C  
HETATM   33  C   UNL     1     -11.837  13.687  71.329  1.00  0.00     0.369 C  
HETATM   34  N   UNL     1     -12.510  14.804  72.023  1.00  0.00    -0.326 NA 
HETATM   35  C   UNL     1     -13.738  14.354  72.682  1.00  0.00    -0.445 C  
HETATM   36  C   UNL     1     -12.790  15.883  71.054  1.00  0.00    -0.170 C  
HETATM   37  C   UNL     1     -13.460  15.413  69.737  1.00  0.00     1.118 C  
ENDBRANCH  30  31
ENDBRANCH  22  25
BRANCH  23  38
HETATM   38  O   UNL     1     -11.263  11.452  64.424  1.00  0.00    -0.304 OA 
HETATM   39  C   UNL     1     -11.009  12.408  63.400  1.00  0.00    -0.386 C  
ENDBRANCH  23  38
ENDBRANCH  17  19
ENDBRANCH   8  17
BRANCH   5  40
HETATM   40  C   UNL     1      -8.465   4.958  63.739  1.00  0.00    -0.133 C  
HETATM   41  H2  UNL     1      -8.695   3.049  64.236  1.00  0.00     0.000 HD 
HETATM   42  N   UNL     1      -8.307   3.610  63.478  1.00  0.00    -0.089 N  
HETATM   43  O   UNL     1      -9.158   5.660  63.020  1.00  0.00     0.241 OA 
HETATM   44  H1  UNL     1      -8.693   3.315  62.580  1.00  0.00     0.000 HD 
ENDBRANCH   5  40
ENDBRANCH   2   3
TORSDOF 9
ENDMDL
MODEL      114
REMARK 921   NORMALIZED FREE ENERGY PREDICTED BY IDOCK:   -0.85 KCAL/MOL
REMARK 922        TOTAL FREE ENERGY PREDICTED BY IDOCK:   -3.44 KCAL/MOL
REMARK 923 INTER-LIGAND FREE ENERGY PREDICTED BY IDOCK:   -7.42 KCAL/MOL
REMARK 924 INTRA-LIGAND FREE ENERGY PREDICTED BY IDOCK:    3.98 KCAL/MOL
REMARK 927      BINDING AFFINITY PREDICTED BY RF-SCORE:    0.00 PKD
ROOT
HETATM    1  C   UNL     1     -10.287  19.491  66.833  1.00  0.00    -0.566 C  
HETATM    2  C   UNL     1     -10.521  18.233  67.666  1.00  0.00    -0.431 C  
ENDROOT
BRANCH   2   3
HETATM    3  C   UNL     1      -9.543  17.139  67.393  1.00  0.00    -0.247 A  
HETATM    4  C   UNL     1      -9.883  15.763  67.239  1.00  0.00    -0.230 A  
HETATM    5  C   UNL     1      -7.382  16.617  67.759  1.00  0.00    -0.148 A  
HETATM    6  N   UNL     1      -8.878  14.827  67.181  1.00  0.00    -0.203 NA 
HETATM    7  N   UNL     1      -8.293  17.587  67.559  1.00  0.00    -0.213 NA 
HETATM    8  C   UNL     1      -7.579  15.270  67.407  1.00  0.00    -0.200 A  
BRANCH   4   9
HETATM    9  N   UNL     1     -11.231  15.502  67.087  1.00  0.00    -0.260 NA 
HETATM   10  H   UNL     1     -11.740  16.379  66.979  1.00  0.00     0.000 HD 
BRANCH   9  11
HETATM   11  C   UNL     1     -12.169  14.376  67.028  1.00  0.00    -0.239 C  
HETATM   12  O   UNL     1     -11.944  11.806  65.790  1.00  0.00    -0.376 OA 
HETATM   13  C   UNL     1     -11.834  12.975  64.978  1.00  0.00    -0.362 C  
HETATM   14  C   UNL     1     -11.919  13.122  67.849  1.00  0.00    -0.347 C  
HETATM   15  C   UNL     1     -12.637  14.091  65.605  1.00  0.00    -0.542 C  
HETATM   16  C   UNL     1     -11.311  11.974  67.057  1.00  0.00    -0.336 C  
ENDBRANCH   9  11
ENDBRANCH   4   9
BRANCH   8  17
HETATM   17  N   UNL     1      -6.449  14.428  67.163  1.00  0.00    -0.320 NA 
HETATM   18  H   UNL     1      -5.676  14.858  66.655  1.00  0.00     0.000 HD 
BRANCH  17  19
HETATM   19  C   UNL     1      -6.262  13.064  67.538  1.00  0.00    -0.139 A  
HETATM   20  C   UNL     1      -6.947  12.052  66.869  1.00  0.00    -0.033 A  
HETATM   21  C   UNL     1      -7.081  10.767  67.439  1.00  0.00    -0.091 A  
HETATM   22  C   UNL     1      -6.573  10.441  68.713  1.00  0.00    -0.052 A  
HETATM   23  C   UNL     1      -5.768  11.426  69.326  1.00  0.00    -0.051 A  
HETATM   24  C   UNL     1      -5.585  12.690  68.716  1.00  0.00    -0.066 A  
BRANCH  22  25
HETATM   25  N   UNL     1      -6.978   9.252  69.314  1.00  0.00    -0.053 NA 
HETATM   26  C   UNL     1      -7.808   9.253  70.524  1.00  0.00    -0.153 C  
HETATM   27  C   UNL     1      -6.260   8.003  69.061  1.00  0.00    -0.039 C  
HETATM   28  C   UNL     1      -7.275   6.864  68.949  1.00  0.00    -0.091 C  
HETATM   29  C   UNL     1      -8.825   8.112  70.422  1.00  0.00    -0.141 C  
HETATM   30  C   UNL     1      -8.145   6.731  70.232  1.00  0.00    -0.120 C  
BRANCH  30  31
HETATM   31  N   UNL     1      -7.370   6.283  71.423  1.00  0.00    -0.083 NA 
HETATM   32  C   UNL     1      -6.111   7.041  71.634  1.00  0.00    -0.037 C  
HETATM   33  C   UNL     1      -6.310   8.487  72.154  1.00  0.00    -0.072 C  
HETATM   34  N   UNL     1      -7.108   8.586  73.392  1.00  0.00    -0.307 NA 
HETATM   35  C   UNL     1      -6.338   8.140  74.555  1.00  0.00    -0.114 C  
HETATM   36  C   UNL     1      -8.348   7.797  73.239  1.00  0.00    -0.164 C  
HETATM   37  C   UNL     1      -8.138   6.362  72.691  1.00  0.00    -0.105 C  
ENDBRANCH  30  31
ENDBRANCH  22  25
BRANCH  23  38
HETATM   38  O   UNL     1      -5.148  11.096  70.514  1.00  0.00    -0.072 OA 
HETATM   39  C   UNL     1      -5.375  11.980  71.606  1.00  0.00     0.161 C  
ENDBRANCH  23  38
ENDBRANCH  17  19
ENDBRANCH   8  17
BRANCH   5  40
HETATM   40  C   UNL     1      -6.450  17.024  68.863  1.00  0.00    -0.189 C  
HETATM   41  H2  UNL     1      -7.256  18.815  69.154  1.00  0.00     0.000 HD 
HETATM   42  N   UNL     1      -6.337  18.392  69.022  1.00  0.00    -0.233 N  
HETATM   43  O   UNL     1      -5.957  16.254  69.672  1.00  0.00    -0.155 OA 
HETATM   44  H1  UNL     1      -5.704  18.669  69.772  1.00  0.00     0.000 HD 
ENDBRANCH   5  40
ENDBRANCH   2   3
TORSDOF 9
ENDMDL
MODEL      115
REMARK 921   NORMALIZED FREE ENERGY PREDICTED BY IDOCK:   -0.75 KCAL/MOL
REMARK 922        TOTAL FREE ENERGY PREDICTED BY IDOCK:   -3.28 KCAL/MOL
REMARK 923 INTER-LIGAND FREE ENERGY PREDICTED BY IDOCK:   -4.04 KCAL/MOL
REMARK 924 INTRA-LIGAND FREE ENERGY PREDICTED BY IDOCK:    0.76 KCAL/MOL
REMARK 927      BINDING AFFINITY PREDICTED BY RF-SCORE:    0.00 PKD
ROOT
HETATM    1  C   UNL     1     -10.514   4.844  70.385  1.00  0.00    -0.164 C  
HETATM    2  C   UNL     1      -9.519   5.977  70.144  1.00  0.00    -0.182 C  
ENDROOT
BRANCH   2   3
HETATM    3  C   UNL     1      -9.418   6.395  68.715  1.00  0.00    -0.127 A  
HETATM    4  C   UNL     1      -8.532   5.818  67.759  1.00  0.00    -0.103 A  
HETATM    5  C   UNL     1      -9.717   8.212  67.416  1.00  0.00    -0.170 A  
HETATM    6  N   UNL     1      -8.395   6.412  66.527  1.00  0.00    -0.112 NA 
HETATM    7  N   UNL     1     -10.087   7.537  68.521  1.00  0.00    -0.179 NA 
HETATM    8  C   UNL     1      -9.039   7.629  66.330  1.00  0.00    -0.174 A  
BRANCH   4   9
HETATM    9  N   UNL     1      -7.930   4.637  68.150  1.00  0.00    -0.084 NA 
HETATM   10  H   UNL     1      -8.310   4.340  69.048  1.00  0.00     0.000 HD 
BRANCH   9  11
HETATM   11  C   UNL     1      -6.925   3.671  67.695  1.00  0.00    -0.054 C  
HETATM   12  O   UNL     1      -5.988   3.031  65.067  1.00  0.00    -0.018 OA 
HETATM   13  C   UNL     1      -7.374   2.868  65.365  1.00  0.00    -0.071 C  
HETATM   14  C   UNL     1      -5.568   4.146  67.202  1.00  0.00    -0.021 C  
HETATM   15  C   UNL     1      -7.534   2.568  66.837  1.00  0.00    -0.069 C  
HETATM   16  C   UNL     1      -5.443   4.196  65.686  1.00  0.00    -0.010 C  
ENDBRANCH   9  11
ENDBRANCH   4   9
BRANCH   8  17
HETATM   17  N   UNL     1      -9.137   8.223  65.033  1.00  0.00    -0.379 NA 
HETATM   18  H   UNL     1      -9.089   7.578  64.244  1.00  0.00     0.000 HD 
BRANCH  17  19
HETATM   19  C   UNL     1      -9.292   9.601  64.699  1.00  0.00    -0.207 A  
HETATM   20  C   UNL     1      -8.328  10.530  65.084  1.00  0.00    -0.150 A  
HETATM   21  C   UNL     1      -8.620  11.912  65.108  1.00  0.00     0.780 A  
HETATM   22  C   UNL     1      -9.891  12.428  64.786  1.00  0.00    -0.079 A  
HETATM   23  C   UNL     1     -10.822  11.499  64.270  1.00  0.00    -0.359 A  
HETATM   24  C   UNL     1     -10.497  10.124  64.188  1.00  0.00     0.757 A  
BRANCH  22  25
HETATM   25  N   UNL     1     -10.175  13.757  65.095  1.00  0.00    -0.356 NA 
HETATM   26  C   UNL     1     -10.757  14.663  64.099  1.00  0.00     0.656 C  
HETATM   27  C   UNL     1      -9.521  14.419  66.223  1.00  0.00    -0.271 C  
HETATM   28  C   UNL     1     -10.540  15.316  66.927  1.00  0.00    -0.304 C  
HETATM   29  C   UNL     1     -11.776  15.569  64.797  1.00  0.00    -0.187 C  
HETATM   30  C   UNL     1     -11.148  16.375  65.962  1.00  0.00     0.157 C  
BRANCH  30  31
HETATM   31  N   UNL     1     -10.159  17.395  65.513  1.00  0.00    -0.579 NA 
HETATM   32  C   UNL     1     -10.664  18.789  65.592  1.00  0.00    -0.111 C  
HETATM   33  C   UNL     1     -10.778  19.353  67.030  1.00  0.00    -0.474 C  
HETATM   34  N   UNL     1      -9.528  19.282  67.814  1.00  0.00    -0.308 NA 
HETATM   35  C   UNL     1      -8.563  20.287  67.362  1.00  0.00    -0.343 C  
HETATM   36  C   UNL     1      -8.966  17.920  67.715  1.00  0.00    -0.254 C  
HETATM   37  C   UNL     1      -8.884  17.356  66.273  1.00  0.00    -0.203 C  
ENDBRANCH  30  31
ENDBRANCH  22  25
BRANCH  23  38
HETATM   38  O   UNL     1     -12.032  11.988  63.824  1.00  0.00    -0.445 OA 
HETATM   39  C   UNL     1     -13.038  12.171  64.814  1.00  0.00     0.670 C  
ENDBRANCH  23  38
ENDBRANCH  17  19
ENDBRANCH   8  17
BRANCH   5  40
HETATM   40  C   UNL     1      -9.602   9.674  67.736  1.00  0.00    -0.139 C  
HETATM   41  H2  UNL     1     -11.539   9.959  68.066  1.00  0.00     0.000 HD 
HETATM   42  N   UNL     1     -10.773  10.382  67.542  1.00  0.00    -0.266 N  
HETATM   43  O   UNL     1      -8.638  10.189  68.281  1.00  0.00    -0.113 OA 
HETATM   44  H1  UNL     1     -10.695  11.375  67.759  1.00  0.00     0.000 HD 
ENDBRANCH   5  40
ENDBRANCH   2   3
TORSDOF 9
ENDMDL
MODEL      116
REMARK 921   NORMALIZED FREE ENERGY PREDICTED BY IDOCK:   -0.70 KCAL/MOL
REMARK 922        TOTAL FREE ENERGY PREDICTED BY IDOCK:   -3.21 KCAL/MOL
REMARK 923 INTER-LIGAND FREE ENERGY PREDICTED BY IDOCK:   -7.35 KCAL/MOL
REMARK 924 INTRA-LIGAND FREE ENERGY PREDICTED BY IDOCK:    4.14 KCAL/MOL
REMARK 927      BINDING AFFINITY PREDICTED BY RF-SCORE:    0.00 PKD
ROOT
HETATM    1  C   UNL     1     -10.546   2.235  73.321  1.00  0.00    -0.240 C  
HETATM    2  C   UNL     1      -9.954   2.383  71.921  1.00  0.00    -0.220 C  
ENDROOT
BRANCH   2   3
HETATM    3  C   UNL     1      -9.755   3.800  71.498  1.00  0.00    -0.171 A  
HETATM    4  C   UNL     1      -8.755   4.243  70.584  1.00  0.00    -0.083 A  
HETATM    5  C   UNL     1     -10.049   5.896  72.270  1.00  0.00    -0.182 A  
HETATM    6  N   UNL     1      -8.548   5.592  70.419  1.00  0.00    -0.128 NA 
HETATM    7  N   UNL     1     -10.473   4.618  72.276  1.00  0.00    -0.193 NA 
HETATM    8  C   UNL     1      -9.246   6.452  71.259  1.00  0.00    -0.156 A  
BRANCH   4   9
HETATM    9  N   UNL     1      -8.119   3.243  69.874  1.00  0.00    -0.045 NA 
HETATM   10  H   UNL     1      -7.404   2.810  70.458  1.00  0.00     0.000 HD 
BRANCH   9  11
HETATM   11  C   UNL     1      -8.135   2.599  68.556  1.00  0.00    -0.056 C  
HETATM   12  O   UNL     1      -8.722   3.651  65.960  1.00  0.00    -0.112 OA 
HETATM   13  C   UNL     1      -9.721   3.726  66.977  1.00  0.00    -0.109 C  
HETATM   14  C   UNL     1      -7.032   2.880  67.549  1.00  0.00    -0.049 C  
HETATM   15  C   UNL     1      -9.531   2.580  67.944  1.00  0.00    -0.181 C  
HETATM   16  C   UNL     1      -7.414   3.891  66.478  1.00  0.00    -0.083 C  
ENDBRANCH   9  11
ENDBRANCH   4   9
BRANCH   8  17
HETATM   17  N   UNL     1      -9.266   7.865  71.035  1.00  0.00    -0.150 NA 
HETATM   18  H   UNL     1      -8.586   8.409  71.567  1.00  0.00     0.000 HD 
BRANCH  17  19
HETATM   19  C   UNL     1     -10.114   8.611  70.163  1.00  0.00    -0.185 A  
HETATM   20  C   UNL     1      -9.994   8.476  68.781  1.00  0.00    -0.197 A  
HETATM   21  C   UNL     1     -10.530   9.447  67.908  1.00  0.00    -0.296 A  
HETATM   22  C   UNL     1     -11.177  10.612  68.368  1.00  0.00    -0.288 A  
HETATM   23  C   UNL     1     -11.413  10.678  69.758  1.00  0.00    -0.302 A  
HETATM   24  C   UNL     1     -10.927   9.667  70.621  1.00  0.00    -0.386 A  
BRANCH  22  25
HETATM   25  N   UNL     1     -11.432  11.641  67.463  1.00  0.00    -0.432 NA 
HETATM   26  C   UNL     1     -11.535  11.382  66.023  1.00  0.00     0.088 C  
HETATM   27  C   UNL     1     -11.168  13.034  67.821  1.00  0.00    -0.279 C  
HETATM   28  C   UNL     1     -12.286  13.910  67.255  1.00  0.00    -0.201 C  
HETATM   29  C   UNL     1     -12.651  12.259  65.446  1.00  0.00     0.196 C  
HETATM   30  C   UNL     1     -12.411  13.768  65.710  1.00  0.00    -0.485 C  
BRANCH  30  31
HETATM   31  N   UNL     1     -11.239  14.320  64.974  1.00  0.00    -0.345 NA 
HETATM   32  C   UNL     1     -10.943  15.737  65.303  1.00  0.00    -0.344 C  
HETATM   33  C   UNL     1     -10.323  15.957  66.705  1.00  0.00    -0.298 C  
HETATM   34  N   UNL     1      -9.099  15.171  66.961  1.00  0.00    -0.216 NA 
HETATM   35  C   UNL     1      -7.955  15.720  66.230  1.00  0.00     0.203 C  
HETATM   36  C   UNL     1      -9.339  13.760  66.593  1.00  0.00    -0.264 C  
HETATM   37  C   UNL     1      -9.986  13.556  65.199  1.00  0.00    -0.176 C  
ENDBRANCH  30  31
ENDBRANCH  22  25
BRANCH  23  38
HETATM   38  O   UNL     1     -12.156  11.741  70.230  1.00  0.00    -0.338 OA 
HETATM   39  C   UNL     1     -12.570  11.662  71.590  1.00  0.00    -0.173 C  
ENDBRANCH  23  38
ENDBRANCH  17  19
ENDBRANCH   8  17
BRANCH   5  40
HETATM   40  C   UNL     1     -10.052   6.432  73.673  1.00  0.00    -0.241 C  
HETATM   41  H2  UNL     1      -9.336   8.223  73.202  1.00  0.00     0.000 HD 
HETATM   42  N   UNL     1      -9.166   7.474  73.873  1.00  0.00    -0.273 N  
HETATM   43  O   UNL     1     -10.863   6.122  74.531  1.00  0.00     0.042 OA 
HETATM   44  H1  UNL     1      -9.168   7.838  74.826  1.00  0.00     0.000 HD 
ENDBRANCH   5  40
ENDBRANCH   2   3
TORSDOF 9
ENDMDL
MODEL      117
REMARK 921   NORMALIZED FREE ENERGY PREDICTED BY IDOCK:   -0.64 KCAL/MOL
REMARK 922        TOTAL FREE ENERGY PREDICTED BY IDOCK:   -3.12 KCAL/MOL
REMARK 923 INTER-LIGAND FREE ENERGY PREDICTED BY IDOCK:   -4.77 KCAL/MOL
REMARK 924 INTRA-LIGAND FREE ENERGY PREDICTED BY IDOCK:    1.65 KCAL/MOL
REMARK 927      BINDING AFFINITY PREDICTED BY RF-SCORE:    0.00 PKD
ROOT
HETATM    1  C   UNL     1     -10.931  14.431  66.357  1.00  0.00    -0.319 C  
HETATM    2  C   UNL     1      -9.434  14.553  66.080  1.00  0.00    -0.262 C  
ENDROOT
BRANCH   2   3
HETATM    3  C   UNL     1      -8.573  14.021  67.175  1.00  0.00    -0.205 A  
HETATM    4  C   UNL     1      -7.879  14.823  68.128  1.00  0.00    -0.125 A  
HETATM    5  C   UNL     1      -7.268  12.246  67.645  1.00  0.00    -0.128 A  
HETATM    6  N   UNL     1      -6.969  14.230  68.968  1.00  0.00    -0.108 NA 
HETATM    7  N   UNL     1      -8.345  12.716  66.989  1.00  0.00    -0.163 NA 
HETATM    8  C   UNL     1      -6.680  12.886  68.750  1.00  0.00    -0.093 A  
BRANCH   4   9
HETATM    9  N   UNL     1      -8.254  16.153  68.164  1.00  0.00    -0.155 NA 
HETATM   10  H   UNL     1      -9.193  16.233  68.554  1.00  0.00     0.000 HD 
BRANCH   9  11
HETATM   11  C   UNL     1      -7.744  17.486  67.827  1.00  0.00    -0.205 C  
HETATM   12  O   UNL     1      -9.108  19.873  67.032  1.00  0.00    -0.317 OA 
HETATM   13  C   UNL     1      -9.253  18.698  66.236  1.00  0.00    -0.234 C  
HETATM   14  C   UNL     1      -7.930  18.647  68.789  1.00  0.00    -0.317 C  
HETATM   15  C   UNL     1      -8.008  17.850  66.371  1.00  0.00    -0.302 C  
HETATM   16  C   UNL     1      -9.082  19.572  68.427  1.00  0.00    -0.356 C  
ENDBRANCH   9  11
ENDBRANCH   4   9
BRANCH   8  17
HETATM   17  N   UNL     1      -5.915  12.124  69.688  1.00  0.00    -0.104 NA 
HETATM   18  H   UNL     1      -5.024  12.532  69.971  1.00  0.00     0.000 HD 
BRANCH  17  19
HETATM   19  C   UNL     1      -6.238  10.866  70.279  1.00  0.00    -0.141 A  
HETATM   20  C   UNL     1      -5.223   9.997  70.679  1.00  0.00    -0.047 A  
HETATM   21  C   UNL     1      -5.488   8.629  70.907  1.00  0.00    -0.028 A  
HETATM   22  C   UNL     1      -6.761   8.056  70.714  1.00  0.00    -0.037 A  
HETATM   23  C   UNL     1      -7.810   8.961  70.439  1.00  0.00    -0.102 A  
HETATM   24  C   UNL     1      -7.546  10.342  70.276  1.00  0.00     0.215 A  
BRANCH  22  25
HETATM   25  N   UNL     1      -6.877   6.668  70.695  1.00  0.00    -0.061 NA 
HETATM   26  C   UNL     1      -6.561   5.893  69.490  1.00  0.00    -0.044 C  
HETATM   27  C   UNL     1      -7.717   5.974  71.671  1.00  0.00    -0.101 C  
HETATM   28  C   UNL     1      -7.013   4.685  72.099  1.00  0.00    -0.060 C  
HETATM   29  C   UNL     1      -5.860   4.598  69.911  1.00  0.00    -0.017 C  
HETATM   30  C   UNL     1      -6.716   3.754  70.889  1.00  0.00    -0.032 C  
BRANCH  30  31
HETATM   31  N   UNL     1      -7.948   3.191  70.266  1.00  0.00    -0.043 NA 
HETATM   32  C   UNL     1      -8.391   3.926  69.054  1.00  0.00    -0.072 C  
HETATM   33  C   UNL     1      -7.505   3.700  67.804  1.00  0.00    -0.066 C  
HETATM   34  N   UNL     1      -7.328   2.281  67.430  1.00  0.00    -0.055 NA 
HETATM   35  C   UNL     1      -8.545   1.739  66.822  1.00  0.00    -0.106 C  
HETATM   36  C   UNL     1      -6.938   1.507  68.626  1.00  0.00    -0.036 C  
HETATM   37  C   UNL     1      -7.815   1.764  69.879  1.00  0.00    -0.042 C  
ENDBRANCH  30  31
ENDBRANCH  22  25
BRANCH  23  38
HETATM   38  O   UNL     1      -9.091   8.453  70.371  1.00  0.00    -0.143 OA 
HETATM   39  C   UNL     1      -9.661   8.365  69.070  1.00  0.00    -0.171 C  
ENDBRANCH  23  38
ENDBRANCH  17  19
ENDBRANCH   8  17
BRANCH   5  40
HETATM   40  C   UNL     1      -6.485  11.339  66.741  1.00  0.00    -0.136 C  
HETATM   41  H2  UNL     1      -5.743  10.203  68.191  1.00  0.00     0.000 HD 
HETATM   42  N   UNL     1      -5.425  10.708  67.364  1.00  0.00    -0.040 N  
HETATM   43  O   UNL     1      -6.825  11.028  65.610  1.00  0.00    -0.009 OA 
HETATM   44  H1  UNL     1      -4.893  10.091  66.749  1.00  0.00     0.000 HD 
ENDBRANCH   5  40
ENDBRANCH   2   3
TORSDOF 9
ENDMDL
MODEL      118
REMARK 921   NORMALIZED FREE ENERGY PREDICTED BY IDOCK:   -0.50 KCAL/MOL
REMARK 922        TOTAL FREE ENERGY PREDICTED BY IDOCK:   -2.91 KCAL/MOL
REMARK 923 INTER-LIGAND FREE ENERGY PREDICTED BY IDOCK:   -8.86 KCAL/MOL
REMARK 924 INTRA-LIGAND FREE ENERGY PREDICTED BY IDOCK:    5.95 KCAL/MOL
REMARK 927      BINDING AFFINITY PREDICTED BY RF-SCORE:    0.00 PKD
ROOT
HETATM    1  C   UNL     1      -7.593   9.010  64.509  1.00  0.00    -0.108 C  
HETATM    2  C   UNL     1      -8.959   9.386  63.940  1.00  0.00    -0.166 C  
ENDROOT
BRANCH   2   3
HETATM    3  C   UNL     1      -9.528  10.639  64.517  1.00  0.00    -0.264 A  
HETATM    4  C   UNL     1      -9.448  11.012  65.890  1.00  0.00    -0.214 A  
HETATM    5  C   UNL     1     -11.203  12.104  64.164  1.00  0.00    -0.368 A  
HETATM    6  N   UNL     1     -10.172  12.093  66.335  1.00  0.00    -0.216 NA 
HETATM    7  N   UNL     1     -10.328  11.235  63.625  1.00  0.00    -0.374 NA 
HETATM    8  C   UNL     1     -11.050  12.688  65.434  1.00  0.00    -0.292 A  
BRANCH   4   9
HETATM    9  N   UNL     1      -8.566  10.271  66.653  1.00  0.00    -0.127 NA 
HETATM   10  H   UNL     1      -7.695  10.142  66.140  1.00  0.00     0.000 HD 
BRANCH   9  11
HETATM   11  C   UNL     1      -8.473   9.610  67.959  1.00  0.00    -0.118 C  
HETATM   12  O   UNL     1      -8.800   6.866  68.703  1.00  0.00    -0.125 OA 
HETATM   13  C   UNL     1      -9.886   7.544  68.073  1.00  0.00    -0.151 C  
HETATM   14  C   UNL     1      -7.278   8.735  68.295  1.00  0.00    -0.082 C  
HETATM   15  C   UNL     1      -9.807   9.018  68.400  1.00  0.00    -0.183 C  
HETATM   16  C   UNL     1      -7.541   7.243  68.147  1.00  0.00    -0.115 C  
ENDBRANCH   9  11
ENDBRANCH   4   9
BRANCH   8  17
HETATM   17  N   UNL     1     -11.687  13.935  65.723  1.00  0.00    -0.346 NA 
HETATM   18  H   UNL     1     -12.645  14.032  65.388  1.00  0.00     0.000 HD 
BRANCH  17  19
HETATM   19  C   UNL     1     -11.156  15.061  66.420  1.00  0.00    -0.329 A  
HETATM   20  C   UNL     1     -10.660  16.155  65.713  1.00  0.00    -0.347 A  
HETATM   21  C   UNL     1      -9.804  17.092  66.332  1.00  0.00    -0.312 A  
HETATM   22  C   UNL     1      -9.374  16.965  67.669  1.00  0.00    -0.233 A  
HETATM   23  C   UNL     1      -9.982  15.933  68.417  1.00  0.00    -0.222 A  
HETATM   24  C   UNL     1     -10.890  15.037  67.804  1.00  0.00    -0.284 A  
BRANCH  22  25
HETATM   25  N   UNL     1      -8.328  17.768  68.117  1.00  0.00    -0.256 NA 
HETATM   26  C   UNL     1      -8.393  19.230  68.021  1.00  0.00    -0.315 C  
HETATM   27  C   UNL     1      -6.981  17.221  68.277  1.00  0.00    -0.186 C  
HETATM   28  C   UNL     1      -6.354  17.814  69.539  1.00  0.00    -0.217 C  
HETATM   29  C   UNL     1      -7.762  19.832  69.280  1.00  0.00    -0.109 C  
HETATM   30  C   UNL     1      -6.298  19.368  69.487  1.00  0.00    -0.312 C  
BRANCH  30  31
HETATM   31  N   UNL     1      -5.359  19.887  68.453  1.00  0.00    -0.194 NA 
HETATM   32  C   UNL     1      -5.163  18.961  67.309  1.00  0.00    -0.155 C  
HETATM   33  C   UNL     1      -6.370  18.866  66.343  1.00  0.00    -0.190 C  
HETATM   34  N   UNL     1      -6.821  20.164  65.800  1.00  0.00    -0.261 NA 
HETATM   35  C   UNL     1      -5.889  20.665  64.787  1.00  0.00    -0.253 C  
HETATM   36  C   UNL     1      -6.976  21.129  66.907  1.00  0.00    -0.199 C  
HETATM   37  C   UNL     1      -5.772  21.194  67.883  1.00  0.00    -0.333 C  
ENDBRANCH  30  31
ENDBRANCH  22  25
BRANCH  23  38
HETATM   38  O   UNL     1      -9.683  15.858  69.762  1.00  0.00    -0.257 OA 
HETATM   39  C   UNL     1     -10.788  15.934  70.656  1.00  0.00    -0.213 C  
ENDBRANCH  23  38
ENDBRANCH  17  19
ENDBRANCH   8  17
BRANCH   5  40
HETATM   40  C   UNL     1     -12.551  11.916  63.531  1.00  0.00    -0.459 C  
HETATM   41  H2  UNL     1     -12.111  10.203  62.629  1.00  0.00     0.000 HD 
HETATM   42  N   UNL     1     -12.535  11.105  62.412  1.00  0.00     0.329 N  
HETATM   43  O   UNL     1     -13.606  12.283  64.026  1.00  0.00    -0.304 OA 
HETATM   44  H1  UNL     1     -13.451  10.977  61.982  1.00  0.00     0.000 HD 
ENDBRANCH   5  40
ENDBRANCH   2   3
TORSDOF 9
ENDMDL
MODEL      119
REMARK 921   NORMALIZED FREE ENERGY PREDICTED BY IDOCK:   -0.31 KCAL/MOL
REMARK 922        TOTAL FREE ENERGY PREDICTED BY IDOCK:   -2.61 KCAL/MOL
REMARK 923 INTER-LIGAND FREE ENERGY PREDICTED BY IDOCK:   -6.34 KCAL/MOL
REMARK 924 INTRA-LIGAND FREE ENERGY PREDICTED BY IDOCK:    3.73 KCAL/MOL
REMARK 927      BINDING AFFINITY PREDICTED BY RF-SCORE:    0.00 PKD
ROOT
HETATM    1  C   UNL     1      -8.345  16.892  68.051  1.00  0.00    -0.204 C  
HETATM    2  C   UNL     1      -9.636  16.283  68.592  1.00  0.00    -0.237 C  
ENDROOT
BRANCH   2   3
HETATM    3  C   UNL     1      -9.936  14.927  68.048  1.00  0.00    -0.220 A  
HETATM    4  C   UNL     1     -10.975  14.072  68.519  1.00  0.00    -0.256 A  
HETATM    5  C   UNL     1      -8.903  13.198  67.037  1.00  0.00    -0.210 A  
HETATM    6  N   UNL     1     -11.032  12.775  68.069  1.00  0.00    -0.229 NA 
HETATM    7  N   UNL     1      -8.951  14.529  67.234  1.00  0.00    -0.199 NA 
HETATM    8  C   UNL     1      -9.986  12.330  67.267  1.00  0.00    -0.204 A  
BRANCH   4   9
HETATM    9  N   UNL     1     -11.896  14.670  69.357  1.00  0.00    -0.312 NA 
HETATM   10  H   UNL     1     -12.783  14.783  68.866  1.00  0.00     0.000 HD 
BRANCH   9  11
HETATM   11  C   UNL     1     -12.017  15.195  70.721  1.00  0.00    -0.327 C  
HETATM   12  O   UNL     1     -13.817  14.518  72.842  1.00  0.00    -0.561 OA 
HETATM   13  C   UNL     1     -14.352  14.991  71.606  1.00  0.00    -0.584 C  
HETATM   14  C   UNL     1     -11.562  14.364  71.909  1.00  0.00     0.327 C  
HETATM   15  C   UNL     1     -13.346  15.906  70.947  1.00  0.00     0.320 C  
HETATM   16  C   UNL     1     -12.694  13.659  72.642  1.00  0.00    -0.032 C  
ENDBRANCH   9  11
ENDBRANCH   4   9
BRANCH   8  17
HETATM   17  N   UNL     1     -10.051  11.079  66.578  1.00  0.00    -0.218 NA 
HETATM   18  H   UNL     1     -10.088  11.134  65.560  1.00  0.00     0.000 HD 
BRANCH  17  19
HETATM   19  C   UNL     1     -10.070   9.763  67.129  1.00  0.00    -0.211 A  
HETATM   20  C   UNL     1     -10.783   9.502  68.298  1.00  0.00    -0.241 A  
HETATM   21  C   UNL     1     -10.525   8.343  69.062  1.00  0.00    -0.216 A  
HETATM   22  C   UNL     1      -9.523   7.412  68.720  1.00  0.00    -0.143 A  
HETATM   23  C   UNL     1      -8.898   7.610  67.469  1.00  0.00    -0.124 A  
HETATM   24  C   UNL     1      -9.211   8.742  66.678  1.00  0.00    -0.223 A  
BRANCH  22  25
HETATM   25  N   UNL     1      -9.149   6.453  69.658  1.00  0.00    -0.143 NA 
HETATM   26  C   UNL     1     -10.134   5.833  70.550  1.00  0.00    -0.208 C  
HETATM   27  C   UNL     1      -7.760   6.346  70.105  1.00  0.00    -0.098 C  
HETATM   28  C   UNL     1      -7.404   4.866  70.260  1.00  0.00    -0.055 C  
HETATM   29  C   UNL     1      -9.782   4.351  70.715  1.00  0.00    -0.271 C  
HETATM   30  C   UNL     1      -8.348   4.143  71.264  1.00  0.00    -0.081 C  
BRANCH  30  31
HETATM   31  N   UNL     1      -8.177   4.609  72.670  1.00  0.00    -0.106 NA 
HETATM   32  C   UNL     1      -6.822   4.353  73.221  1.00  0.00    -0.059 C  
HETATM   33  C   UNL     1      -5.711   5.270  72.651  1.00  0.00    -0.022 C  
HETATM   34  N   UNL     1      -5.985   6.715  72.783  1.00  0.00    -0.042 NA 
HETATM   35  C   UNL     1      -5.817   7.161  74.168  1.00  0.00    -0.062 C  
HETATM   36  C   UNL     1      -7.349   7.000  72.292  1.00  0.00    -0.085 C  
HETATM   37  C   UNL     1      -8.447   6.058  72.849  1.00  0.00    -0.117 C  
ENDBRANCH  30  31
ENDBRANCH  22  25
BRANCH  23  38
HETATM   38  O   UNL     1      -8.005   6.649  67.042  1.00  0.00    -0.106 OA 
HETATM   39  C   UNL     1      -6.943   7.105  66.211  1.00  0.00    -0.065 C  
ENDBRANCH  23  38
ENDBRANCH  17  19
ENDBRANCH   8  17
BRANCH   5  40
HETATM   40  C   UNL     1      -7.478  12.731  67.109  1.00  0.00    -0.029 C  
HETATM   41  H2  UNL     1      -7.444  11.917  65.298  1.00  0.00     0.000 HD 
HETATM   42  N   UNL     1      -7.191  11.681  66.257  1.00  0.00    -0.366 N  
HETATM   43  O   UNL     1      -6.591  13.309  67.716  1.00  0.00    -0.124 OA 
HETATM   44  H1  UNL     1      -6.223  11.364  66.305  1.00  0.00     0.000 HD 
ENDBRANCH   5  40
ENDBRANCH   2   3
TORSDOF 9
ENDMDL
MODEL      120
REMARK 921   NORMALIZED FREE ENERGY PREDICTED BY IDOCK:   -0.26 KCAL/MOL
REMARK 922        TOTAL FREE ENERGY PREDICTED BY IDOCK:   -2.54 KCAL/MOL
REMARK 923 INTER-LIGAND FREE ENERGY PREDICTED BY IDOCK:   -2.61 KCAL/MOL
REMARK 924 INTRA-LIGAND FREE ENERGY PREDICTED BY IDOCK:    0.07 KCAL/MOL
REMARK 927      BINDING AFFINITY PREDICTED BY RF-SCORE:    0.00 PKD
ROOT
HETATM    1  C   UNL     1     -11.321   6.766  71.662  1.00  0.00    -0.305 C  
HETATM    2  C   UNL     1     -10.847   5.856  70.531  1.00  0.00    -0.366 C  
ENDROOT
BRANCH   2   3
HETATM    3  C   UNL     1      -9.804   6.471  69.659  1.00  0.00    -0.159 A  
HETATM    4  C   UNL     1      -9.195   5.829  68.541  1.00  0.00    -0.121 A  
HETATM    5  C   UNL     1      -8.145   7.993  69.753  1.00  0.00    -0.115 A  
HETATM    6  N   UNL     1      -8.116   6.423  67.933  1.00  0.00    -0.114 NA 
HETATM    7  N   UNL     1      -9.347   7.599  70.214  1.00  0.00    -0.157 NA 
HETATM    8  C   UNL     1      -7.595   7.566  68.531  1.00  0.00    -0.114 A  
BRANCH   4   9
HETATM    9  N   UNL     1      -9.814   4.669  68.118  1.00  0.00    -0.136 NA 
HETATM   10  H   UNL     1     -10.682   4.900  67.634  1.00  0.00     0.000 HD 
BRANCH   9  11
HETATM   11  C   UNL     1      -9.632   3.214  68.136  1.00  0.00    -0.075 C  
HETATM   12  O   UNL     1      -7.310   1.605  67.674  1.00  0.00    -0.052 OA 
HETATM   13  C   UNL     1      -7.762   2.479  66.640  1.00  0.00    -0.071 C  
HETATM   14  C   UNL     1      -8.894   2.545  69.283  1.00  0.00    -0.150 C  
HETATM   15  C   UNL     1      -9.257   2.665  66.764  1.00  0.00    -0.106 C  
HETATM   16  C   UNL     1      -7.447   2.194  68.967  1.00  0.00    -0.043 C  
ENDBRANCH   9  11
ENDBRANCH   4   9
BRANCH   8  17
HETATM   17  N   UNL     1      -6.617   8.376  67.873  1.00  0.00    -0.060 NA 
HETATM   18  H   UNL     1      -5.704   7.943  67.731  1.00  0.00     0.000 HD 
BRANCH  17  19
HETATM   19  C   UNL     1      -6.752   9.711  67.389  1.00  0.00    -0.071 A  
HETATM   20  C   UNL     1      -5.730  10.637  67.585  1.00  0.00    -0.043 A  
HETATM   21  C   UNL     1      -5.972  12.023  67.466  1.00  0.00    -0.110 A  
HETATM   22  C   UNL     1      -7.247  12.552  67.182  1.00  0.00    -0.057 A  
HETATM   23  C   UNL     1      -8.247  11.610  66.853  1.00  0.00    -0.169 A  
HETATM   24  C   UNL     1      -7.976  10.222  66.912  1.00  0.00    -0.112 A  
BRANCH  22  25
HETATM   25  N   UNL     1      -7.461  13.918  67.349  1.00  0.00    -0.166 NA 
HETATM   26  C   UNL     1      -6.642  14.710  68.273  1.00  0.00    -0.118 C  
HETATM   27  C   UNL     1      -8.740  14.526  66.984  1.00  0.00    -0.234 C  
HETATM   28  C   UNL     1      -8.474  15.889  66.343  1.00  0.00    -0.348 C  
HETATM   29  C   UNL     1      -6.375  16.079  67.641  1.00  0.00    -0.187 C  
HETATM   30  C   UNL     1      -7.683  16.834  67.293  1.00  0.00    -0.172 C  
BRANCH  30  31
HETATM   31  N   UNL     1      -8.465  17.250  68.492  1.00  0.00    -0.261 NA 
HETATM   32  C   UNL     1      -8.656  18.718  68.598  1.00  0.00    -0.323 C  
HETATM   33  C   UNL     1      -9.662  19.313  67.581  1.00  0.00    -0.328 C  
HETATM   34  N   UNL     1     -10.998  18.683  67.605  1.00  0.00    -0.282 NA 
HETATM   35  C   UNL     1     -11.757  19.096  68.788  1.00  0.00     3.664 C  
HETATM   36  C   UNL     1     -10.846  17.214  67.555  1.00  0.00    -0.203 C  
HETATM   37  C   UNL     1      -9.815  16.635  68.558  1.00  0.00    -0.252 C  
ENDBRANCH  30  31
ENDBRANCH  22  25
BRANCH  23  38
HETATM   38  O   UNL     1      -9.472  12.094  66.445  1.00  0.00    -0.224 OA 
HETATM   39  C   UNL     1     -10.225  11.249  65.581  1.00  0.00    -0.253 C  
ENDBRANCH  23  38
ENDBRANCH  17  19
ENDBRANCH   8  17
BRANCH   5  40
HETATM   40  C   UNL     1      -7.287   8.436  70.902  1.00  0.00    -0.064 C  
HETATM   41  H2  UNL     1      -8.238   7.373  72.283  1.00  0.00     0.000 HD 
HETATM   42  N   UNL     1      -7.902   8.325  72.134  1.00  0.00    -0.121 N  
HETATM   43  O   UNL     1      -6.100   8.709  70.815  1.00  0.00    -0.032 OA 
HETATM   44  H1  UNL     1      -7.319   8.626  72.916  1.00  0.00     0.000 HD 
ENDBRANCH   5  40
ENDBRANCH   2   3
TORSDOF 9
ENDMDL
MODEL      121
REMARK 921   NORMALIZED FREE ENERGY PREDICTED BY IDOCK:    0.09 KCAL/MOL
REMARK 922        TOTAL FREE ENERGY PREDICTED BY IDOCK:   -2.00 KCAL/MOL
REMARK 923 INTER-LIGAND FREE ENERGY PREDICTED BY IDOCK:   -1.60 KCAL/MOL
REMARK 924 INTRA-LIGAND FREE ENERGY PREDICTED BY IDOCK:   -0.41 KCAL/MOL
REMARK 927      BINDING AFFINITY PREDICTED BY RF-SCORE:    0.00 PKD
ROOT
HETATM    1  C   UNL     1     -14.023  13.392  71.138  1.00  0.00     0.667 C  
HETATM    2  C   UNL     1     -12.771  12.537  71.315  1.00  0.00    -0.350 C  
ENDROOT
BRANCH   2   3
HETATM    3  C   UNL     1     -11.673  12.872  70.362  1.00  0.00    -0.026 A  
HETATM    4  C   UNL     1     -10.980  14.117  70.324  1.00  0.00     0.286 A  
HETATM    5  C   UNL     1     -10.963  12.358  68.286  1.00  0.00    -0.236 A  
HETATM    6  N   UNL     1     -10.122  14.376  69.283  1.00  0.00    -0.096 NA 
HETATM    7  N   UNL     1     -11.600  11.947  69.398  1.00  0.00    -0.302 NA 
HETATM    8  C   UNL     1     -10.078  13.450  68.246  1.00  0.00    -0.247 A  
BRANCH   4   9
HETATM    9  N   UNL     1     -11.189  14.943  71.413  1.00  0.00    -0.566 NA 
HETATM   10  H   UNL     1     -10.451  14.796  72.101  1.00  0.00     0.000 HD 
BRANCH   9  11
HETATM   11  C   UNL     1     -12.125  15.960  71.903  1.00  0.00    -0.498 C  
HETATM   12  O   UNL     1     -12.370  17.208  74.466  1.00  0.00    -0.564 OA 
HETATM   13  C   UNL     1     -12.494  15.790  74.375  1.00  0.00    -0.638 C  
HETATM   14  C   UNL     1     -11.659  17.387  72.134  1.00  0.00     1.566 C  
HETATM   15  C   UNL     1     -13.028  15.425  73.009  1.00  0.00    -0.598 C  
HETATM   16  C   UNL     1     -11.363  17.713  73.591  1.00  0.00     1.354 C  
ENDBRANCH   9  11
ENDBRANCH   4   9
BRANCH   8  17
HETATM   17  N   UNL     1      -9.076  13.513  67.227  1.00  0.00    -0.216 NA 
HETATM   18  H   UNL     1      -8.904  14.437  66.830  1.00  0.00     0.000 HD 
BRANCH  17  19
HETATM   19  C   UNL     1      -8.286  12.452  66.694  1.00  0.00     0.060 A  
HETATM   20  C   UNL     1      -8.596  11.900  65.453  1.00  0.00     0.574 A  
HETATM   21  C   UNL     1      -8.093  10.637  65.073  1.00  0.00    -0.038 A  
HETATM   22  C   UNL     1      -7.290   9.849  65.923  1.00  0.00    -0.108 A  
HETATM   23  C   UNL     1      -6.871  10.467  67.122  1.00  0.00    -0.084 A  
HETATM   24  C   UNL     1      -7.328  11.762  67.464  1.00  0.00    -0.127 A  
BRANCH  22  25
HETATM   25  N   UNL     1      -7.064   8.516  65.589  1.00  0.00    -0.078 NA 
HETATM   26  C   UNL     1      -5.819   8.093  64.940  1.00  0.00    -0.045 C  
HETATM   27  C   UNL     1      -8.180   7.580  65.451  1.00  0.00    -0.135 C  
HETATM   28  C   UNL     1      -7.766   6.229  66.038  1.00  0.00    -0.092 C  
HETATM   29  C   UNL     1      -5.400   6.738  65.519  1.00  0.00    -0.026 C  
HETATM   30  C   UNL     1      -6.497   5.657  65.344  1.00  0.00    -0.039 C  
BRANCH  30  31
HETATM   31  N   UNL     1      -6.729   5.271  63.923  1.00  0.00    -0.044 NA 
HETATM   32  C   UNL     1      -5.759   4.271  63.411  1.00  0.00    -0.013 C  
HETATM   33  C   UNL     1      -5.960   2.837  63.963  1.00  0.00    -0.014 C  
HETATM   34  N   UNL     1      -7.318   2.291  63.761  1.00  0.00    -0.052 NA 
HETATM   35  C   UNL     1      -7.536   1.919  62.362  1.00  0.00    -0.038 C  
HETATM   36  C   UNL     1      -8.315   3.284  64.211  1.00  0.00    -0.089 C  
HETATM   37  C   UNL     1      -8.086   4.721  63.675  1.00  0.00    -0.101 C  
ENDBRANCH  30  31
ENDBRANCH  22  25
BRANCH  23  38
HETATM   38  O   UNL     1      -5.980   9.777  67.919  1.00  0.00    -0.050 OA 
HETATM   39  C   UNL     1      -5.532  10.452  69.089  1.00  0.00    -0.038 C  
ENDBRANCH  23  38
ENDBRANCH  17  19
ENDBRANCH   8  17
BRANCH   5  40
HETATM   40  C   UNL     1     -11.725  11.905  67.075  1.00  0.00    -0.227 C  
HETATM   41  H2  UNL     1     -11.525  13.604  66.067  1.00  0.00     0.000 HD 
HETATM   42  N   UNL     1     -12.255  12.941  66.328  1.00  0.00    -0.352 N  
HETATM   43  O   UNL     1     -11.749  10.756  66.661  1.00  0.00     0.022 OA 
HETATM   44  H1  UNL     1     -12.772  12.633  65.505  1.00  0.00     0.000 HD 
ENDBRANCH   5  40
ENDBRANCH   2   3
TORSDOF 9
ENDMDL
MODEL      122
REMARK 921   NORMALIZED FREE ENERGY PREDICTED BY IDOCK:    0.11 KCAL/MOL
REMARK 922        TOTAL FREE ENERGY PREDICTED BY IDOCK:   -1.97 KCAL/MOL
REMARK 923 INTER-LIGAND FREE ENERGY PREDICTED BY IDOCK:   -4.03 KCAL/MOL
REMARK 924 INTRA-LIGAND FREE ENERGY PREDICTED BY IDOCK:    2.06 KCAL/MOL
REMARK 927      BINDING AFFINITY PREDICTED BY RF-SCORE:    0.00 PKD
ROOT
HETATM    1  C   UNL     1     -10.395  15.500  65.262  1.00  0.00    -0.416 C  
HETATM    2  C   UNL     1      -9.130  15.670  66.101  1.00  0.00    -0.378 C  
ENDROOT
BRANCH   2   3
HETATM    3  C   UNL     1      -8.952  14.616  67.142  1.00  0.00    -0.225 A  
HETATM    4  C   UNL     1      -9.300  14.763  68.516  1.00  0.00    -0.199 A  
HETATM    5  C   UNL     1      -7.632  12.852  67.612  1.00  0.00    -0.156 A  
HETATM    6  N   UNL     1      -8.915  13.795  69.413  1.00  0.00     0.645 NA 
HETATM    7  N   UNL     1      -8.201  13.618  66.663  1.00  0.00     0.224 NA 
HETATM    8  C   UNL     1      -8.087  12.781  68.941  1.00  0.00     0.216 A  
BRANCH   4   9
HETATM    9  N   UNL     1     -10.079  15.865  68.814  1.00  0.00    -0.213 NA 
HETATM   10  H   UNL     1     -11.058  15.585  68.875  1.00  0.00     0.000 HD 
BRANCH   9  11
HETATM   11  C   UNL     1      -9.959  17.303  69.071  1.00  0.00    -0.272 C  
HETATM   12  O   UNL     1      -8.697  19.382  67.562  1.00  0.00    -0.292 OA 
HETATM   13  C   UNL     1      -7.909  18.282  68.015  1.00  0.00    -0.265 C  
HETATM   14  C   UNL     1     -10.774  18.300  68.263  1.00  0.00    -0.146 C  
HETATM   15  C   UNL     1      -8.512  17.730  69.286  1.00  0.00     0.275 C  
HETATM   16  C   UNL     1      -9.996  18.969  67.140  1.00  0.00    -0.338 C  
ENDBRANCH   9  11
ENDBRANCH   4   9
BRANCH   8  17
HETATM   17  N   UNL     1      -7.802  11.621  69.727  1.00  0.00     0.159 NA 
HETATM   18  H   UNL     1      -7.233  11.777  70.559  1.00  0.00     0.000 HD 
BRANCH  17  19
HETATM   19  C   UNL     1      -8.211  10.273  69.498  1.00  0.00    -0.155 A  
HETATM   20  C   UNL     1      -9.288   9.737  70.202  1.00  0.00    -0.261 A  
HETATM   21  C   UNL     1      -9.479   8.340  70.284  1.00  0.00    -0.164 A  
HETATM   22  C   UNL     1      -8.589   7.414  69.702  1.00  0.00    -0.137 A  
HETATM   23  C   UNL     1      -7.579   7.962  68.881  1.00  0.00    -0.100 A  
HETATM   24  C   UNL     1      -7.435   9.364  68.753  1.00  0.00    -0.075 A  
BRANCH  22  25
HETATM   25  N   UNL     1      -8.692   6.071  70.055  1.00  0.00    -0.134 NA 
HETATM   26  C   UNL     1      -8.711   5.650  71.460  1.00  0.00    -0.132 C  
HETATM   27  C   UNL     1      -8.342   5.018  69.102  1.00  0.00    -0.086 C  
HETATM   28  C   UNL     1      -9.341   3.869  69.247  1.00  0.00    -0.242 C  
HETATM   29  C   UNL     1      -9.706   4.496  71.613  1.00  0.00    -0.241 C  
HETATM   30  C   UNL     1      -9.364   3.296  70.693  1.00  0.00    -0.159 C  
BRANCH  30  31
HETATM   31  N   UNL     1      -8.100   2.601  71.069  1.00  0.00    -0.049 NA 
HETATM   32  C   UNL     1      -7.057   3.511  71.607  1.00  0.00    -0.035 C  
HETATM   33  C   UNL     1      -7.338   4.039  73.036  1.00  0.00    -0.069 C  
HETATM   34  N   UNL     1      -7.575   2.982  74.041  1.00  0.00    -0.055 NA 
HETATM   35  C   UNL     1      -6.327   2.305  74.400  1.00  0.00    -0.016 C  
HETATM   36  C   UNL     1      -8.570   2.025  73.517  1.00  0.00    -0.059 C  
HETATM   37  C   UNL     1      -8.293   1.527  72.075  1.00  0.00    -0.045 C  
ENDBRANCH  30  31
ENDBRANCH  22  25
BRANCH  23  38
HETATM   38  O   UNL     1      -6.769   7.082  68.193  1.00  0.00    -0.059 OA 
HETATM   39  C   UNL     1      -5.487   7.573  67.817  1.00  0.00    -0.030 C  
ENDBRANCH  23  38
ENDBRANCH  17  19
ENDBRANCH   8  17
BRANCH   5  40
HETATM   40  C   UNL     1      -6.205  12.570  67.242  1.00  0.00    -0.122 C  
HETATM   41  H2  UNL     1      -5.545  12.403  69.107  1.00  0.00     0.000 HD 
HETATM   42  N   UNL     1      -5.298  12.877  68.239  1.00  0.00    -0.065 N  
HETATM   43  O   UNL     1      -5.857  11.967  66.239  1.00  0.00    -0.160 OA 
HETATM   44  H1  UNL     1      -4.328  12.686  67.987  1.00  0.00     0.000 HD 
ENDBRANCH   5  40
ENDBRANCH   2   3
TORSDOF 9
ENDMDL
MODEL      123
REMARK 921   NORMALIZED FREE ENERGY PREDICTED BY IDOCK:    0.17 KCAL/MOL
REMARK 922        TOTAL FREE ENERGY PREDICTED BY IDOCK:   -1.88 KCAL/MOL
REMARK 923 INTER-LIGAND FREE ENERGY PREDICTED BY IDOCK:   -6.21 KCAL/MOL
REMARK 924 INTRA-LIGAND FREE ENERGY PREDICTED BY IDOCK:    4.33 KCAL/MOL
REMARK 927      BINDING AFFINITY PREDICTED BY RF-SCORE:    0.00 PKD
ROOT
HETATM    1  C   UNL     1     -13.197  13.562  71.214  1.00  0.00    -0.290 C  
HETATM    2  C   UNL     1     -13.370  12.154  70.649  1.00  0.00     0.815 C  
ENDROOT
BRANCH   2   3
HETATM    3  C   UNL     1     -12.118  11.343  70.660  1.00  0.00    -0.372 A  
HETATM    4  C   UNL     1     -11.254  11.162  69.541  1.00  0.00    -0.277 A  
HETATM    5  C   UNL     1     -11.218   9.560  71.705  1.00  0.00    -0.308 A  
HETATM    6  N   UNL     1     -10.236  10.242  69.620  1.00  0.00    -0.238 NA 
HETATM    7  N   UNL     1     -12.051  10.615  71.782  1.00  0.00    -0.042 NA 
HETATM    8  C   UNL     1     -10.188   9.440  70.756  1.00  0.00    -0.299 A  
BRANCH   4   9
HETATM    9  N   UNL     1     -11.487  12.009  68.474  1.00  0.00    -0.268 NA 
HETATM   10  H   UNL     1     -12.477  11.991  68.232  1.00  0.00     0.000 HD 
BRANCH   9  11
HETATM   11  C   UNL     1     -10.776  12.925  67.576  1.00  0.00    -0.226 C  
HETATM   12  O   UNL     1     -10.501  12.926  64.727  1.00  0.00    -0.318 OA 
HETATM   13  C   UNL     1     -10.041  11.794  65.464  1.00  0.00    -0.249 C  
HETATM   14  C   UNL     1     -11.547  13.905  66.708  1.00  0.00    -0.398 C  
HETATM   15  C   UNL     1      -9.626  12.238  66.848  1.00  0.00    -0.214 C  
HETATM   16  C   UNL     1     -11.713  13.456  65.264  1.00  0.00    -0.323 C  
ENDBRANCH   9  11
ENDBRANCH   4   9
BRANCH   8  17
HETATM   17  N   UNL     1      -9.060   8.606  71.035  1.00  0.00    -0.180 NA 
HETATM   18  H   UNL     1      -8.553   8.817  71.894  1.00  0.00     0.000 HD 
BRANCH  17  19
HETATM   19  C   UNL     1      -8.553   7.516  70.266  1.00  0.00    -0.144 A  
HETATM   20  C   UNL     1      -8.447   7.622  68.881  1.00  0.00    -0.129 A  
HETATM   21  C   UNL     1      -8.317   6.472  68.072  1.00  0.00    -0.116 A  
HETATM   22  C   UNL     1      -8.321   5.165  68.600  1.00  0.00    -0.088 A  
HETATM   23  C   UNL     1      -8.293   5.068  70.008  1.00  0.00    -0.084 A  
HETATM   24  C   UNL     1      -8.359   6.231  70.812  1.00  0.00    -0.126 A  
BRANCH  22  25
HETATM   25  N   UNL     1      -8.462   4.088  67.727  1.00  0.00    -0.094 NA 
HETATM   26  C   UNL     1      -7.553   3.903  66.591  1.00  0.00    -0.088 C  
HETATM   27  C   UNL     1      -9.733   3.373  67.621  1.00  0.00     0.019 C  
HETATM   28  C   UNL     1      -9.447   1.878  67.473  1.00  0.00    -0.047 C  
HETATM   29  C   UNL     1      -7.264   2.407  66.433  1.00  0.00    -0.061 C  
HETATM   30  C   UNL     1      -8.557   1.575  66.234  1.00  0.00    -0.108 C  
BRANCH  30  31
HETATM   31  N   UNL     1      -9.243   1.846  64.938  1.00  0.00    -0.129 NA 
HETATM   32  C   UNL     1      -9.894   3.179  64.877  1.00  0.00    -0.023 C  
HETATM   33  C   UNL     1      -8.912   4.370  64.747  1.00  0.00    -0.149 C  
HETATM   34  N   UNL     1      -7.979   4.270  63.606  1.00  0.00    -0.086 NA 
HETATM   35  C   UNL     1      -8.665   4.535  62.339  1.00  0.00    -0.111 C  
HETATM   36  C   UNL     1      -7.351   2.933  63.603  1.00  0.00    -0.057 C  
HETATM   37  C   UNL     1      -8.342   1.752  63.762  1.00  0.00    -0.077 C  
ENDBRANCH  30  31
ENDBRANCH  22  25
BRANCH  23  38
HETATM   38  O   UNL     1      -8.167   3.810  70.560  1.00  0.00    -0.056 OA 
HETATM   39  C   UNL     1      -9.368   3.211  71.035  1.00  0.00    -0.144 C  
ENDBRANCH  23  38
ENDBRANCH  17  19
ENDBRANCH   8  17
BRANCH   5  40
HETATM   40  C   UNL     1     -11.869   8.361  72.331  1.00  0.00    -0.384 C  
HETATM   41  H2  UNL     1     -13.393   8.275  71.062  1.00  0.00     0.000 HD 
HETATM   42  N   UNL     1     -13.221   8.257  72.067  1.00  0.00    -0.413 N  
HETATM   43  O   UNL     1     -11.264   7.453  72.879  1.00  0.00    -0.327 OA 
HETATM   44  H1  UNL     1     -13.663   7.442  72.492  1.00  0.00     0.000 HD 
ENDBRANCH   5  40
ENDBRANCH   2   3
TORSDOF 9
ENDMDL
MODEL      124
REMARK 921   NORMALIZED FREE ENERGY PREDICTED BY IDOCK:    0.74 KCAL/MOL
REMARK 922        TOTAL FREE ENERGY PREDICTED BY IDOCK:   -1.01 KCAL/MOL
REMARK 923 INTER-LIGAND FREE ENERGY PREDICTED BY IDOCK:   -0.21 KCAL/MOL
REMARK 924 INTRA-LIGAND FREE ENERGY PREDICTED BY IDOCK:   -0.80 KCAL/MOL
REMARK 927      BINDING AFFINITY PREDICTED BY RF-SCORE:    0.00 PKD
ROOT
HETATM    1  C   UNL     1     -11.045  16.402  67.250  1.00  0.00    -0.019 C  
HETATM    2  C   UNL     1      -9.521  16.432  67.325  1.00  0.00    -0.231 C  
ENDROOT
BRANCH   2   3
HETATM    3  C   UNL     1      -8.928  15.254  68.022  1.00  0.00    -0.171 A  
HETATM    4  C   UNL     1      -9.088  14.963  69.408  1.00  0.00    -0.040 A  
HETATM    5  C   UNL     1      -7.154  13.872  67.886  1.00  0.00    -0.163 A  
HETATM    6  N   UNL     1      -8.341  13.958  69.974  1.00  0.00     1.546 NA 
HETATM    7  N   UNL     1      -8.033  14.651  67.230  1.00  0.00    -0.200 NA 
HETATM    8  C   UNL     1      -7.368  13.361  69.178  1.00  0.00     0.098 A  
BRANCH   4   9
HETATM    9  N   UNL     1     -10.063  15.698  70.057  1.00  0.00    -0.288 NA 
HETATM   10  H   UNL     1      -9.657  16.560  70.421  1.00  0.00     0.000 HD 
BRANCH   9  11
HETATM   11  C   UNL     1     -11.489  15.644  70.392  1.00  0.00    -0.354 C  
HETATM   12  O   UNL     1     -12.821  14.975  72.836  1.00  0.00    -0.373 OA 
HETATM   13  C   UNL     1     -11.965  14.007  72.228  1.00  0.00     0.564 C  
HETATM   14  C   UNL     1     -12.114  16.715  71.270  1.00  0.00     0.684 C  
HETATM   15  C   UNL     1     -11.946  14.230  70.734  1.00  0.00    -0.390 C  
HETATM   16  C   UNL     1     -12.295  16.297  72.722  1.00  0.00    -0.456 C  
ENDBRANCH   9  11
ENDBRANCH   4   9
BRANCH   8  17
HETATM   17  N   UNL     1      -6.686  12.174  69.594  1.00  0.00    -0.326 NA 
HETATM   18  H   UNL     1      -5.753  12.311  69.981  1.00  0.00     0.000 HD 
BRANCH  17  19
HETATM   19  C   UNL     1      -7.143  10.824  69.537  1.00  0.00    -0.132 A  
HETATM   20  C   UNL     1      -6.312   9.821  69.041  1.00  0.00    -0.041 A  
HETATM   21  C   UNL     1      -6.840   8.581  68.624  1.00  0.00    -0.063 A  
HETATM   22  C   UNL     1      -8.220   8.293  68.647  1.00  0.00    -0.120 A  
HETATM   23  C   UNL     1      -9.041   9.258  69.272  1.00  0.00    -0.151 A  
HETATM   24  C   UNL     1      -8.491  10.472  69.747  1.00  0.00     0.103 A  
BRANCH  22  25
HETATM   25  N   UNL     1      -8.683   7.166  67.972  1.00  0.00    -0.127 NA 
HETATM   26  C   UNL     1      -8.536   5.822  68.540  1.00  0.00    -0.110 C  
HETATM   27  C   UNL     1      -8.916   7.202  66.528  1.00  0.00    -0.151 C  
HETATM   28  C   UNL     1     -10.183   6.404  66.213  1.00  0.00     0.052 C  
HETATM   29  C   UNL     1      -9.798   5.015  68.225  1.00  0.00    -0.211 C  
HETATM   30  C   UNL     1     -10.080   4.931  66.703  1.00  0.00    -0.249 C  
BRANCH  30  31
HETATM   31  N   UNL     1      -9.068   4.133  65.955  1.00  0.00    -0.129 NA 
HETATM   32  C   UNL     1      -9.495   2.737  65.681  1.00  0.00     0.032 C  
HETATM   33  C   UNL     1     -10.589   2.600  64.593  1.00  0.00     0.655 C  
HETATM   34  N   UNL     1     -10.247   3.228  63.301  1.00  0.00    -0.157 NA 
HETATM   35  C   UNL     1      -9.250   2.437  62.576  1.00  0.00    -0.087 C  
HETATM   36  C   UNL     1      -9.766   4.604  63.539  1.00  0.00     0.208 C  
HETATM   37  C   UNL     1      -8.692   4.732  64.649  1.00  0.00    -0.153 C  
ENDBRANCH  30  31
ENDBRANCH  22  25
BRANCH  23  38
HETATM   38  O   UNL     1     -10.378   8.954  69.428  1.00  0.00    -0.204 OA 
HETATM   39  C   UNL     1     -11.230   9.302  68.343  1.00  0.00     0.258 C  
ENDBRANCH  23  38
ENDBRANCH  17  19
ENDBRANCH   8  17
BRANCH   5  40
HETATM   40  C   UNL     1      -5.775  14.099  67.337  1.00  0.00     0.340 C  
HETATM   41  H2  UNL     1      -5.696  12.413  66.292  1.00  0.00     0.000 HD 
HETATM   42  N   UNL     1      -5.128  12.939  66.955  1.00  0.00     0.397 N  
HETATM   43  O   UNL     1      -5.306  15.196  67.076  1.00  0.00    -0.050 OA 
HETATM   44  H1  UNL     1      -4.191  13.094  66.582  1.00  0.00     0.000 HD 
ENDBRANCH   5  40
ENDBRANCH   2   3
TORSDOF 9
ENDMDL
MODEL      125
REMARK 921   NORMALIZED FREE ENERGY PREDICTED BY IDOCK:    0.80 KCAL/MOL
REMARK 922        TOTAL FREE ENERGY PREDICTED BY IDOCK:   -0.91 KCAL/MOL
REMARK 923 INTER-LIGAND FREE ENERGY PREDICTED BY IDOCK:   -3.86 KCAL/MOL
REMARK 924 INTRA-LIGAND FREE ENERGY PREDICTED BY IDOCK:    2.95 KCAL/MOL
REMARK 927      BINDING AFFINITY PREDICTED BY RF-SCORE:    0.00 PKD
ROOT
HETATM    1  C   UNL     1     -11.342  16.279  69.157  1.00  0.00    -0.291 C  
HETATM    2  C   UNL     1     -10.892  15.707  67.815  1.00  0.00    -0.307 C  
ENDROOT
BRANCH   2   3
HETATM    3  C   UNL     1      -9.683  14.838  67.906  1.00  0.00    -0.211 A  
HETATM    4  C   UNL     1      -9.686  13.482  68.345  1.00  0.00    -0.207 A  
HETATM    5  C   UNL     1      -7.459  14.993  68.237  1.00  0.00    -0.107 A  
HETATM    6  N   UNL     1      -8.488  12.846  68.566  1.00  0.00    -0.099 NA 
HETATM    7  N   UNL     1      -8.575  15.574  67.757  1.00  0.00    -0.150 NA 
HETATM    8  C   UNL     1      -7.331  13.612  68.470  1.00  0.00    -0.114 A  
BRANCH   4   9
HETATM    9  N   UNL     1     -10.933  12.896  68.442  1.00  0.00    -0.246 NA 
HETATM   10  H   UNL     1     -11.607  13.579  68.786  1.00  0.00     0.000 HD 
BRANCH   9  11
HETATM   11  C   UNL     1     -11.605  11.613  68.210  1.00  0.00    -0.310 C  
HETATM   12  O   UNL     1     -10.709   8.924  68.609  1.00  0.00    -0.178 OA 
HETATM   13  C   UNL     1      -9.979   9.771  67.722  1.00  0.00    -0.168 C  
HETATM   14  C   UNL     1     -12.100  10.781  69.381  1.00  0.00    -0.315 C  
HETATM   15  C   UNL     1     -10.919  10.792  67.124  1.00  0.00    -0.324 C  
HETATM   16  C   UNL     1     -11.177   9.631  69.757  1.00  0.00    -0.174 C  
ENDBRANCH   9  11
ENDBRANCH   4   9
BRANCH   8  17
HETATM   17  N   UNL     1      -6.033  13.011  68.472  1.00  0.00    -0.071 NA 
HETATM   18  H   UNL     1      -5.264  13.613  68.175  1.00  0.00     0.000 HD 
BRANCH  17  19
HETATM   19  C   UNL     1      -5.674  11.679  68.835  1.00  0.00    -0.047 A  
HETATM   20  C   UNL     1      -5.519  10.701  67.855  1.00  0.00    -0.039 A  
HETATM   21  C   UNL     1      -5.541   9.329  68.188  1.00  0.00    -0.038 A  
HETATM   22  C   UNL     1      -5.752   8.867  69.503  1.00  0.00    -0.034 A  
HETATM   23  C   UNL     1      -5.774   9.859  70.509  1.00  0.00    -0.062 A  
HETATM   24  C   UNL     1      -5.687  11.230  70.171  1.00  0.00    -0.120 A  
BRANCH  22  25
HETATM   25  N   UNL     1      -6.030   7.517  69.705  1.00  0.00    -0.023 NA 
HETATM   26  C   UNL     1      -6.778   6.736  68.714  1.00  0.00    -0.056 C  
HETATM   27  C   UNL     1      -5.998   6.940  71.048  1.00  0.00    -0.035 C  
HETATM   28  C   UNL     1      -5.380   5.543  70.970  1.00  0.00    -0.009 C  
HETATM   29  C   UNL     1      -6.168   5.334  68.633  1.00  0.00    -0.030 C  
HETATM   30  C   UNL     1      -6.167   4.611  70.004  1.00  0.00    -0.022 C  
BRANCH  30  31
HETATM   31  N   UNL     1      -7.532   4.272  70.498  1.00  0.00    -0.048 NA 
HETATM   32  C   UNL     1      -7.616   2.941  71.150  1.00  0.00    -0.040 C  
HETATM   33  C   UNL     1      -6.956   2.867  72.550  1.00  0.00    -0.031 C  
HETATM   34  N   UNL     1      -7.452   3.872  73.512  1.00  0.00    -0.069 NA 
HETATM   35  C   UNL     1      -8.795   3.531  73.988  1.00  0.00    -0.088 C  
HETATM   36  C   UNL     1      -7.434   5.206  72.878  1.00  0.00    -0.096 C  
HETATM   37  C   UNL     1      -8.071   5.260  71.466  1.00  0.00    -0.116 C  
ENDBRANCH  30  31
ENDBRANCH  22  25
BRANCH  23  38
HETATM   38  O   UNL     1      -5.851   9.436  71.820  1.00  0.00    -0.089 OA 
HETATM   39  C   UNL     1      -7.113   8.933  72.244  1.00  0.00     0.148 C  
ENDBRANCH  23  38
ENDBRANCH  17  19
ENDBRANCH   8  17
BRANCH   5  40
HETATM   40  C   UNL     1      -6.650  16.008  68.990  1.00  0.00    -0.151 C  
HETATM   41  H2  UNL     1      -6.850  15.143  70.766  1.00  0.00     0.000 HD 
HETATM   42  N   UNL     1      -6.942  16.065  70.340  1.00  0.00     0.625 N  
HETATM   43  O   UNL     1      -5.698  16.616  68.527  1.00  0.00    -0.118 OA 
HETATM   44  H1  UNL     1      -6.392  16.754  70.852  1.00  0.00     0.000 HD 
ENDBRANCH   5  40
ENDBRANCH   2   3
TORSDOF 9
ENDMDL
MODEL      126
REMARK 921   NORMALIZED FREE ENERGY PREDICTED BY IDOCK:    1.12 KCAL/MOL
REMARK 922        TOTAL FREE ENERGY PREDICTED BY IDOCK:   -0.43 KCAL/MOL
REMARK 923 INTER-LIGAND FREE ENERGY PREDICTED BY IDOCK:   -4.02 KCAL/MOL
REMARK 924 INTRA-LIGAND FREE ENERGY PREDICTED BY IDOCK:    3.59 KCAL/MOL
REMARK 927      BINDING AFFINITY PREDICTED BY RF-SCORE:    0.00 PKD
ROOT
HETATM    1  C   UNL     1     -10.609  15.095  71.896  1.00  0.00     0.920 C  
HETATM    2  C   UNL     1     -11.703  14.895  70.850  1.00  0.00    -0.374 C  
ENDROOT
BRANCH   2   3
HETATM    3  C   UNL     1     -11.465  13.735  69.942  1.00  0.00    -0.160 A  
HETATM    4  C   UNL     1     -11.470  13.800  68.519  1.00  0.00    -0.307 A  
HETATM    5  C   UNL     1     -11.716  11.496  69.890  1.00  0.00    -0.343 A  
HETATM    6  N   UNL     1     -11.427  12.634  67.793  1.00  0.00    -0.300 NA 
HETATM    7  N   UNL     1     -11.492  12.592  70.639  1.00  0.00     0.536 NA 
HETATM    8  C   UNL     1     -11.511  11.439  68.500  1.00  0.00    -0.297 A  
BRANCH   4   9
HETATM    9  N   UNL     1     -11.445  15.075  67.986  1.00  0.00    -0.333 NA 
HETATM   10  H   UNL     1     -12.368  15.313  67.624  1.00  0.00     0.000 HD 
BRANCH   9  11
HETATM   11  C   UNL     1     -10.527  16.198  67.772  1.00  0.00    -0.295 C  
HETATM   12  O   UNL     1      -7.998  16.329  66.437  1.00  0.00    -0.290 OA 
HETATM   13  C   UNL     1      -8.149  15.441  67.545  1.00  0.00    -0.167 C  
HETATM   14  C   UNL     1     -10.391  16.830  66.397  1.00  0.00    -0.309 C  
HETATM   15  C   UNL     1      -9.195  15.995  68.485  1.00  0.00    -0.206 C  
HETATM   16  C   UNL     1      -9.168  16.365  65.620  1.00  0.00     0.095 C  
ENDBRANCH   9  11
ENDBRANCH   4   9
BRANCH   8  17
HETATM   17  N   UNL     1     -11.264  10.178  67.871  1.00  0.00    -0.485 NA 
HETATM   18  H   UNL     1     -11.568  10.099  66.901  1.00  0.00     0.000 HD 
BRANCH  17  19
HETATM   19  C   UNL     1     -10.648   9.017  68.426  1.00  0.00    -0.154 A  
HETATM   20  C   UNL     1      -9.414   9.114  69.066  1.00  0.00    -0.152 A  
HETATM   21  C   UNL     1      -8.617   7.970  69.283  1.00  0.00    -0.137 A  
HETATM   22  C   UNL     1      -8.992   6.684  68.842  1.00  0.00    -0.130 A  
HETATM   23  C   UNL     1     -10.297   6.570  68.315  1.00  0.00    -0.190 A  
HETATM   24  C   UNL     1     -11.115   7.714  68.161  1.00  0.00     0.214 A  
BRANCH  22  25
HETATM   25  N   UNL     1      -8.040   5.667  68.850  1.00  0.00    -0.099 NA 
HETATM   26  C   UNL     1      -8.190   4.489  69.711  1.00  0.00    -0.063 C  
HETATM   27  C   UNL     1      -6.680   5.911  68.373  1.00  0.00    -0.060 C  
HETATM   28  C   UNL     1      -6.201   4.684  67.596  1.00  0.00    -0.036 C  
HETATM   29  C   UNL     1      -7.709   3.255  68.942  1.00  0.00    -0.051 C  
HETATM   30  C   UNL     1      -6.241   3.393  68.465  1.00  0.00    -0.032 C  
BRANCH  30  31
HETATM   31  N   UNL     1      -5.252   3.406  69.580  1.00  0.00    -0.007 NA 
HETATM   32  C   UNL     1      -5.478   4.496  70.563  1.00  0.00    -0.011 C  
HETATM   33  C   UNL     1      -6.704   4.286  71.487  1.00  0.00    -0.027 C  
HETATM   34  N   UNL     1      -6.700   3.007  72.226  1.00  0.00    -0.015 NA 
HETATM   35  C   UNL     1      -5.723   3.030  73.317  1.00  0.00     0.000 C  
HETATM   36  C   UNL     1      -6.424   1.901  71.286  1.00  0.00    -0.019 C  
HETATM   37  C   UNL     1      -5.212   2.136  70.348  1.00  0.00    -0.004 C  
ENDBRANCH  30  31
ENDBRANCH  22  25
BRANCH  23  38
HETATM   38  O   UNL     1     -10.746   5.306  67.992  1.00  0.00    -0.084 OA 
HETATM   39  C   UNL     1     -10.492   4.871  66.661  1.00  0.00    -0.219 C  
ENDBRANCH  23  38
ENDBRANCH  17  19
ENDBRANCH   8  17
BRANCH   5  40
HETATM   40  C   UNL     1     -12.701  10.605  70.588  1.00  0.00    -0.359 C  
HETATM   41  H2  UNL     1     -13.012  11.819  72.128  1.00  0.00     0.000 HD 
HETATM   42  N   UNL     1     -12.800  10.838  71.947  1.00  0.00    -0.415 N  
HETATM   43  O   UNL     1     -13.482   9.857  70.020  1.00  0.00     0.346 OA 
HETATM   44  H1  UNL     1     -13.470  10.232  72.421  1.00  0.00     0.000 HD 
ENDBRANCH   5  40
ENDBRANCH   2   3
TORSDOF 9
ENDMDL
MODEL      127
REMARK 921   NORMALIZED FREE ENERGY PREDICTED BY IDOCK:    1.21 KCAL/MOL
REMARK 922        TOTAL FREE ENERGY PREDICTED BY IDOCK:   -0.29 KCAL/MOL
REMARK 923 INTER-LIGAND FREE ENERGY PREDICTED BY IDOCK:   -1.75 KCAL/MOL
REMARK 924 INTRA-LIGAND FREE ENERGY PREDICTED BY IDOCK:    1.46 KCAL/MOL
REMARK 927      BINDING AFFINITY PREDICTED BY RF-SCORE:    0.00 PKD
ROOT
HETATM    1  C   UNL     1      -8.457  17.708  65.343  1.00  0.00     1.413 C  
HETATM    2  C   UNL     1      -8.020  16.487  66.150  1.00  0.00    -0.191 C  
ENDROOT
BRANCH   2   3
HETATM    3  C   UNL     1      -9.149  15.605  66.566  1.00  0.00    -0.303 A  
HETATM    4  C   UNL     1      -9.813  15.673  67.826  1.00  0.00    -0.220 A  
HETATM    5  C   UNL     1      -9.958  13.536  66.194  1.00  0.00    -0.304 A  
HETATM    6  N   UNL     1     -10.708  14.687  68.166  1.00  0.00    -0.239 NA 
HETATM    7  N   UNL     1      -9.285  14.592  65.702  1.00  0.00     0.087 NA 
HETATM    8  C   UNL     1     -10.818  13.600  67.305  1.00  0.00    -0.284 A  
BRANCH   4   9
HETATM    9  N   UNL     1      -9.538  16.798  68.579  1.00  0.00    -0.236 NA 
HETATM   10  H   UNL     1      -9.649  16.583  69.569  1.00  0.00     0.000 HD 
BRANCH   9  11
HETATM   11  C   UNL     1      -9.138  18.200  68.420  1.00  0.00    -0.307 C  
HETATM   12  O   UNL     1     -10.538  20.630  68.992  1.00  0.00     0.070 OA 
HETATM   13  C   UNL     1     -11.106  19.708  68.063  1.00  0.00     0.361 C  
HETATM   14  C   UNL     1      -8.792  19.044  69.635  1.00  0.00     0.553 C  
HETATM   15  C   UNL     1      -9.996  18.930  67.394  1.00  0.00    -0.392 C  
HETATM   16  C   UNL     1      -9.915  19.964  70.090  1.00  0.00     0.645 C  
ENDBRANCH   9  11
ENDBRANCH   4   9
BRANCH   8  17
HETATM   17  N   UNL     1     -11.861  12.632  67.451  1.00  0.00    -0.404 NA 
HETATM   18  H   UNL     1     -12.739  12.849  66.980  1.00  0.00     0.000 HD 
BRANCH  17  19
HETATM   19  C   UNL     1     -11.831  11.400  68.172  1.00  0.00    -0.218 A  
HETATM   20  C   UNL     1     -11.705  11.402  69.560  1.00  0.00    -0.417 A  
HETATM   21  C   UNL     1     -11.300  10.240  70.253  1.00  0.00    -0.398 A  
HETATM   22  C   UNL     1     -10.966   9.038  69.597  1.00  0.00    -0.136 A  
HETATM   23  C   UNL     1     -11.223   9.002  68.208  1.00  0.00     0.398 A  
HETATM   24  C   UNL     1     -11.692  10.153  67.532  1.00  0.00     1.105 A  
BRANCH  22  25
HETATM   25  N   UNL     1     -10.321   8.036  70.317  1.00  0.00    -0.208 NA 
HETATM   26  C   UNL     1     -10.924   6.709  70.487  1.00  0.00    -0.286 C  
HETATM   27  C   UNL     1      -9.275   8.365  71.285  1.00  0.00    -0.178 C  
HETATM   28  C   UNL     1      -8.166   7.317  71.190  1.00  0.00    -0.107 C  
HETATM   29  C   UNL     1      -9.818   5.653  70.397  1.00  0.00    -0.253 C  
HETATM   30  C   UNL     1      -8.700   5.878  71.447  1.00  0.00    -0.133 C  
BRANCH  30  31
HETATM   31  N   UNL     1      -9.152   5.663  72.851  1.00  0.00    -0.127 NA 
HETATM   32  C   UNL     1     -10.594   5.331  72.967  1.00  0.00    -0.234 C  
HETATM   33  C   UNL     1     -10.967   3.903  72.497  1.00  0.00     0.199 C  
HETATM   34  N   UNL     1     -10.202   2.824  73.156  1.00  0.00    -0.128 NA 
HETATM   35  C   UNL     1     -10.652   2.623  74.535  1.00  0.00    -0.107 C  
HETATM   36  C   UNL     1      -8.761   3.147  73.107  1.00  0.00    -0.080 C  
HETATM   37  C   UNL     1      -8.405   4.589  73.553  1.00  0.00    -0.102 C  
ENDBRANCH  30  31
ENDBRANCH  22  25
BRANCH  23  38
HETATM   38  O   UNL     1     -11.030   7.802  67.554  1.00  0.00    -0.149 OA 
HETATM   39  C   UNL     1      -9.868   7.713  66.737  1.00  0.00    -0.237 C  
ENDBRANCH  23  38
ENDBRANCH  17  19
ENDBRANCH   8  17
BRANCH   5  40
HETATM   40  C   UNL     1      -9.260  12.267  65.799  1.00  0.00     0.032 C  
HETATM   41  H2  UNL     1      -9.385  11.407  67.584  1.00  0.00     0.000 HD 
HETATM   42  N   UNL     1      -8.690  11.590  66.861  1.00  0.00    -0.174 N  
HETATM   43  O   UNL     1      -9.317  11.762  64.689  1.00  0.00    -0.061 OA 
HETATM   44  H1  UNL     1      -8.215  10.727  66.593  1.00  0.00     0.000 HD 
ENDBRANCH   5  40
ENDBRANCH   2   3
TORSDOF 9
ENDMDL
MODEL      128
REMARK 921   NORMALIZED FREE ENERGY PREDICTED BY IDOCK:    1.21 KCAL/MOL
REMARK 922        TOTAL FREE ENERGY PREDICTED BY IDOCK:   -0.29 KCAL/MOL
REMARK 923 INTER-LIGAND FREE ENERGY PREDICTED BY IDOCK:   -5.71 KCAL/MOL
REMARK 924 INTRA-LIGAND FREE ENERGY PREDICTED BY IDOCK:    5.42 KCAL/MOL
REMARK 927      BINDING AFFINITY PREDICTED BY RF-SCORE:    0.00 PKD
ROOT
HETATM    1  C   UNL     1     -10.827  15.063  72.141  1.00  0.00     0.702 C  
HETATM    2  C   UNL     1     -11.835  14.914  71.004  1.00  0.00    -0.380 C  
ENDROOT
BRANCH   2   3
HETATM    3  C   UNL     1     -11.587  13.730  70.131  1.00  0.00    -0.160 A  
HETATM    4  C   UNL     1     -11.413  13.784  68.717  1.00  0.00    -0.303 A  
HETATM    5  C   UNL     1     -12.019  11.520  70.044  1.00  0.00    -0.357 A  
HETATM    6  N   UNL     1     -11.381  12.611  68.000  1.00  0.00    -0.269 NA 
HETATM    7  N   UNL     1     -11.795  12.600  70.816  1.00  0.00     0.018 NA 
HETATM    8  C   UNL     1     -11.652  11.434  68.689  1.00  0.00    -0.320 A  
BRANCH   4   9
HETATM    9  N   UNL     1     -11.215  15.047  68.194  1.00  0.00    -0.294 NA 
HETATM   10  H   UNL     1     -12.059  15.606  68.321  1.00  0.00     0.000 HD 
BRANCH   9  11
HETATM   11  C   UNL     1     -10.190  15.848  67.517  1.00  0.00    -0.269 C  
HETATM   12  O   UNL     1     -10.419  18.095  65.760  1.00  0.00    -0.584 OA 
HETATM   13  C   UNL     1     -11.040  16.865  65.390  1.00  0.00     0.089 C  
HETATM   14  C   UNL     1      -9.876  17.257  67.991  1.00  0.00    -0.284 C  
HETATM   15  C   UNL     1     -10.268  15.717  66.000  1.00  0.00    -0.354 C  
HETATM   16  C   UNL     1     -10.530  18.350  67.160  1.00  0.00    -0.404 C  
ENDBRANCH   9  11
ENDBRANCH   4   9
BRANCH   8  17
HETATM   17  N   UNL     1     -11.439  10.152  68.093  1.00  0.00    -0.628 NA 
HETATM   18  H   UNL     1     -11.694  10.071  67.109  1.00  0.00     0.000 HD 
BRANCH  17  19
HETATM   19  C   UNL     1     -10.914   8.970  68.697  1.00  0.00     0.080 A  
HETATM   20  C   UNL     1     -10.988   8.794  70.077  1.00  0.00    -0.216 A  
HETATM   21  C   UNL     1     -10.168   7.851  70.734  1.00  0.00    -0.202 A  
HETATM   22  C   UNL     1      -9.213   7.067  70.055  1.00  0.00    -0.148 A  
HETATM   23  C   UNL     1      -9.236   7.152  68.645  1.00  0.00    -0.135 A  
HETATM   24  C   UNL     1     -10.108   8.054  67.991  1.00  0.00    -0.238 A  
BRANCH  22  25
HETATM   25  N   UNL     1      -8.265   6.368  70.798  1.00  0.00    -0.123 NA 
HETATM   26  C   UNL     1      -8.306   4.905  70.904  1.00  0.00    -0.107 C  
HETATM   27  C   UNL     1      -7.488   7.039  71.840  1.00  0.00    -0.087 C  
HETATM   28  C   UNL     1      -6.052   6.514  71.799  1.00  0.00    -0.038 C  
HETATM   29  C   UNL     1      -6.871   4.371  70.869  1.00  0.00    -0.036 C  
HETATM   30  C   UNL     1      -5.990   4.972  71.995  1.00  0.00    -0.024 C  
BRANCH  30  31
HETATM   31  N   UNL     1      -6.396   4.537  73.362  1.00  0.00    -0.043 NA 
HETATM   32  C   UNL     1      -7.733   5.035  73.772  1.00  0.00    -0.099 C  
HETATM   33  C   UNL     1      -8.924   4.342  73.064  1.00  0.00    -0.116 C  
HETATM   34  N   UNL     1      -8.935   2.870  73.187  1.00  0.00    -0.082 NA 
HETATM   35  C   UNL     1      -9.331   2.455  74.534  1.00  0.00    -0.082 C  
HETATM   36  C   UNL     1      -7.600   2.341  72.837  1.00  0.00    -0.044 C  
HETATM   37  C   UNL     1      -6.416   3.062  73.531  1.00  0.00    -0.024 C  
ENDBRANCH  30  31
ENDBRANCH  22  25
BRANCH  23  38
HETATM   38  O   UNL     1      -8.405   6.305  67.941  1.00  0.00    -0.117 OA 
HETATM   39  C   UNL     1      -7.215   6.885  67.418  1.00  0.00    -0.090 C  
ENDBRANCH  23  38
ENDBRANCH  17  19
ENDBRANCH   8  17
BRANCH   5  40
HETATM   40  C   UNL     1     -13.154  10.721  70.615  1.00  0.00    -0.128 C  
HETATM   41  H2  UNL     1     -13.714  12.089  71.941  1.00  0.00     0.000 HD 
HETATM   42  N   UNL     1     -13.508  11.092  71.899  1.00  0.00    -0.350 N  
HETATM   43  O   UNL     1     -13.837   9.935  69.977  1.00  0.00     0.535 OA 
HETATM   44  H1  UNL     1     -14.280  10.549  72.287  1.00  0.00     0.000 HD 
ENDBRANCH   5  40
ENDBRANCH   2   3
TORSDOF 9
ENDMDL
MODEL      129
REMARK 921   NORMALIZED FREE ENERGY PREDICTED BY IDOCK:    1.66 KCAL/MOL
REMARK 922        TOTAL FREE ENERGY PREDICTED BY IDOCK:    0.39 KCAL/MOL
REMARK 923 INTER-LIGAND FREE ENERGY PREDICTED BY IDOCK:   -0.52 KCAL/MOL
REMARK 924 INTRA-LIGAND FREE ENERGY PREDICTED BY IDOCK:    0.91 KCAL/MOL
REMARK 927      BINDING AFFINITY PREDICTED BY RF-SCORE:    0.00 PKD
ROOT
HETATM    1  C   UNL     1     -14.204  13.654  70.928  1.00  0.00     1.248 C  
HETATM    2  C   UNL     1     -12.993  12.825  71.348  1.00  0.00    -0.359 C  
ENDROOT
BRANCH   2   3
HETATM    3  C   UNL     1     -11.810  12.991  70.454  1.00  0.00    -0.165 A  
HETATM    4  C   UNL     1     -10.975  14.146  70.415  1.00  0.00     0.393 A  
HETATM    5  C   UNL     1     -11.045  12.309  68.448  1.00  0.00    -0.243 A  
HETATM    6  N   UNL     1     -10.033  14.260  69.421  1.00  0.00     0.080 NA 
HETATM    7  N   UNL     1     -11.790  12.022  69.532  1.00  0.00    -0.323 NA 
HETATM    8  C   UNL     1     -10.038  13.289  68.424  1.00  0.00    -0.237 A  
BRANCH   4   9
HETATM    9  N   UNL     1     -11.150  15.037  71.457  1.00  0.00    -0.575 NA 
HETATM   10  H   UNL     1     -10.389  14.933  72.128  1.00  0.00     0.000 HD 
BRANCH   9  11
HETATM   11  C   UNL     1     -12.071  16.082  71.914  1.00  0.00    -0.514 C  
HETATM   12  O   UNL     1     -12.357  17.351  74.464  1.00  0.00    -0.390 OA 
HETATM   13  C   UNL     1     -12.518  15.936  74.375  1.00  0.00    -0.621 C  
HETATM   14  C   UNL     1     -11.571  17.497  72.153  1.00  0.00     1.932 C  
HETATM   15  C   UNL     1     -13.021  15.579  72.995  1.00  0.00    -0.609 C  
HETATM   16  C   UNL     1     -11.310  17.822  73.617  1.00  0.00     1.376 C  
ENDBRANCH   9  11
ENDBRANCH   4   9
BRANCH   8  17
HETATM   17  N   UNL     1      -8.978  13.194  67.468  1.00  0.00    -0.186 NA 
HETATM   18  H   UNL     1      -8.820  14.022  66.895  1.00  0.00     0.000 HD 
BRANCH  17  19
HETATM   19  C   UNL     1      -8.111  12.089  67.214  1.00  0.00    -0.174 A  
HETATM   20  C   UNL     1      -8.323  11.271  66.106  1.00  0.00    -0.111 A  
HETATM   21  C   UNL     1      -7.744   9.985  66.031  1.00  0.00    -0.110 A  
HETATM   22  C   UNL     1      -6.959   9.441  67.067  1.00  0.00    -0.085 A  
HETATM   23  C   UNL     1      -6.638  10.321  68.125  1.00  0.00    -0.057 A  
HETATM   24  C   UNL     1      -7.171  11.632  68.159  1.00  0.00    -0.085 A  
BRANCH  22  25
HETATM   25  N   UNL     1      -6.655   8.082  67.038  1.00  0.00    -0.056 NA 
HETATM   26  C   UNL     1      -6.293   7.408  65.787  1.00  0.00    -0.041 C  
HETATM   27  C   UNL     1      -7.103   7.192  68.109  1.00  0.00    -0.085 C  
HETATM   28  C   UNL     1      -5.992   6.185  68.410  1.00  0.00    -0.016 C  
HETATM   29  C   UNL     1      -5.184   6.393  66.079  1.00  0.00    -0.013 C  
HETATM   30  C   UNL     1      -5.602   5.355  67.152  1.00  0.00    -0.013 C  
BRANCH  30  31
HETATM   31  N   UNL     1      -6.683   4.435  66.698  1.00  0.00    -0.050 NA 
HETATM   32  C   UNL     1      -6.299   3.002  66.735  1.00  0.00    -0.035 C  
HETATM   33  C   UNL     1      -6.210   2.395  68.158  1.00  0.00    -0.025 C  
HETATM   34  N   UNL     1      -7.436   2.554  68.967  1.00  0.00    -0.044 NA 
HETATM   35  C   UNL     1      -8.492   1.647  68.510  1.00  0.00    -0.059 C  
HETATM   36  C   UNL     1      -7.880   3.961  68.910  1.00  0.00    -0.056 C  
HETATM   37  C   UNL     1      -7.937   4.565  67.483  1.00  0.00    -0.100 C  
ENDBRANCH  30  31
ENDBRANCH  22  25
BRANCH  23  38
HETATM   38  O   UNL     1      -5.767   9.865  69.093  1.00  0.00    -0.035 OA 
HETATM   39  C   UNL     1      -6.300   9.739  70.407  1.00  0.00    -0.093 C  
ENDBRANCH  23  38
ENDBRANCH  17  19
ENDBRANCH   8  17
BRANCH   5  40
HETATM   40  C   UNL     1     -11.783  11.893  67.208  1.00  0.00    -0.247 C  
HETATM   41  H2  UNL     1     -11.911   9.971  67.688  1.00  0.00     0.000 HD 
HETATM   42  N   UNL     1     -11.641  10.555  66.896  1.00  0.00     0.465 N  
HETATM   43  O   UNL     1     -12.580  12.598  66.609  1.00  0.00    -0.198 OA 
HETATM   44  H1  UNL     1     -12.142  10.272  66.054  1.00  0.00     0.000 HD 
ENDBRANCH   5  40
ENDBRANCH   2   3
TORSDOF 9
ENDMDL
MODEL      130
REMARK 921   NORMALIZED FREE ENERGY PREDICTED BY IDOCK:    1.84 KCAL/MOL
REMARK 922        TOTAL FREE ENERGY PREDICTED BY IDOCK:    0.67 KCAL/MOL
REMARK 923 INTER-LIGAND FREE ENERGY PREDICTED BY IDOCK:   -4.03 KCAL/MOL
REMARK 924 INTRA-LIGAND FREE ENERGY PREDICTED BY IDOCK:    4.70 KCAL/MOL
REMARK 927      BINDING AFFINITY PREDICTED BY RF-SCORE:    0.00 PKD
ROOT
HETATM    1  C   UNL     1     -11.885  15.490  70.909  1.00  0.00    -0.413 C  
HETATM    2  C   UNL     1     -11.776  15.251  69.405  1.00  0.00    -0.361 C  
ENDROOT
BRANCH   2   3
HETATM    3  C   UNL     1     -10.572  14.466  69.005  1.00  0.00    -0.237 A  
HETATM    4  C   UNL     1     -10.420  13.061  69.185  1.00  0.00     0.111 A  
HETATM    5  C   UNL     1      -8.350  14.722  68.732  1.00  0.00    -0.168 A  
HETATM    6  N   UNL     1      -9.195  12.483  68.953  1.00  0.00     0.184 NA 
HETATM    7  N   UNL     1      -9.568  15.292  68.687  1.00  0.00    -0.199 NA 
HETATM    8  C   UNL     1      -8.130  13.334  68.676  1.00  0.00    -0.028 A  
BRANCH   4   9
HETATM    9  N   UNL     1     -11.576  12.380  69.518  1.00  0.00    -0.365 NA 
HETATM   10  H   UNL     1     -12.305  13.047  69.770  1.00  0.00     0.000 HD 
BRANCH   9  11
HETATM   11  C   UNL     1     -12.097  11.014  69.627  1.00  0.00    -0.340 C  
HETATM   12  O   UNL     1     -10.858   8.597  70.530  1.00  0.00    -0.219 OA 
HETATM   13  C   UNL     1     -10.286   9.295  69.424  1.00  0.00    -0.210 C  
HETATM   14  C   UNL     1     -12.421  10.420  70.988  1.00  0.00    -0.488 C  
HETATM   15  C   UNL     1     -11.375  10.047  68.695  1.00  0.00    -0.115 C  
HETATM   16  C   UNL     1     -11.345   9.491  71.530  1.00  0.00    -0.385 C  
ENDBRANCH   9  11
ENDBRANCH   4   9
BRANCH   8  17
HETATM   17  N   UNL     1      -6.872  12.833  68.215  1.00  0.00    -0.081 NA 
HETATM   18  H   UNL     1      -6.072  13.451  68.347  1.00  0.00     0.000 HD 
BRANCH  17  19
HETATM   19  C   UNL     1      -6.592  11.579  67.593  1.00  0.00    -0.078 A  
HETATM   20  C   UNL     1      -6.599  11.467  66.204  1.00  0.00     0.228 A  
HETATM   21  C   UNL     1      -6.702  10.206  65.578  1.00  0.00    -0.122 A  
HETATM   22  C   UNL     1      -6.839   9.004  66.302  1.00  0.00    -0.078 A  
HETATM   23  C   UNL     1      -6.697   9.109  67.703  1.00  0.00    -0.069 A  
HETATM   24  C   UNL     1      -6.529  10.373  68.318  1.00  0.00    -0.059 A  
BRANCH  22  25
HETATM   25  N   UNL     1      -7.206   7.846  65.620  1.00  0.00    -0.069 NA 
HETATM   26  C   UNL     1      -8.589   7.625  65.183  1.00  0.00     0.023 C  
HETATM   27  C   UNL     1      -6.385   6.639  65.700  1.00  0.00    -0.046 C  
HETATM   28  C   UNL     1      -6.353   5.972  64.323  1.00  0.00    -0.030 C  
HETATM   29  C   UNL     1      -8.565   6.953  63.806  1.00  0.00     0.496 C  
HETATM   30  C   UNL     1      -7.779   5.617  63.815  1.00  0.00    -0.098 C  
BRANCH  30  31
HETATM   31  N   UNL     1      -8.438   4.546  64.616  1.00  0.00    -0.124 NA 
HETATM   32  C   UNL     1      -7.583   3.351  64.828  1.00  0.00    -0.077 C  
HETATM   33  C   UNL     1      -6.422   3.560  65.831  1.00  0.00    -0.033 C  
HETATM   34  N   UNL     1      -6.843   4.053  67.159  1.00  0.00    -0.050 NA 
HETATM   35  C   UNL     1      -7.491   2.993  67.935  1.00  0.00    -0.053 C  
HETATM   36  C   UNL     1      -7.741   5.213  66.986  1.00  0.00    -0.092 C  
HETATM   37  C   UNL     1      -8.882   5.001  65.957  1.00  0.00    -0.130 C  
ENDBRANCH  30  31
ENDBRANCH  22  25
BRANCH  23  38
HETATM   38  O   UNL     1      -6.697   7.939  68.435  1.00  0.00    -0.062 OA 
HETATM   39  C   UNL     1      -7.134   8.044  69.785  1.00  0.00    -0.060 C  
ENDBRANCH  23  38
ENDBRANCH  17  19
ENDBRANCH   8  17
BRANCH   5  40
HETATM   40  C   UNL     1      -7.382  15.656  69.398  1.00  0.00    -0.216 C  
HETATM   41  H2  UNL     1      -8.036  17.298  68.493  1.00  0.00     0.000 HD 
HETATM   42  N   UNL     1      -7.156  16.822  68.692  1.00  0.00    -0.184 N  
HETATM   43  O   UNL     1      -6.952  15.514  70.532  1.00  0.00     0.262 OA 
HETATM   44  H1  UNL     1      -6.498  17.457  69.144  1.00  0.00     0.000 HD 
ENDBRANCH   5  40
ENDBRANCH   2   3
TORSDOF 9
ENDMDL
MODEL      131
REMARK 921   NORMALIZED FREE ENERGY PREDICTED BY IDOCK:    2.54 KCAL/MOL
REMARK 922        TOTAL FREE ENERGY PREDICTED BY IDOCK:    1.74 KCAL/MOL
REMARK 923 INTER-LIGAND FREE ENERGY PREDICTED BY IDOCK:   -3.85 KCAL/MOL
REMARK 924 INTRA-LIGAND FREE ENERGY PREDICTED BY IDOCK:    5.59 KCAL/MOL
REMARK 927      BINDING AFFINITY PREDICTED BY RF-SCORE:    0.00 PKD
ROOT
HETATM    1  C   UNL     1     -11.919   6.380  71.690  1.00  0.00    -0.347 C  
HETATM    2  C   UNL     1     -11.158   5.508  70.694  1.00  0.00    -0.094 C  
ENDROOT
BRANCH   2   3
HETATM    3  C   UNL     1     -10.086   6.234  69.953  1.00  0.00    -0.173 A  
HETATM    4  C   UNL     1      -9.045   5.609  69.208  1.00  0.00    -0.113 A  
HETATM    5  C   UNL     1      -8.940   8.173  70.024  1.00  0.00    -0.143 A  
HETATM    6  N   UNL     1      -8.010   6.375  68.728  1.00  0.00    -0.109 NA 
HETATM    7  N   UNL     1     -10.093   7.530  70.286  1.00  0.00    -0.193 NA 
HETATM    8  C   UNL     1      -7.974   7.711  69.112  1.00  0.00    -0.120 A  
BRANCH   4   9
HETATM    9  N   UNL     1      -9.218   4.258  68.971  1.00  0.00    -0.132 NA 
HETATM   10  H   UNL     1      -9.905   4.126  68.229  1.00  0.00     0.000 HD 
BRANCH   9  11
HETATM   11  C   UNL     1      -8.737   2.953  69.436  1.00  0.00    -0.078 C  
HETATM   12  O   UNL     1      -9.119   1.587  71.921  1.00  0.00    -0.066 OA 
HETATM   13  C   UNL     1      -8.495   2.871  71.928  1.00  0.00    -0.062 C  
HETATM   14  C   UNL     1      -9.693   1.778  69.553  1.00  0.00     0.035 C  
HETATM   15  C   UNL     1      -7.779   3.081  70.614  1.00  0.00    -0.043 C  
HETATM   16  C   UNL     1     -10.181   1.515  70.970  1.00  0.00     0.237 C  
ENDBRANCH   9  11
ENDBRANCH   4   9
BRANCH   8  17
HETATM   17  N   UNL     1      -7.070   8.640  68.506  1.00  0.00    -0.072 NA 
HETATM   18  H   UNL     1      -6.084   8.378  68.527  1.00  0.00     0.000 HD 
BRANCH  17  19
HETATM   19  C   UNL     1      -7.369   9.885  67.877  1.00  0.00    -0.088 A  
HETATM   20  C   UNL     1      -6.501  10.967  68.013  1.00  0.00    -0.058 A  
HETATM   21  C   UNL     1      -6.932  12.282  67.736  1.00  0.00    -0.115 A  
HETATM   22  C   UNL     1      -8.253  12.586  67.347  1.00  0.00    -0.183 A  
HETATM   23  C   UNL     1      -9.088  11.478  67.083  1.00  0.00    -0.167 A  
HETATM   24  C   UNL     1      -8.626  10.158  67.301  1.00  0.00    -0.125 A  
BRANCH  22  25
HETATM   25  N   UNL     1      -8.668  13.916  67.359  1.00  0.00    -0.192 NA 
HETATM   26  C   UNL     1      -8.372  14.797  68.493  1.00  0.00    -0.160 C  
HETATM   27  C   UNL     1      -9.763  14.365  66.500  1.00  0.00    -0.290 C  
HETATM   28  C   UNL     1      -9.424  15.753  65.954  1.00  0.00    -0.377 C  
HETATM   29  C   UNL     1      -8.035  16.191  67.955  1.00  0.00    -0.150 C  
HETATM   30  C   UNL     1      -9.180  16.783  67.094  1.00  0.00    -0.224 C  
BRANCH  30  31
HETATM   31  N   UNL     1     -10.410  17.096  67.876  1.00  0.00    -0.335 NA 
HETATM   32  C   UNL     1     -11.662  16.629  67.228  1.00  0.00     0.895 C  
HETATM   33  C   UNL     1     -11.875  15.096  67.269  1.00  0.00    -0.056 C  
HETATM   34  N   UNL     1     -11.824  14.509  68.624  1.00  0.00    -0.327 NA 
HETATM   35  C   UNL     1     -13.036  14.825  69.383  1.00  0.00     0.655 C  
HETATM   36  C   UNL     1     -10.616  14.995  69.321  1.00  0.00    -0.247 C  
HETATM   37  C   UNL     1     -10.398  16.528  69.247  1.00  0.00    -0.318 C  
ENDBRANCH  30  31
ENDBRANCH  22  25
BRANCH  23  38
HETATM   38  O   UNL     1     -10.347  11.733  66.578  1.00  0.00    -0.214 OA 
HETATM   39  C   UNL     1     -10.981  10.654  65.901  1.00  0.00     0.143 C  
ENDBRANCH  23  38
ENDBRANCH  17  19
ENDBRANCH   8  17
BRANCH   5  40
HETATM   40  C   UNL     1      -8.584   9.058  71.182  1.00  0.00    -0.190 C  
HETATM   41  H2  UNL     1      -9.903   8.276  72.444  1.00  0.00     0.000 HD 
HETATM   42  N   UNL     1      -9.595   9.191  72.115  1.00  0.00     0.064 N  
HETATM   43  O   UNL     1      -7.465   9.494  71.402  1.00  0.00    -0.326 OA 
HETATM   44  H1  UNL     1      -9.354   9.793  72.902  1.00  0.00     0.000 HD 
ENDBRANCH   5  40
ENDBRANCH   2   3
TORSDOF 9
ENDMDL
MODEL      132
REMARK 921   NORMALIZED FREE ENERGY PREDICTED BY IDOCK:    3.16 KCAL/MOL
REMARK 922        TOTAL FREE ENERGY PREDICTED BY IDOCK:    2.69 KCAL/MOL
REMARK 923 INTER-LIGAND FREE ENERGY PREDICTED BY IDOCK:   -0.84 KCAL/MOL
REMARK 924 INTRA-LIGAND FREE ENERGY PREDICTED BY IDOCK:    3.53 KCAL/MOL
REMARK 927      BINDING AFFINITY PREDICTED BY RF-SCORE:    0.00 PKD
ROOT
HETATM    1  C   UNL     1      -8.950   6.606  62.913  1.00  0.00     0.912 C  
HETATM    2  C   UNL     1      -8.176   6.321  64.198  1.00  0.00    -0.010 C  
ENDROOT
BRANCH   2   3
HETATM    3  C   UNL     1      -7.543   7.531  64.800  1.00  0.00    -0.102 A  
HETATM    4  C   UNL     1      -7.062   7.616  66.139  1.00  0.00    -0.070 A  
HETATM    5  C   UNL     1      -7.575   9.776  64.615  1.00  0.00    -0.134 A  
HETATM    6  N   UNL     1      -6.674   8.837  66.636  1.00  0.00    -0.071 NA 
HETATM    7  N   UNL     1      -7.715   8.588  63.998  1.00  0.00    -0.129 NA 
HETATM    8  C   UNL     1      -6.898   9.953  65.835  1.00  0.00    -0.101 A  
BRANCH   4   9
HETATM    9  N   UNL     1      -6.960   6.411  66.807  1.00  0.00    -0.066 NA 
HETATM   10  H   UNL     1      -6.213   6.465  67.499  1.00  0.00     0.000 HD 
BRANCH   9  11
HETATM   11  C   UNL     1      -7.574   5.080  66.848  1.00  0.00    -0.088 C  
HETATM   12  O   UNL     1      -8.051   3.297  69.035  1.00  0.00    -0.059 OA 
HETATM   13  C   UNL     1      -6.712   3.701  68.753  1.00  0.00    -0.045 C  
HETATM   14  C   UNL     1      -8.967   4.893  67.425  1.00  0.00    -0.111 C  
HETATM   15  C   UNL     1      -6.585   4.003  67.278  1.00  0.00    -0.046 C  
HETATM   16  C   UNL     1      -8.980   4.365  68.852  1.00  0.00    -0.109 C  
ENDBRANCH   9  11
ENDBRANCH   4   9
BRANCH   8  17
HETATM   17  N   UNL     1      -6.346  11.231  66.161  1.00  0.00    -0.347 NA 
HETATM   18  H   UNL     1      -5.351  11.348  65.968  1.00  0.00     0.000 HD 
BRANCH  17  19
HETATM   19  C   UNL     1      -7.007  12.365  66.723  1.00  0.00     0.282 A  
HETATM   20  C   UNL     1      -6.926  12.619  68.090  1.00  0.00    -0.096 A  
HETATM   21  C   UNL     1      -7.847  13.480  68.724  1.00  0.00    -0.029 A  
HETATM   22  C   UNL     1      -8.911  14.099  68.036  1.00  0.00    -0.183 A  
HETATM   23  C   UNL     1      -8.909  13.945  66.632  1.00  0.00    -0.081 A  
HETATM   24  C   UNL     1      -7.941  13.131  65.997  1.00  0.00     1.950 A  
BRANCH  22  25
HETATM   25  N   UNL     1      -9.925  14.706  68.772  1.00  0.00    -0.232 NA 
HETATM   26  C   UNL     1      -9.639  15.798  69.709  1.00  0.00    -0.144 C  
HETATM   27  C   UNL     1     -11.201  14.026  68.992  1.00  0.00    -0.276 C  
HETATM   28  C   UNL     1     -12.331  15.053  68.895  1.00  0.00    -0.023 C  
HETATM   29  C   UNL     1     -10.768  16.829  69.622  1.00  0.00    -0.229 C  
HETATM   30  C   UNL     1     -12.157  16.209  69.921  1.00  0.00     0.041 C  
BRANCH  30  31
HETATM   31  N   UNL     1     -12.318  15.766  71.335  1.00  0.00    -0.423 NA 
HETATM   32  C   UNL     1     -13.731  15.540  71.731  1.00  0.00    -0.483 C  
HETATM   33  C   UNL     1     -14.372  14.266  71.130  1.00  0.00     0.122 C  
HETATM   34  N   UNL     1     -13.625  13.020  71.399  1.00  0.00     0.014 NA 
HETATM   35  C   UNL     1     -13.787  12.597  72.792  1.00  0.00     0.571 C  
HETATM   36  C   UNL     1     -12.200  13.225  71.067  1.00  0.00    -0.197 C  
HETATM   37  C   UNL     1     -11.577  14.519  71.651  1.00  0.00     0.073 C  
ENDBRANCH  30  31
ENDBRANCH  22  25
BRANCH  23  38
HETATM   38  O   UNL     1      -9.859  14.640  65.912  1.00  0.00    -0.305 OA 
HETATM   39  C   UNL     1     -10.654  13.871  65.016  1.00  0.00    -0.404 C  
ENDBRANCH  23  38
ENDBRANCH  17  19
ENDBRANCH   8  17
BRANCH   5  40
HETATM   40  C   UNL     1      -8.664  10.707  64.166  1.00  0.00    -0.131 C  
HETATM   41  H2  UNL     1      -7.806  11.200  62.444  1.00  0.00     0.000 HD 
HETATM   42  N   UNL     1      -8.247  11.651  63.246  1.00  0.00     0.215 N  
HETATM   43  O   UNL     1      -9.847  10.566  64.430  1.00  0.00    -0.296 OA 
HETATM   44  H1  UNL     1      -8.987  12.283  62.940  1.00  0.00     0.000 HD 
ENDBRANCH   5  40
ENDBRANCH   2   3
TORSDOF 9
ENDMDL
MODEL      133
REMARK 921   NORMALIZED FREE ENERGY PREDICTED BY IDOCK:    3.52 KCAL/MOL
REMARK 922        TOTAL FREE ENERGY PREDICTED BY IDOCK:    3.24 KCAL/MOL
REMARK 923 INTER-LIGAND FREE ENERGY PREDICTED BY IDOCK:   -0.42 KCAL/MOL
REMARK 924 INTRA-LIGAND FREE ENERGY PREDICTED BY IDOCK:    3.66 KCAL/MOL
REMARK 927      BINDING AFFINITY PREDICTED BY RF-SCORE:    0.00 PKD
ROOT
HETATM    1  C   UNL     1     -10.131  14.334  70.982  1.00  0.00     2.812 C  
HETATM    2  C   UNL     1      -9.478  15.414  70.123  1.00  0.00     0.260 C  
ENDROOT
BRANCH   2   3
HETATM    3  C   UNL     1      -8.414  14.899  69.213  1.00  0.00    -0.116 A  
HETATM    4  C   UNL     1      -7.973  15.550  68.024  1.00  0.00    -0.133 A  
HETATM    5  C   UNL     1      -7.503  12.950  68.542  1.00  0.00    -0.123 A  
HETATM    6  N   UNL     1      -7.124  14.887  67.171  1.00  0.00    -0.188 NA 
HETATM    7  N   UNL     1      -8.110  13.634  69.529  1.00  0.00     0.659 NA 
HETATM    8  C   UNL     1      -6.844  13.555  67.457  1.00  0.00    -0.143 A  
BRANCH   4   9
HETATM    9  N   UNL     1      -8.399  16.857  67.875  1.00  0.00    -0.195 NA 
HETATM   10  H   UNL     1      -9.148  17.051  68.539  1.00  0.00     0.000 HD 
BRANCH   9  11
HETATM   11  C   UNL     1      -8.125  18.055  67.075  1.00  0.00    -0.225 C  
HETATM   12  O   UNL     1      -9.639  20.457  66.712  1.00  0.00    -0.399 OA 
HETATM   13  C   UNL     1     -10.230  19.208  66.354  1.00  0.00    -0.438 C  
HETATM   14  C   UNL     1      -7.719  19.354  67.750  1.00  0.00    -0.312 C  
HETATM   15  C   UNL     1      -9.140  18.240  65.953  1.00  0.00     0.193 C  
HETATM   16  C   UNL     1      -8.856  20.355  67.901  1.00  0.00    -0.080 C  
ENDBRANCH   9  11
ENDBRANCH   4   9
BRANCH   8  17
HETATM   17  N   UNL     1      -5.818  12.840  66.763  1.00  0.00    -0.355 NA 
HETATM   18  H   UNL     1      -5.036  13.402  66.426  1.00  0.00     0.000 HD 
BRANCH  17  19
HETATM   19  C   UNL     1      -5.747  11.444  66.480  1.00  0.00    -0.142 A  
HETATM   20  C   UNL     1      -6.134  10.959  65.232  1.00  0.00     0.084 A  
HETATM   21  C   UNL     1      -6.433   9.592  65.045  1.00  0.00    -0.084 A  
HETATM   22  C   UNL     1      -6.397   8.653  66.096  1.00  0.00    -0.056 A  
HETATM   23  C   UNL     1      -5.877   9.120  67.323  1.00  0.00    -0.046 A  
HETATM   24  C   UNL     1      -5.518  10.480  67.483  1.00  0.00    -0.044 A  
BRANCH  22  25
HETATM   25  N   UNL     1      -6.963   7.396  65.894  1.00  0.00    -0.060 NA 
HETATM   26  C   UNL     1      -6.675   6.615  64.686  1.00  0.00    -0.042 C  
HETATM   27  C   UNL     1      -8.173   6.997  66.612  1.00  0.00    -0.112 C  
HETATM   28  C   UNL     1      -8.047   5.525  67.010  1.00  0.00    -0.101 C  
HETATM   29  C   UNL     1      -6.553   5.138  65.075  1.00  0.00    -0.043 C  
HETATM   30  C   UNL     1      -7.829   4.605  65.774  1.00  0.00    -0.095 C  
BRANCH  30  31
HETATM   31  N   UNL     1      -9.015   4.539  64.875  1.00  0.00    -0.147 NA 
HETATM   32  C   UNL     1      -8.673   4.265  63.456  1.00  0.00    -0.121 C  
HETATM   33  C   UNL     1      -8.221   2.811  63.172  1.00  0.00    -0.077 C  
HETATM   34  N   UNL     1      -9.180   1.777  63.610  1.00  0.00    -0.095 NA 
HETATM   35  C   UNL     1     -10.343   1.723  62.721  1.00  0.00    -0.108 C  
HETATM   36  C   UNL     1      -9.587   2.048  65.004  1.00  0.00     0.096 C  
HETATM   37  C   UNL     1     -10.009   3.514  65.283  1.00  0.00     0.004 C  
ENDBRANCH  30  31
ENDBRANCH  22  25
BRANCH  23  38
HETATM   38  O   UNL     1      -5.706   8.200  68.337  1.00  0.00    -0.032 OA 
HETATM   39  C   UNL     1      -5.468   6.857  67.930  1.00  0.00    -0.016 C  
ENDBRANCH  23  38
ENDBRANCH  17  19
ENDBRANCH   8  17
BRANCH   5  40
HETATM   40  C   UNL     1      -8.094  11.573  68.448  1.00  0.00    -0.149 C  
HETATM   41  H2  UNL     1      -8.906  11.827  66.654  1.00  0.00     0.000 HD 
HETATM   42  N   UNL     1      -9.165  11.483  67.579  1.00  0.00    -0.164 N  
HETATM   43  O   UNL     1      -7.598  10.572  68.940  1.00  0.00    -0.091 OA 
HETATM   44  H1  UNL     1      -9.567  10.548  67.515  1.00  0.00     0.000 HD 
ENDBRANCH   5  40
ENDBRANCH   2   3
TORSDOF 9
ENDMDL
MODEL      134
REMARK 921   NORMALIZED FREE ENERGY PREDICTED BY IDOCK:    4.37 KCAL/MOL
REMARK 922        TOTAL FREE ENERGY PREDICTED BY IDOCK:    4.52 KCAL/MOL
REMARK 923 INTER-LIGAND FREE ENERGY PREDICTED BY IDOCK:    4.99 KCAL/MOL
REMARK 924 INTRA-LIGAND FREE ENERGY PREDICTED BY IDOCK:   -0.47 KCAL/MOL
REMARK 927      BINDING AFFINITY PREDICTED BY RF-SCORE:    0.00 PKD
ROOT
HETATM    1  C   UNL     1     -11.891  15.490  70.914  1.00  0.00    -0.413 C  
HETATM    2  C   UNL     1     -11.821  15.250  69.408  1.00  0.00    -0.367 C  
ENDROOT
BRANCH   2   3
HETATM    3  C   UNL     1     -10.658  14.418  68.984  1.00  0.00    -0.237 A  
HETATM    4  C   UNL     1     -10.561  13.007  69.155  1.00  0.00     0.043 A  
HETATM    5  C   UNL     1      -8.432  14.584  68.672  1.00  0.00    -0.161 A  
HETATM    6  N   UNL     1      -9.365  12.380  68.898  1.00  0.00     0.153 NA 
HETATM    7  N   UNL     1      -9.627  15.204  68.651  1.00  0.00    -0.205 NA 
HETATM    8  C   UNL     1      -8.271  13.188  68.606  1.00  0.00    -0.000 A  
BRANCH   4   9
HETATM    9  N   UNL     1     -11.738  12.373  69.505  1.00  0.00    -0.315 NA 
HETATM   10  H   UNL     1     -12.436  13.068  69.770  1.00  0.00     0.000 HD 
BRANCH   9  11
HETATM   11  C   UNL     1     -12.311  11.028  69.622  1.00  0.00    -0.234 C  
HETATM   12  O   UNL     1     -11.157   8.563  70.506  1.00  0.00    -0.244 OA 
HETATM   13  C   UNL     1     -10.574   9.238  69.392  1.00  0.00    -0.223 C  
HETATM   14  C   UNL     1     -12.639  10.447  70.986  1.00  0.00    -0.491 C  
HETATM   15  C   UNL     1     -11.642  10.034  68.679  1.00  0.00     0.078 C  
HETATM   16  C   UNL     1     -11.594   9.475  71.513  1.00  0.00    -0.395 C  
ENDBRANCH   9  11
ENDBRANCH   4   9
BRANCH   8  17
HETATM   17  N   UNL     1      -7.043  12.638  68.120  1.00  0.00    -0.091 NA 
HETATM   18  H   UNL     1      -6.214  13.217  68.253  1.00  0.00     0.000 HD 
BRANCH  17  19
HETATM   19  C   UNL     1      -6.829  11.385  67.473  1.00  0.00    -0.086 A  
HETATM   20  C   UNL     1      -6.855  11.298  66.083  1.00  0.00     0.066 A  
HETATM   21  C   UNL     1      -7.024  10.055  65.436  1.00  0.00    -0.127 A  
HETATM   22  C   UNL     1      -7.209   8.847  66.141  1.00  0.00    -0.090 A  
HETATM   23  C   UNL     1      -7.048   8.921  67.542  1.00  0.00    -0.076 A  
HETATM   24  C   UNL     1      -6.814  10.164  68.177  1.00  0.00    -0.066 A  
BRANCH  22  25
HETATM   25  N   UNL     1      -7.637   7.721  65.443  1.00  0.00    -0.084 NA 
HETATM   26  C   UNL     1      -9.034   7.570  65.020  1.00  0.00     0.459 C  
HETATM   27  C   UNL     1      -6.871   6.476  65.489  1.00  0.00    -0.048 C  
HETATM   28  C   UNL     1      -6.886   5.835  64.100  1.00  0.00    -0.049 C  
HETATM   29  C   UNL     1      -9.059   6.925  63.631  1.00  0.00     1.585 C  
HETATM   30  C   UNL     1      -8.334   5.555  63.604  1.00  0.00    -0.073 C  
BRANCH  30  31
HETATM   31  N   UNL     1      -9.030   4.499  64.394  1.00  0.00    -0.151 NA 
HETATM   32  C   UNL     1     -10.394   4.887  64.833  1.00  0.00     0.363 C  
HETATM   33  C   UNL     1     -11.452   4.912  63.702  1.00  0.00     2.340 C  
HETATM   34  N   UNL     1     -11.565   3.649  62.943  1.00  0.00     0.334 NA 
HETATM   35  C   UNL     1     -12.247   2.619  63.730  1.00  0.00     4.528 C  
HETATM   36  C   UNL     1     -10.217   3.203  62.535  1.00  0.00    -0.124 C  
HETATM   37  C   UNL     1      -9.161   3.210  63.670  1.00  0.00    -0.096 C  
ENDBRANCH  30  31
ENDBRANCH  22  25
BRANCH  23  38
HETATM   38  O   UNL     1      -7.095   7.739  68.253  1.00  0.00    -0.079 OA 
HETATM   39  C   UNL     1      -7.514   7.839  69.609  1.00  0.00    -0.090 C  
ENDBRANCH  23  38
ENDBRANCH  17  19
ENDBRANCH   8  17
BRANCH   5  40
HETATM   40  C   UNL     1      -7.415  15.474  69.324  1.00  0.00    -0.212 C  
HETATM   41  H2  UNL     1      -8.014  17.145  68.435  1.00  0.00     0.000 HD 
HETATM   42  N   UNL     1      -7.152  16.632  68.618  1.00  0.00    -0.173 N  
HETATM   43  O   UNL     1      -6.973  15.310  70.450  1.00  0.00     0.043 OA 
HETATM   44  H1  UNL     1      -6.461  17.238  69.061  1.00  0.00     0.000 HD 
ENDBRANCH   5  40
ENDBRANCH   2   3
TORSDOF 9
ENDMDL
MODEL      135
REMARK 921   NORMALIZED FREE ENERGY PREDICTED BY IDOCK:    4.71 KCAL/MOL
REMARK 922        TOTAL FREE ENERGY PREDICTED BY IDOCK:    5.05 KCAL/MOL
REMARK 923 INTER-LIGAND FREE ENERGY PREDICTED BY IDOCK:    6.16 KCAL/MOL
REMARK 924 INTRA-LIGAND FREE ENERGY PREDICTED BY IDOCK:   -1.11 KCAL/MOL
REMARK 927      BINDING AFFINITY PREDICTED BY RF-SCORE:    0.00 PKD
ROOT
HETATM    1  C   UNL     1     -11.952  15.883  70.608  1.00  0.00    -0.379 C  
HETATM    2  C   UNL     1     -12.030  15.700  69.095  1.00  0.00    -0.329 C  
ENDROOT
BRANCH   2   3
HETATM    3  C   UNL     1     -10.802  15.101  68.496  1.00  0.00    -0.247 A  
HETATM    4  C   UNL     1     -10.580  13.704  68.320  1.00  0.00    -0.253 A  
HETATM    5  C   UNL     1      -8.602  15.531  68.262  1.00  0.00    -0.161 A  
HETATM    6  N   UNL     1      -9.336  13.266  67.933  1.00  0.00    -0.206 NA 
HETATM    7  N   UNL     1      -9.847  16.031  68.378  1.00  0.00    -0.209 NA 
HETATM    8  C   UNL     1      -8.319  14.213  67.861  1.00  0.00    -0.162 A  
BRANCH   4   9
HETATM    9  N   UNL     1     -11.693  12.904  68.490  1.00  0.00    -0.320 NA 
HETATM   10  H   UNL     1     -12.219  13.217  69.305  1.00  0.00     0.000 HD 
BRANCH   9  11
HETATM   11  C   UNL     1     -12.366  11.751  67.882  1.00  0.00     0.769 C  
HETATM   12  O   UNL     1     -11.527   9.963  65.811  1.00  0.00     1.498 OA 
HETATM   13  C   UNL     1     -11.618  11.358  65.524  1.00  0.00     0.232 C  
HETATM   14  C   UNL     1     -11.906  10.338  68.197  1.00  0.00     0.544 C  
HETATM   15  C   UNL     1     -12.676  11.979  66.407  1.00  0.00     2.255 C  
HETATM   16  C   UNL     1     -11.022   9.721  67.123  1.00  0.00    -0.033 C  
ENDBRANCH   9  11
ENDBRANCH   4   9
BRANCH   8  17
HETATM   17  N   UNL     1      -7.053  13.908  67.272  1.00  0.00    -0.368 NA 
HETATM   18  H   UNL     1      -6.366  14.662  67.279  1.00  0.00     0.000 HD 
BRANCH  17  19
HETATM   19  C   UNL     1      -6.625  12.684  66.676  1.00  0.00     0.958 A  
HETATM   20  C   UNL     1      -7.101  12.310  65.420  1.00  0.00     3.645 A  
HETATM   21  C   UNL     1      -7.006  10.974  64.976  1.00  0.00     0.515 A  
HETATM   22  C   UNL     1      -6.468   9.942  65.772  1.00  0.00    -0.092 A  
HETATM   23  C   UNL     1      -5.868  10.348  66.985  1.00  0.00    -0.051 A  
HETATM   24  C   UNL     1      -5.911  11.703  67.392  1.00  0.00    -0.092 A  
BRANCH  22  25
HETATM   25  N   UNL     1      -6.658   8.620  65.378  1.00  0.00    -0.066 NA 
HETATM   26  C   UNL     1      -7.850   7.867  65.782  1.00  0.00    -0.103 C  
HETATM   27  C   UNL     1      -5.528   7.798  64.947  1.00  0.00    -0.033 C  
HETATM   28  C   UNL     1      -5.970   6.929  63.768  1.00  0.00    -0.039 C  
HETATM   29  C   UNL     1      -8.298   6.990  64.608  1.00  0.00     0.051 C  
HETATM   30  C   UNL     1      -7.182   6.024  64.135  1.00  0.00    -0.057 C  
BRANCH  30  31
HETATM   31  N   UNL     1      -6.846   4.970  65.134  1.00  0.00    -0.052 NA 
HETATM   32  C   UNL     1      -7.790   4.910  66.277  1.00  0.00    -0.096 C  
HETATM   33  C   UNL     1      -9.180   4.318  65.935  1.00  0.00    -0.145 C  
HETATM   34  N   UNL     1      -9.136   2.977  65.318  1.00  0.00    -0.146 NA 
HETATM   35  C   UNL     1      -8.802   1.950  66.307  1.00  0.00    -0.116 C  
HETATM   36  C   UNL     1      -8.163   2.982  64.206  1.00  0.00    -0.083 C  
HETATM   37  C   UNL     1      -6.786   3.604  64.553  1.00  0.00    -0.048 C  
ENDBRANCH  30  31
ENDBRANCH  22  25
BRANCH  23  38
HETATM   38  O   UNL     1      -5.219   9.385  67.730  1.00  0.00    -0.037 OA 
HETATM   39  C   UNL     1      -5.143   9.622  69.131  1.00  0.00    -0.036 C  
ENDBRANCH  23  38
ENDBRANCH  17  19
ENDBRANCH   8  17
BRANCH   5  40
HETATM   40  C   UNL     1      -7.662  16.321  69.125  1.00  0.00    -0.229 C  
HETATM   41  H2  UNL     1      -8.359  18.104  68.599  1.00  0.00     0.000 HD 
HETATM   42  N   UNL     1      -7.467  17.620  68.694  1.00  0.00    -0.265 N  
HETATM   43  O   UNL     1      -7.230  15.944  70.203  1.00  0.00     0.149 OA 
HETATM   44  H1  UNL     1      -6.827  18.157  69.281  1.00  0.00     0.000 HD 
ENDBRANCH   5  40
ENDBRANCH   2   3
TORSDOF 9
ENDMDL
MODEL      136
REMARK 921   NORMALIZED FREE ENERGY PREDICTED BY IDOCK:    4.91 KCAL/MOL
REMARK 922        TOTAL FREE ENERGY PREDICTED BY IDOCK:    5.36 KCAL/MOL
REMARK 923 INTER-LIGAND FREE ENERGY PREDICTED BY IDOCK:    7.25 KCAL/MOL
REMARK 924 INTRA-LIGAND FREE ENERGY PREDICTED BY IDOCK:   -1.89 KCAL/MOL
REMARK 927      BINDING AFFINITY PREDICTED BY RF-SCORE:    0.00 PKD
ROOT
HETATM    1  C   UNL     1     -10.198   3.096  68.508  1.00  0.00     1.239 C  
HETATM    2  C   UNL     1     -10.630   4.506  68.903  1.00  0.00     0.763 C  
ENDROOT
BRANCH   2   3
HETATM    3  C   UNL     1      -9.566   5.536  68.720  1.00  0.00    -0.135 A  
HETATM    4  C   UNL     1      -9.617   6.862  69.241  1.00  0.00    -0.149 A  
HETATM    5  C   UNL     1      -7.954   6.120  67.257  1.00  0.00    -0.102 A  
HETATM    6  N   UNL     1      -8.669   7.775  68.847  1.00  0.00    -0.135 NA 
HETATM    7  N   UNL     1      -8.683   5.127  67.801  1.00  0.00    -0.103 NA 
HETATM    8  C   UNL     1      -7.780   7.382  67.852  1.00  0.00    -0.116 A  
BRANCH   4   9
HETATM    9  N   UNL     1     -10.607   7.089  70.179  1.00  0.00    -0.221 NA 
HETATM   10  H   UNL     1     -11.493   7.263  69.706  1.00  0.00     0.000 HD 
BRANCH   9  11
HETATM   11  C   UNL     1     -10.799   7.162  71.631  1.00  0.00    -0.224 C  
HETATM   12  O   UNL     1     -11.729   5.208  73.503  1.00  0.00    -0.067 OA 
HETATM   13  C   UNL     1     -12.582   5.593  72.426  1.00  0.00     0.516 C  
HETATM   14  C   UNL     1      -9.841   6.450  72.571  1.00  0.00    -0.175 C  
HETATM   15  C   UNL     1     -12.264   7.015  72.024  1.00  0.00    -0.317 C  
HETATM   16  C   UNL     1     -10.363   5.121  73.097  1.00  0.00    -0.195 C  
ENDBRANCH   9  11
ENDBRANCH   4   9
BRANCH   8  17
HETATM   17  N   UNL     1      -6.633   8.170  67.520  1.00  0.00    -0.057 NA 
HETATM   18  H   UNL     1      -5.758   7.656  67.410  1.00  0.00     0.000 HD 
BRANCH  17  19
HETATM   19  C   UNL     1      -6.553   9.581  67.325  1.00  0.00    -0.071 A  
HETATM   20  C   UNL     1      -5.488  10.305  67.858  1.00  0.00    -0.041 A  
HETATM   21  C   UNL     1      -5.567  11.706  68.012  1.00  0.00    -0.044 A  
HETATM   22  C   UNL     1      -6.719  12.446  67.676  1.00  0.00    -0.132 A  
HETATM   23  C   UNL     1      -7.741  11.729  67.015  1.00  0.00    -0.158 A  
HETATM   24  C   UNL     1      -7.625  10.334  66.807  1.00  0.00    -0.107 A  
BRANCH  22  25
HETATM   25  N   UNL     1      -6.819  13.767  68.106  1.00  0.00    -0.105 NA 
HETATM   26  C   UNL     1      -7.818  14.172  69.101  1.00  0.00     0.063 C  
HETATM   27  C   UNL     1      -6.275  14.859  67.300  1.00  0.00     0.333 C  
HETATM   28  C   UNL     1      -5.635  15.889  68.233  1.00  0.00    -0.109 C  
HETATM   29  C   UNL     1      -7.187  15.207  70.037  1.00  0.00    -0.008 C  
HETATM   30  C   UNL     1      -6.651  16.444  69.272  1.00  0.00    -0.206 C  
BRANCH  30  31
HETATM   31  N   UNL     1      -7.727  17.273  68.656  1.00  0.00    -0.257 NA 
HETATM   32  C   UNL     1      -8.794  17.667  69.609  1.00  0.00     0.972 C  
HETATM   33  C   UNL     1      -8.376  18.750  70.633  1.00  0.00     3.622 C  
HETATM   34  N   UNL     1      -7.834  19.985  70.029  1.00  0.00     0.528 NA 
HETATM   35  C   UNL     1      -8.898  20.789  69.424  1.00  0.00     1.909 C  
HETATM   36  C   UNL     1      -6.803  19.629  69.033  1.00  0.00    -0.343 C  
HETATM   37  C   UNL     1      -7.225  18.523  68.031  1.00  0.00    -0.245 C  
ENDBRANCH  30  31
ENDBRANCH  22  25
BRANCH  23  38
HETATM   38  O   UNL     1      -8.829  12.444  66.557  1.00  0.00    -0.191 OA 
HETATM   39  C   UNL     1      -8.731  12.953  65.231  1.00  0.00     1.716 C  
ENDBRANCH  23  38
ENDBRANCH  17  19
ENDBRANCH   8  17
BRANCH   5  40
HETATM   40  C   UNL     1      -7.859   5.918  65.773  1.00  0.00    -0.103 C  
HETATM   41  H2  UNL     1      -7.784   7.848  65.313  1.00  0.00     0.000 HD 
HETATM   42  N   UNL     1      -8.284   7.005  65.033  1.00  0.00    -0.222 N  
HETATM   43  O   UNL     1      -7.304   4.971  65.238  1.00  0.00    -0.070 OA 
HETATM   44  H1  UNL     1      -8.219   6.868  64.024  1.00  0.00     0.000 HD 
ENDBRANCH   5  40
ENDBRANCH   2   3
TORSDOF 9
ENDMDL
MODEL      137
REMARK 921   NORMALIZED FREE ENERGY PREDICTED BY IDOCK:    5.01 KCAL/MOL
REMARK 922        TOTAL FREE ENERGY PREDICTED BY IDOCK:    5.51 KCAL/MOL
REMARK 923 INTER-LIGAND FREE ENERGY PREDICTED BY IDOCK:    2.18 KCAL/MOL
REMARK 924 INTRA-LIGAND FREE ENERGY PREDICTED BY IDOCK:    3.33 KCAL/MOL
REMARK 927      BINDING AFFINITY PREDICTED BY RF-SCORE:    0.00 PKD
ROOT
HETATM    1  C   UNL     1      -5.629  17.899  65.014  1.00  0.00     0.146 C  
HETATM    2  C   UNL     1      -6.326  17.501  66.313  1.00  0.00    -0.279 C  
ENDROOT
BRANCH   2   3
HETATM    3  C   UNL     1      -7.572  16.707  66.109  1.00  0.00    -0.055 A  
HETATM    4  C   UNL     1      -8.890  17.175  66.387  1.00  0.00    -0.255 A  
HETATM    5  C   UNL     1      -8.281  14.568  66.092  1.00  0.00     1.220 A  
HETATM    6  N   UNL     1      -9.940  16.289  66.339  1.00  0.00    -0.282 NA 
HETATM    7  N   UNL     1      -7.269  15.426  65.867  1.00  0.00     2.486 NA 
HETATM    8  C   UNL     1      -9.635  14.946  66.145  1.00  0.00    -0.310 A  
BRANCH   4   9
HETATM    9  N   UNL     1      -8.998  18.533  66.617  1.00  0.00    -0.288 NA 
HETATM   10  H   UNL     1      -9.445  18.693  67.519  1.00  0.00     0.000 HD 
BRANCH   9  11
HETATM   11  C   UNL     1      -8.679  19.819  65.988  1.00  0.00    -0.265 C  
HETATM   12  O   UNL     1      -6.176  20.944  65.175  1.00  0.00    -0.259 OA 
HETATM   13  C   UNL     1      -6.363  20.593  66.546  1.00  0.00    -0.237 C  
HETATM   14  C   UNL     1      -8.280  19.882  64.524  1.00  0.00     2.804 C  
HETATM   15  C   UNL     1      -7.830  20.706  66.892  1.00  0.00    -0.265 C  
HETATM   16  C   UNL     1      -6.780  19.996  64.296  1.00  0.00     0.273 C  
ENDBRANCH   9  11
ENDBRANCH   4   9
BRANCH   8  17
HETATM   17  N   UNL     1     -10.652  13.980  65.869  1.00  0.00    -0.293 NA 
HETATM   18  H   UNL     1     -11.543  14.353  65.542  1.00  0.00     0.000 HD 
BRANCH  17  19
HETATM   19  C   UNL     1     -10.582  12.560  65.993  1.00  0.00    -0.263 A  
HETATM   20  C   UNL     1     -10.869  11.946  67.211  1.00  0.00    -0.294 A  
HETATM   21  C   UNL     1     -10.454  10.622  67.472  1.00  0.00    -0.272 A  
HETATM   22  C   UNL     1      -9.706   9.862  66.550  1.00  0.00    -0.204 A  
HETATM   23  C   UNL     1      -9.533  10.437  65.272  1.00  0.00    -0.237 A  
HETATM   24  C   UNL     1     -10.010  11.742  64.998  1.00  0.00    -0.287 A  
BRANCH  22  25
HETATM   25  N   UNL     1      -9.107   8.681  66.983  1.00  0.00    -0.134 NA 
HETATM   26  C   UNL     1      -8.231   7.902  66.100  1.00  0.00    -0.117 C  
HETATM   27  C   UNL     1      -9.649   7.940  68.121  1.00  0.00    -0.152 C  
HETATM   28  C   UNL     1      -8.488   7.397  68.955  1.00  0.00    -0.129 C  
HETATM   29  C   UNL     1      -7.067   7.350  66.928  1.00  0.00    -0.083 C  
HETATM   30  C   UNL     1      -7.549   6.480  68.118  1.00  0.00    -0.103 C  
BRANCH  30  31
HETATM   31  N   UNL     1      -8.197   5.205  67.697  1.00  0.00    -0.099 NA 
HETATM   32  C   UNL     1      -7.232   4.150  67.299  1.00  0.00    -0.068 C  
HETATM   33  C   UNL     1      -6.454   3.511  68.477  1.00  0.00    -0.037 C  
HETATM   34  N   UNL     1      -7.312   2.957  69.545  1.00  0.00    -0.044 NA 
HETATM   35  C   UNL     1      -7.945   1.707  69.120  1.00  0.00    -0.045 C  
HETATM   36  C   UNL     1      -8.323   3.963  69.930  1.00  0.00    -0.056 C  
HETATM   37  C   UNL     1      -9.073   4.616  68.741  1.00  0.00    -0.116 C  
ENDBRANCH  30  31
ENDBRANCH  22  25
BRANCH  23  38
HETATM   38  O   UNL     1      -8.917   9.671  64.304  1.00  0.00    -0.220 OA 
HETATM   39  C   UNL     1      -7.817  10.274  63.632  1.00  0.00    -0.125 C  
ENDBRANCH  23  38
ENDBRANCH  17  19
ENDBRANCH   8  17
BRANCH   5  40
HETATM   40  C   UNL     1      -7.763  13.359  66.815  1.00  0.00     0.549 C  
HETATM   41  H2  UNL     1      -9.324  13.168  68.027  1.00  0.00     0.000 HD 
HETATM   42  N   UNL     1      -8.305  13.186  68.075  1.00  0.00    -0.153 N  
HETATM   43  O   UNL     1      -7.065  12.495  66.307  1.00  0.00     0.723 OA 
HETATM   44  H1  UNL     1      -7.953  12.365  68.566  1.00  0.00     0.000 HD 
ENDBRANCH   5  40
ENDBRANCH   2   3
TORSDOF 9
ENDMDL
MODEL      138
REMARK 921   NORMALIZED FREE ENERGY PREDICTED BY IDOCK:    5.50 KCAL/MOL
REMARK 922        TOTAL FREE ENERGY PREDICTED BY IDOCK:    6.26 KCAL/MOL
REMARK 923 INTER-LIGAND FREE ENERGY PREDICTED BY IDOCK:    1.47 KCAL/MOL
REMARK 924 INTRA-LIGAND FREE ENERGY PREDICTED BY IDOCK:    4.79 KCAL/MOL
REMARK 927      BINDING AFFINITY PREDICTED BY RF-SCORE:    0.00 PKD
ROOT
HETATM    1  C   UNL     1      -8.733   7.396  65.154  1.00  0.00     0.119 C  
HETATM    2  C   UNL     1      -9.457   7.196  66.484  1.00  0.00    -0.208 C  
ENDROOT
BRANCH   2   3
HETATM    3  C   UNL     1      -9.231   8.298  67.464  1.00  0.00    -0.137 A  
HETATM    4  C   UNL     1      -8.379   8.211  68.603  1.00  0.00    -0.126 A  
HETATM    5  C   UNL     1     -10.285  10.093  68.325  1.00  0.00    -0.166 A  
HETATM    6  N   UNL     1      -8.399   9.223  69.534  1.00  0.00    -0.122 NA 
HETATM    7  N   UNL     1     -10.118   9.280  67.266  1.00  0.00    -0.213 NA 
HETATM    8  C   UNL     1      -9.354  10.221  69.372  1.00  0.00    -0.199 A  
BRANCH   4   9
HETATM    9  N   UNL     1      -7.535   7.118  68.628  1.00  0.00    -0.100 NA 
HETATM   10  H   UNL     1      -6.869   7.182  67.858  1.00  0.00     0.000 HD 
BRANCH   9  11
HETATM   11  C   UNL     1      -7.282   5.896  69.398  1.00  0.00    -0.067 C  
HETATM   12  O   UNL     1      -8.214   5.074  71.977  1.00  0.00    -0.112 OA 
HETATM   13  C   UNL     1      -7.463   6.283  71.867  1.00  0.00    -0.094 C  
HETATM   14  C   UNL     1      -8.367   4.843  69.548  1.00  0.00    -0.085 C  
HETATM   15  C   UNL     1      -6.522   6.177  70.689  1.00  0.00    -0.041 C  
HETATM   16  C   UNL     1      -9.106   4.899  70.877  1.00  0.00    -0.142 C  
ENDBRANCH   9  11
ENDBRANCH   4   9
BRANCH   8  17
HETATM   17  N   UNL     1      -9.326  11.418  70.153  1.00  0.00     1.353 NA 
HETATM   18  H   UNL     1      -9.765  11.360  71.072  1.00  0.00     0.000 HD 
BRANCH  17  19
HETATM   19  C   UNL     1      -8.761  12.684  69.814  1.00  0.00     2.483 A  
HETATM   20  C   UNL     1      -9.318  13.858  70.317  1.00  0.00     2.780 A  
HETATM   21  C   UNL     1      -9.038  15.108  69.722  1.00  0.00     0.025 A  
HETATM   22  C   UNL     1      -8.223  15.242  68.579  1.00  0.00    -0.146 A  
HETATM   23  C   UNL     1      -7.557  14.071  68.156  1.00  0.00    -0.141 A  
HETATM   24  C   UNL     1      -7.794  12.834  68.801  1.00  0.00     0.040 A  
BRANCH  22  25
HETATM   25  N   UNL     1      -8.217  16.457  67.897  1.00  0.00    -0.164 NA 
HETATM   26  C   UNL     1      -6.966  17.063  67.430  1.00  0.00    -0.155 C  
HETATM   27  C   UNL     1      -9.346  17.380  68.003  1.00  0.00    -0.276 C  
HETATM   28  C   UNL     1      -9.599  18.009  66.633  1.00  0.00    -0.315 C  
HETATM   29  C   UNL     1      -7.212  17.700  66.059  1.00  0.00    -0.316 C  
HETATM   30  C   UNL     1      -8.345  18.757  66.094  1.00  0.00    -0.176 C  
BRANCH  30  31
HETATM   31  N   UNL     1      -8.001  19.971  66.887  1.00  0.00    -0.298 NA 
HETATM   32  C   UNL     1      -8.116  19.776  68.354  1.00  0.00    -0.270 C  
HETATM   33  C   UNL     1      -7.000  18.901  68.978  1.00  0.00    -0.311 C  
HETATM   34  N   UNL     1      -5.628  19.366  68.692  1.00  0.00    -0.198 NA 
HETATM   35  C   UNL     1      -5.301  20.561  69.474  1.00  0.00    -0.317 C  
HETATM   36  C   UNL     1      -5.491  19.623  67.244  1.00  0.00    -0.167 C  
HETATM   37  C   UNL     1      -6.629  20.476  66.627  1.00  0.00    -0.248 C  
ENDBRANCH  30  31
ENDBRANCH  22  25
BRANCH  23  38
HETATM   38  O   UNL     1      -6.652  14.190  67.121  1.00  0.00    -0.183 OA 
HETATM   39  C   UNL     1      -5.453  13.434  67.247  1.00  0.00     0.346 C  
ENDBRANCH  23  38
ENDBRANCH  17  19
ENDBRANCH   8  17
BRANCH   5  40
HETATM   40  C   UNL     1     -11.747  10.370  68.520  1.00  0.00     0.038 C  
HETATM   41  H2  UNL     1     -11.796   9.843  70.434  1.00  0.00     0.000 HD 
HETATM   42  N   UNL     1     -12.312   9.673  69.571  1.00  0.00     0.140 N  
HETATM   43  O   UNL     1     -12.369  11.247  67.942  1.00  0.00    -0.363 OA 
HETATM   44  H1  UNL     1     -13.306   9.861  69.704  1.00  0.00     0.000 HD 
ENDBRANCH   5  40
ENDBRANCH   2   3
TORSDOF 9
ENDMDL
MODEL      139
REMARK 921   NORMALIZED FREE ENERGY PREDICTED BY IDOCK:    5.56 KCAL/MOL
REMARK 922        TOTAL FREE ENERGY PREDICTED BY IDOCK:    6.34 KCAL/MOL
REMARK 923 INTER-LIGAND FREE ENERGY PREDICTED BY IDOCK:    1.84 KCAL/MOL
REMARK 924 INTRA-LIGAND FREE ENERGY PREDICTED BY IDOCK:    4.50 KCAL/MOL
REMARK 927      BINDING AFFINITY PREDICTED BY RF-SCORE:    0.00 PKD
ROOT
HETATM    1  C   UNL     1      -7.389  20.958  66.237  1.00  0.00     0.049 C  
HETATM    2  C   UNL     1      -7.747  19.717  65.422  1.00  0.00     0.122 C  
ENDROOT
BRANCH   2   3
HETATM    3  C   UNL     1      -7.425  18.432  66.108  1.00  0.00    -0.245 A  
HETATM    4  C   UNL     1      -8.343  17.358  66.295  1.00  0.00    -0.236 A  
HETATM    5  C   UNL     1      -6.065  17.616  67.708  1.00  0.00    -0.151 A  
HETATM    6  N   UNL     1      -7.988  16.306  67.106  1.00  0.00    -0.169 NA 
HETATM    7  N   UNL     1      -6.246  18.527  66.733  1.00  0.00    -0.168 NA 
HETATM    8  C   UNL     1      -6.791  16.416  67.806  1.00  0.00    -0.134 A  
BRANCH   4   9
HETATM    9  N   UNL     1      -9.511  17.445  65.563  1.00  0.00    -0.215 NA 
HETATM   10  H   UNL     1      -9.910  18.377  65.664  1.00  0.00     0.000 HD 
BRANCH   9  11
HETATM   11  C   UNL     1     -10.364  16.636  64.687  1.00  0.00     1.031 C  
HETATM   12  O   UNL     1     -11.966  14.328  65.234  1.00  0.00    -0.362 OA 
HETATM   13  C   UNL     1     -10.563  14.270  65.487  1.00  0.00    -0.340 C  
HETATM   14  C   UNL     1     -11.877  16.730  64.785  1.00  0.00     1.141 C  
HETATM   15  C   UNL     1      -9.849  15.208  64.541  1.00  0.00     1.251 C  
HETATM   16  C   UNL     1     -12.518  15.599  65.577  1.00  0.00     1.221 C  
ENDBRANCH   9  11
ENDBRANCH   4   9
BRANCH   8  17
HETATM   17  N   UNL     1      -6.229  15.302  68.506  1.00  0.00    -0.089 NA 
HETATM   18  H   UNL     1      -5.650  15.531  69.314  1.00  0.00     0.000 HD 
BRANCH  17  19
HETATM   19  C   UNL     1      -6.372  13.912  68.219  1.00  0.00    -0.110 A  
HETATM   20  C   UNL     1      -6.309  13.456  66.904  1.00  0.00     1.159 A  
HETATM   21  C   UNL     1      -6.811  12.184  66.551  1.00  0.00     0.444 A  
HETATM   22  C   UNL     1      -7.430  11.324  67.481  1.00  0.00    -0.106 A  
HETATM   23  C   UNL     1      -7.373  11.733  68.832  1.00  0.00    -0.093 A  
HETATM   24  C   UNL     1      -6.808  12.982  69.184  1.00  0.00    -0.058 A  
BRANCH  22  25
HETATM   25  N   UNL     1      -8.136  10.220  67.009  1.00  0.00    -0.120 NA 
HETATM   26  C   UNL     1      -8.635   9.186  67.923  1.00  0.00    -0.121 C  
HETATM   27  C   UNL     1      -8.030   9.806  65.611  1.00  0.00    -0.117 C  
HETATM   28  C   UNL     1      -9.408   9.358  65.123  1.00  0.00    -0.288 C  
HETATM   29  C   UNL     1     -10.014   8.728  67.439  1.00  0.00    -0.267 C  
HETATM   30  C   UNL     1      -9.981   8.195  65.983  1.00  0.00     0.220 C  
BRANCH  30  31
HETATM   31  N   UNL     1      -9.217   6.924  65.834  1.00  0.00    -0.027 NA 
HETATM   32  C   UNL     1      -7.805   7.022  66.281  1.00  0.00    -0.104 C  
HETATM   33  C   UNL     1      -7.619   7.098  67.816  1.00  0.00    -0.111 C  
HETATM   34  N   UNL     1      -8.251   5.992  68.564  1.00  0.00    -0.110 NA 
HETATM   35  C   UNL     1      -7.494   4.748  68.407  1.00  0.00    -0.069 C  
HETATM   36  C   UNL     1      -9.646   5.829  68.107  1.00  0.00    -0.116 C  
HETATM   37  C   UNL     1      -9.822   5.783  66.567  1.00  0.00    -0.161 C  
ENDBRANCH  30  31
ENDBRANCH  22  25
BRANCH  23  38
HETATM   38  O   UNL     1      -7.854  10.858  69.785  1.00  0.00     0.005 OA 
HETATM   39  C   UNL     1      -6.948   9.855  70.230  1.00  0.00    -0.146 C  
ENDBRANCH  23  38
ENDBRANCH  17  19
ENDBRANCH   8  17
BRANCH   5  40
HETATM   40  C   UNL     1      -5.457  18.281  68.909  1.00  0.00    -0.197 C  
HETATM   41  H2  UNL     1      -6.184  20.088  68.526  1.00  0.00     0.000 HD 
HETATM   42  N   UNL     1      -5.298  19.646  68.771  1.00  0.00    -0.194 N  
HETATM   43  O   UNL     1      -5.270  17.731  69.983  1.00  0.00    -0.183 OA 
HETATM   44  H1  UNL     1      -4.885  20.098  69.587  1.00  0.00     0.000 HD 
ENDBRANCH   5  40
ENDBRANCH   2   3
TORSDOF 9
ENDMDL
MODEL      140
REMARK 921   NORMALIZED FREE ENERGY PREDICTED BY IDOCK:    5.61 KCAL/MOL
REMARK 922        TOTAL FREE ENERGY PREDICTED BY IDOCK:    6.43 KCAL/MOL
REMARK 923 INTER-LIGAND FREE ENERGY PREDICTED BY IDOCK:    5.82 KCAL/MOL
REMARK 924 INTRA-LIGAND FREE ENERGY PREDICTED BY IDOCK:    0.61 KCAL/MOL
REMARK 927      BINDING AFFINITY PREDICTED BY RF-SCORE:    0.00 PKD
ROOT
HETATM    1  C   UNL     1     -10.419   5.083  67.229  1.00  0.00    -0.151 C  
HETATM    2  C   UNL     1     -11.153   6.281  67.824  1.00  0.00    -0.361 C  
ENDROOT
BRANCH   2   3
HETATM    3  C   UNL     1     -10.459   7.583  67.604  1.00  0.00    -0.250 A  
HETATM    4  C   UNL     1     -10.671   8.760  68.379  1.00  0.00    -0.062 A  
HETATM    5  C   UNL     1      -9.514   8.784  65.948  1.00  0.00    -0.208 A  
HETATM    6  N   UNL     1     -10.116   9.947  67.963  1.00  0.00    -0.163 NA 
HETATM    7  N   UNL     1      -9.803   7.564  66.437  1.00  0.00    -0.138 NA 
HETATM    8  C   UNL     1      -9.480   9.955  66.726  1.00  0.00    -0.169 A  
BRANCH   4   9
HETATM    9  N   UNL     1     -11.377   8.575  69.552  1.00  0.00    -0.416 NA 
HETATM   10  H   UNL     1     -12.293   9.018  69.474  1.00  0.00     0.000 HD 
BRANCH   9  11
HETATM   11  C   UNL     1     -11.242   7.951  70.872  1.00  0.00    -0.270 C  
HETATM   12  O   UNL     1     -12.311   5.508  71.913  1.00  0.00     0.450 OA 
HETATM   13  C   UNL     1     -13.211   6.509  71.440  1.00  0.00     0.263 C  
HETATM   14  C   UNL     1     -10.369   6.721  71.056  1.00  0.00    -0.228 C  
HETATM   15  C   UNL     1     -12.574   7.869  71.609  1.00  0.00    -0.344 C  
HETATM   16  C   UNL     1     -11.144   5.412  71.097  1.00  0.00     0.029 C  
ENDBRANCH   9  11
ENDBRANCH   4   9
BRANCH   8  17
HETATM   17  N   UNL     1      -8.693  11.069  66.296  1.00  0.00    -0.171 NA 
HETATM   18  H   UNL     1      -7.919  10.851  65.669  1.00  0.00     0.000 HD 
BRANCH  17  19
HETATM   19  C   UNL     1      -8.851  12.447  66.631  1.00  0.00    -0.156 A  
HETATM   20  C   UNL     1      -8.551  13.436  65.696  1.00  0.00     1.682 A  
HETATM   21  C   UNL     1      -8.334  14.772  66.097  1.00  0.00     0.783 A  
HETATM   22  C   UNL     1      -8.369  15.179  67.447  1.00  0.00    -0.186 A  
HETATM   23  C   UNL     1      -8.803  14.205  68.373  1.00  0.00    -0.187 A  
HETATM   24  C   UNL     1      -9.082  12.883  67.951  1.00  0.00    -0.201 A  
BRANCH  22  25
HETATM   25  N   UNL     1      -7.880  16.439  67.782  1.00  0.00    -0.149 NA 
HETATM   26  C   UNL     1      -6.975  16.628  68.921  1.00  0.00    -0.200 C  
HETATM   27  C   UNL     1      -8.564  17.651  67.331  1.00  0.00    -0.226 C  
HETATM   28  C   UNL     1      -7.515  18.694  66.944  1.00  0.00    -0.230 C  
HETATM   29  C   UNL     1      -5.924  17.676  68.543  1.00  0.00    -0.176 C  
HETATM   30  C   UNL     1      -6.560  19.027  68.126  1.00  0.00    -0.229 C  
BRANCH  30  31
HETATM   31  N   UNL     1      -7.239  19.734  69.248  1.00  0.00    -0.313 NA 
HETATM   32  C   UNL     1      -7.187  18.997  70.535  1.00  0.00     1.339 C  
HETATM   33  C   UNL     1      -5.796  18.989  71.218  1.00  0.00     0.102 C  
HETATM   34  N   UNL     1      -5.221  20.331  71.444  1.00  0.00    -0.297 NA 
HETATM   35  C   UNL     1      -5.898  21.018  72.547  1.00  0.00     1.810 C  
HETATM   36  C   UNL     1      -5.305  21.115  70.195  1.00  0.00    -0.076 C  
HETATM   37  C   UNL     1      -6.694  21.091  69.507  1.00  0.00     1.381 C  
ENDBRANCH  30  31
ENDBRANCH  22  25
BRANCH  23  38
HETATM   38  O   UNL     1      -8.973  14.601  69.684  1.00  0.00     0.122 OA 
HETATM   39  C   UNL     1     -10.140  15.366  69.961  1.00  0.00    -0.207 C  
ENDBRANCH  23  38
ENDBRANCH  17  19
ENDBRANCH   8  17
BRANCH   5  40
HETATM   40  C   UNL     1      -9.799   8.814  64.474  1.00  0.00     1.867 C  
HETATM   41  H2  UNL     1     -10.529  10.661  64.450  1.00  0.00     0.000 HD 
HETATM   42  N   UNL     1     -10.770   9.729  64.112  1.00  0.00     1.140 N  
HETATM   43  O   UNL     1      -9.139   8.230  63.629  1.00  0.00     0.620 OA 
HETATM   44  H1  UNL     1     -10.964   9.750  63.111  1.00  0.00     0.000 HD 
ENDBRANCH   5  40
ENDBRANCH   2   3
TORSDOF 9
ENDMDL
MODEL      141
REMARK 921   NORMALIZED FREE ENERGY PREDICTED BY IDOCK:    6.12 KCAL/MOL
REMARK 922        TOTAL FREE ENERGY PREDICTED BY IDOCK:    7.20 KCAL/MOL
REMARK 923 INTER-LIGAND FREE ENERGY PREDICTED BY IDOCK:    5.77 KCAL/MOL
REMARK 924 INTRA-LIGAND FREE ENERGY PREDICTED BY IDOCK:    1.43 KCAL/MOL
REMARK 927      BINDING AFFINITY PREDICTED BY RF-SCORE:    0.00 PKD
ROOT
HETATM    1  C   UNL     1     -11.422  19.563  70.694  1.00  0.00     6.397 C  
HETATM    2  C   UNL     1     -10.025  18.970  70.527  1.00  0.00     1.617 C  
ENDROOT
BRANCH   2   3
HETATM    3  C   UNL     1     -10.006  17.668  69.798  1.00  0.00     0.476 A  
HETATM    4  C   UNL     1     -10.317  16.405  70.380  1.00  0.00     0.414 A  
HETATM    5  C   UNL     1      -8.977  16.671  68.060  1.00  0.00    -0.211 A  
HETATM    6  N   UNL     1     -10.082  15.258  69.659  1.00  0.00    -0.251 NA 
HETATM    7  N   UNL     1      -9.425  17.818  68.602  1.00  0.00    -0.291 NA 
HETATM    8  C   UNL     1      -9.427  15.394  68.440  1.00  0.00    -0.200 A  
BRANCH   4   9
HETATM    9  N   UNL     1     -10.911  16.459  71.626  1.00  0.00     0.465 NA 
HETATM   10  H   UNL     1     -10.479  17.198  72.180  1.00  0.00     0.000 HD 
BRANCH   9  11
HETATM   11  C   UNL     1     -11.960  15.802  72.413  1.00  0.00    -0.498 C  
HETATM   12  O   UNL     1     -13.707  13.628  71.771  1.00  0.00    -0.371 OA 
HETATM   13  C   UNL     1     -13.742  14.803  70.963  1.00  0.00    -0.264 C  
HETATM   14  C   UNL     1     -11.736  14.413  72.986  1.00  0.00     0.495 C  
HETATM   15  C   UNL     1     -13.343  15.995  71.802  1.00  0.00     0.028 C  
HETATM   16  C   UNL     1     -12.378  13.297  72.174  1.00  0.00     0.472 C  
ENDBRANCH   9  11
ENDBRANCH   4   9
BRANCH   8  17
HETATM   17  N   UNL     1      -9.322  14.303  67.521  1.00  0.00    -0.194 NA 
HETATM   18  H   UNL     1      -9.410  14.543  66.534  1.00  0.00     0.000 HD 
BRANCH  17  19
HETATM   19  C   UNL     1      -9.110  12.921  67.807  1.00  0.00    -0.197 A  
HETATM   20  C   UNL     1      -8.031  12.525  68.594  1.00  0.00    -0.029 A  
HETATM   21  C   UNL     1      -7.578  11.187  68.585  1.00  0.00    -0.127 A  
HETATM   22  C   UNL     1      -8.154  10.193  67.767  1.00  0.00    -0.109 A  
HETATM   23  C   UNL     1      -9.327  10.567  67.075  1.00  0.00    -0.155 A  
HETATM   24  C   UNL     1      -9.811  11.895  67.142  1.00  0.00    -0.206 A  
BRANCH  22  25
HETATM   25  N   UNL     1      -7.485   8.981  67.611  1.00  0.00    -0.085 NA 
HETATM   26  C   UNL     1      -7.163   8.453  66.281  1.00  0.00    -0.078 C  
HETATM   27  C   UNL     1      -7.473   7.990  68.687  1.00  0.00    -0.098 C  
HETATM   28  C   UNL     1      -6.088   7.345  68.748  1.00  0.00    -0.027 C  
HETATM   29  C   UNL     1      -5.779   7.801  66.335  1.00  0.00    -0.036 C  
HETATM   30  C   UNL     1      -5.697   6.676  67.399  1.00  0.00    -0.013 C  
BRANCH  30  31
HETATM   31  N   UNL     1      -6.532   5.486  67.070  1.00  0.00    -0.042 NA 
HETATM   32  C   UNL     1      -7.584   5.758  66.058  1.00  0.00    -0.087 C  
HETATM   33  C   UNL     1      -7.056   5.942  64.614  1.00  0.00    -0.060 C  
HETATM   34  N   UNL     1      -6.234   4.820  64.117  1.00  0.00    -0.022 NA 
HETATM   35  C   UNL     1      -7.064   3.655  63.800  1.00  0.00    -0.050 C  
HETATM   36  C   UNL     1      -5.206   4.484  65.124  1.00  0.00    -0.009 C  
HETATM   37  C   UNL     1      -5.743   4.331  66.571  1.00  0.00    -0.018 C  
ENDBRANCH  30  31
ENDBRANCH  22  25
BRANCH  23  38
HETATM   38  O   UNL     1      -9.990   9.586  66.366  1.00  0.00    -0.236 OA 
HETATM   39  C   UNL     1      -9.592   9.415  65.011  1.00  0.00    -0.056 C  
ENDBRANCH  23  38
ENDBRANCH  17  19
ENDBRANCH   8  17
BRANCH   5  40
HETATM   40  C   UNL     1      -7.614  16.893  67.470  1.00  0.00    -0.165 C  
HETATM   41  H2  UNL     1      -6.696  17.205  69.203  1.00  0.00     0.000 HD 
HETATM   42  N   UNL     1      -6.769  17.630  68.278  1.00  0.00    -0.194 N  
HETATM   43  O   UNL     1      -7.200  16.346  66.460  1.00  0.00    -0.213 OA 
HETATM   44  H1  UNL     1      -5.843  17.780  67.878  1.00  0.00     0.000 HD 
ENDBRANCH   5  40
ENDBRANCH   2   3
TORSDOF 9
ENDMDL
MODEL      142
REMARK 921   NORMALIZED FREE ENERGY PREDICTED BY IDOCK:    6.21 KCAL/MOL
REMARK 922        TOTAL FREE ENERGY PREDICTED BY IDOCK:    7.33 KCAL/MOL
REMARK 923 INTER-LIGAND FREE ENERGY PREDICTED BY IDOCK:    8.07 KCAL/MOL
REMARK 924 INTRA-LIGAND FREE ENERGY PREDICTED BY IDOCK:   -0.74 KCAL/MOL
REMARK 927      BINDING AFFINITY PREDICTED BY RF-SCORE:    0.00 PKD
ROOT
HETATM    1  C   UNL     1      -6.341  17.776  68.898  1.00  0.00    -0.211 C  
HETATM    2  C   UNL     1      -7.182  17.433  70.125  1.00  0.00     1.436 C  
ENDROOT
BRANCH   2   3
HETATM    3  C   UNL     1      -8.336  16.534  69.833  1.00  0.00     1.062 A  
HETATM    4  C   UNL     1      -8.225  15.185  69.386  1.00  0.00    -0.197 A  
HETATM    5  C   UNL     1     -10.481  16.635  69.150  1.00  0.00    -0.333 A  
HETATM    6  N   UNL     1      -9.353  14.521  68.969  1.00  0.00    -0.127 NA 
HETATM    7  N   UNL     1      -9.474  17.238  69.809  1.00  0.00     0.598 NA 
HETATM    8  C   UNL     1     -10.532  15.255  68.885  1.00  0.00    -0.241 A  
BRANCH   4   9
HETATM    9  N   UNL     1      -6.962  14.633  69.486  1.00  0.00    -0.163 NA 
HETATM   10  H   UNL     1      -6.662  14.296  68.572  1.00  0.00     0.000 HD 
BRANCH   9  11
HETATM   11  C   UNL     1      -5.912  14.373  70.476  1.00  0.00    -0.180 C  
HETATM   12  O   UNL     1      -5.855  12.622  72.739  1.00  0.00     0.570 OA 
HETATM   13  C   UNL     1      -6.853  13.640  72.679  1.00  0.00     4.133 C  
HETATM   14  C   UNL     1      -5.132  13.070  70.447  1.00  0.00    -0.103 C  
HETATM   15  C   UNL     1      -6.324  14.808  71.878  1.00  0.00     0.805 C  
HETATM   16  C   UNL     1      -5.610  12.039  71.459  1.00  0.00     0.330 C  
ENDBRANCH   9  11
ENDBRANCH   4   9
BRANCH   8  17
HETATM   17  N   UNL     1     -11.795  14.620  68.669  1.00  0.00    -0.431 NA 
HETATM   18  H   UNL     1     -12.551  15.230  68.358  1.00  0.00     0.000 HD 
BRANCH  17  19
HETATM   19  C   UNL     1     -12.134  13.244  68.833  1.00  0.00    -0.222 A  
HETATM   20  C   UNL     1     -12.434  12.740  70.098  1.00  0.00    -0.126 A  
HETATM   21  C   UNL     1     -12.401  11.352  70.352  1.00  0.00    -0.404 A  
HETATM   22  C   UNL     1     -12.035  10.406  69.374  1.00  0.00    -0.079 A  
HETATM   23  C   UNL     1     -11.863  10.907  68.065  1.00  0.00     0.012 A  
HETATM   24  C   UNL     1     -11.962  12.295  67.806  1.00  0.00    -0.229 A  
BRANCH  22  25
HETATM   25  N   UNL     1     -11.764   9.098  69.771  1.00  0.00     0.223 NA 
HETATM   26  C   UNL     1     -12.558   8.438  70.813  1.00  0.00     0.195 C  
HETATM   27  C   UNL     1     -10.455   8.496  69.520  1.00  0.00    -0.220 C  
HETATM   28  C   UNL     1     -10.654   7.034  69.118  1.00  0.00    -0.235 C  
HETATM   29  C   UNL     1     -12.758   6.971  70.421  1.00  0.00     0.237 C  
HETATM   30  C   UNL     1     -11.414   6.228  70.211  1.00  0.00    -0.358 C  
BRANCH  30  31
HETATM   31  N   UNL     1     -10.628   6.056  71.466  1.00  0.00    -0.234 NA 
HETATM   32  C   UNL     1     -11.458   6.086  72.696  1.00  0.00    -0.253 C  
HETATM   33  C   UNL     1     -12.325   4.822  72.920  1.00  0.00     0.531 C  
HETATM   34  N   UNL     1     -11.567   3.554  72.919  1.00  0.00     0.321 NA 
HETATM   35  C   UNL     1     -10.796   3.398  74.155  1.00  0.00    -0.139 C  
HETATM   36  C   UNL     1     -10.687   3.512  71.733  1.00  0.00     0.699 C  
HETATM   37  C   UNL     1      -9.846   4.795  71.505  1.00  0.00    -0.187 C  
ENDBRANCH  30  31
ENDBRANCH  22  25
BRANCH  23  38
HETATM   38  O   UNL     1     -11.630   9.995  67.057  1.00  0.00     0.253 OA 
HETATM   39  C   UNL     1     -10.589  10.322  66.143  1.00  0.00    -0.054 C  
ENDBRANCH  23  38
ENDBRANCH  17  19
ENDBRANCH   8  17
BRANCH   5  40
HETATM   40  C   UNL     1     -11.188  17.639  68.286  1.00  0.00     0.347 C  
HETATM   41  H2  UNL     1      -9.880  19.105  68.573  1.00  0.00     0.000 HD 
HETATM   42  N   UNL     1     -10.888  18.952  68.596  1.00  0.00    -0.118 N  
HETATM   43  O   UNL     1     -11.833  17.360  67.287  1.00  0.00     1.169 OA 
HETATM   44  H1  UNL     1     -11.368  19.634  68.008  1.00  0.00     0.000 HD 
ENDBRANCH   5  40
ENDBRANCH   2   3
TORSDOF 9
ENDMDL
MODEL      143
REMARK 921   NORMALIZED FREE ENERGY PREDICTED BY IDOCK:    9.36 KCAL/MOL
REMARK 922        TOTAL FREE ENERGY PREDICTED BY IDOCK:   12.14 KCAL/MOL
REMARK 923 INTER-LIGAND FREE ENERGY PREDICTED BY IDOCK:    1.10 KCAL/MOL
REMARK 924 INTRA-LIGAND FREE ENERGY PREDICTED BY IDOCK:   11.04 KCAL/MOL
REMARK 927      BINDING AFFINITY PREDICTED BY RF-SCORE:    0.00 PKD
ROOT
HETATM    1  C   UNL     1      -8.073   4.922  66.621  1.00  0.00    -0.107 C  
HETATM    2  C   UNL     1      -8.731   5.274  67.953  1.00  0.00    -0.102 C  
ENDROOT
BRANCH   2   3
HETATM    3  C   UNL     1      -8.733   6.734  68.257  1.00  0.00    -0.123 A  
HETATM    4  C   UNL     1      -9.588   7.693  67.639  1.00  0.00    -0.145 A  
HETATM    5  C   UNL     1      -7.341   8.358  68.966  1.00  0.00    -0.088 A  
HETATM    6  N   UNL     1      -9.367   9.031  67.863  1.00  0.00    -0.140 NA 
HETATM    7  N   UNL     1      -7.665   7.052  68.998  1.00  0.00    -0.107 NA 
HETATM    8  C   UNL     1      -8.229   9.379  68.584  1.00  0.00    -0.112 A  
BRANCH   4   9
HETATM    9  N   UNL     1     -10.635   7.166  66.908  1.00  0.00    -0.438 NA 
HETATM   10  H   UNL     1     -11.045   7.893  66.323  1.00  0.00     0.000 HD 
BRANCH   9  11
HETATM   11  C   UNL     1     -11.350   5.903  66.698  1.00  0.00     0.402 C  
HETATM   12  O   UNL     1     -10.762   3.670  65.007  1.00  0.00     0.067 OA 
HETATM   13  C   UNL     1     -10.941   4.956  64.415  1.00  0.00     1.057 C  
HETATM   14  C   UNL     1     -10.802   4.605  67.266  1.00  0.00     0.819 C  
HETATM   15  C   UNL     1     -11.879   5.772  65.275  1.00  0.00     3.827 C  
HETATM   16  C   UNL     1     -10.063   3.747  66.249  1.00  0.00     0.200 C  
ENDBRANCH   9  11
ENDBRANCH   4   9
BRANCH   8  17
HETATM   17  N   UNL     1      -8.018  10.714  69.051  1.00  0.00    -0.131 NA 
HETATM   18  H   UNL     1      -7.507  10.802  69.929  1.00  0.00     0.000 HD 
BRANCH  17  19
HETATM   19  C   UNL     1      -8.431  11.939  68.447  1.00  0.00    -0.155 A  
HETATM   20  C   UNL     1      -7.488  12.906  68.104  1.00  0.00    -0.126 A  
HETATM   21  C   UNL     1      -7.872  14.243  67.865  1.00  0.00    -0.156 A  
HETATM   22  C   UNL     1      -9.204  14.688  67.992  1.00  0.00    -0.197 A  
HETATM   23  C   UNL     1     -10.172  13.682  68.208  1.00  0.00    -0.243 A  
HETATM   24  C   UNL     1      -9.783  12.332  68.381  1.00  0.00    -0.191 A  
BRANCH  22  25
HETATM   25  N   UNL     1      -9.457  16.058  68.009  1.00  0.00    -0.206 NA 
HETATM   26  C   UNL     1     -10.615  16.628  67.313  1.00  0.00    -0.281 C  
HETATM   27  C   UNL     1      -8.391  17.011  68.315  1.00  0.00    -0.228 C  
HETATM   28  C   UNL     1      -8.967  18.134  69.180  1.00  0.00     0.097 C  
HETATM   29  C   UNL     1     -11.195  17.757  68.170  1.00  0.00     0.339 C  
HETATM   30  C   UNL     1     -10.151  18.860  68.478  1.00  0.00    -0.402 C  
BRANCH  30  31
HETATM   31  N   UNL     1      -9.733  19.635  67.276  1.00  0.00    -0.337 NA 
HETATM   32  C   UNL     1      -8.687  20.651  67.555  1.00  0.00    -0.165 C  
HETATM   33  C   UNL     1      -7.277  20.067  67.822  1.00  0.00    -0.291 C  
HETATM   34  N   UNL     1      -6.771  19.183  66.752  1.00  0.00    -0.193 NA 
HETATM   35  C   UNL     1      -6.367  19.955  65.574  1.00  0.00    -0.236 C  
HETATM   36  C   UNL     1      -7.809  18.189  66.408  1.00  0.00    -0.262 C  
HETATM   37  C   UNL     1      -9.222  18.783  66.172  1.00  0.00    -0.145 C  
ENDBRANCH  30  31
ENDBRANCH  22  25
BRANCH  23  38
HETATM   38  O   UNL     1     -11.498  14.062  68.210  1.00  0.00    -0.269 OA 
HETATM   39  C   UNL     1     -12.378  13.273  67.417  1.00  0.00    -0.030 C  
ENDBRANCH  23  38
ENDBRANCH  17  19
ENDBRANCH   8  17
BRANCH   5  40
HETATM   40  C   UNL     1      -5.853   8.503  68.827  1.00  0.00    -0.044 C  
HETATM   41  H2  UNL     1      -5.409   6.720  69.579  1.00  0.00     0.000 HD 
HETATM   42  N   UNL     1      -5.131   7.695  69.685  1.00  0.00    -0.019 N  
HETATM   43  O   UNL     1      -5.299   9.129  67.938  1.00  0.00    -0.034 OA 
HETATM   44  H1  UNL     1      -4.120   7.793  69.591  1.00  0.00     0.000 HD 
ENDBRANCH   5  40
ENDBRANCH   2   3
TORSDOF 9
ENDMDL
MODEL      144
REMARK 921   NORMALIZED FREE ENERGY PREDICTED BY IDOCK:   12.38 KCAL/MOL
REMARK 922        TOTAL FREE ENERGY PREDICTED BY IDOCK:   16.76 KCAL/MOL
REMARK 923 INTER-LIGAND FREE ENERGY PREDICTED BY IDOCK:   16.05 KCAL/MOL
REMARK 924 INTRA-LIGAND FREE ENERGY PREDICTED BY IDOCK:    0.71 KCAL/MOL
REMARK 927      BINDING AFFINITY PREDICTED BY RF-SCORE:    0.00 PKD
ROOT
HETATM    1  C   UNL     1      -6.334  16.837  67.821  1.00  0.00    -0.164 C  
HETATM    2  C   UNL     1      -6.722  16.677  69.289  1.00  0.00    -0.221 C  
ENDROOT
BRANCH   2   3
HETATM    3  C   UNL     1      -7.990  15.919  69.498  1.00  0.00    -0.098 A  
HETATM    4  C   UNL     1      -9.166  16.451  70.102  1.00  0.00     1.267 A  
HETATM    5  C   UNL     1      -8.713  13.811  69.827  1.00  0.00     1.617 A  
HETATM    6  N   UNL     1     -10.203  15.604  70.411  1.00  0.00    -0.142 NA 
HETATM    7  N   UNL     1      -7.790  14.616  69.269  1.00  0.00    -0.113 NA 
HETATM    8  C   UNL     1      -9.990  14.241  70.231  1.00  0.00     1.354 A  
BRANCH   4   9
HETATM    9  N   UNL     1      -9.179  17.824  70.259  1.00  0.00     2.346 NA 
HETATM   10  H   UNL     1      -8.758  18.071  71.154  1.00  0.00     0.000 HD 
BRANCH   9  11
HETATM   11  C   UNL     1      -9.601  19.042  69.560  1.00  0.00     0.158 C  
HETATM   12  O   UNL     1      -9.786  19.637  66.766  1.00  0.00    -0.337 OA 
HETATM   13  C   UNL     1      -8.521  19.260  67.310  1.00  0.00    -0.287 C  
HETATM   14  C   UNL     1     -10.944  19.097  68.851  1.00  0.00     1.134 C  
HETATM   15  C   UNL     1      -8.464  19.671  68.763  1.00  0.00    -0.274 C  
HETATM   16  C   UNL     1     -10.858  18.893  67.345  1.00  0.00    -0.374 C  
ENDBRANCH   9  11
ENDBRANCH   4   9
BRANCH   8  17
HETATM   17  N   UNL     1     -11.061  13.298  70.319  1.00  0.00    -0.098 NA 
HETATM   18  H   UNL     1     -11.942  13.659  70.685  1.00  0.00     0.000 HD 
BRANCH  17  19
HETATM   19  C   UNL     1     -11.057  11.917  69.961  1.00  0.00     0.294 A  
HETATM   20  C   UNL     1     -11.208  10.937  70.940  1.00  0.00     0.409 A  
HETATM   21  C   UNL     1     -10.839   9.598  70.690  1.00  0.00    -0.386 A  
HETATM   22  C   UNL     1     -10.270   9.179  69.470  1.00  0.00    -0.203 A  
HETATM   23  C   UNL     1     -10.243  10.143  68.439  1.00  0.00    -0.169 A  
HETATM   24  C   UNL     1     -10.677  11.469  68.680  1.00  0.00    -0.242 A  
BRANCH  22  25
HETATM   25  N   UNL     1      -9.687   7.916  69.399  1.00  0.00    -0.168 NA 
HETATM   26  C   UNL     1     -10.128   6.822  70.271  1.00  0.00    -0.179 C  
HETATM   27  C   UNL     1      -8.360   7.736  68.810  1.00  0.00    -0.128 C  
HETATM   28  C   UNL     1      -8.353   6.441  67.997  1.00  0.00    -0.115 C  
HETATM   29  C   UNL     1     -10.119   5.519  69.465  1.00  0.00    -0.305 C  
HETATM   30  C   UNL     1      -8.725   5.205  68.866  1.00  0.00    -0.089 C  
BRANCH  30  31
HETATM   31  N   UNL     1      -7.696   4.882  69.895  1.00  0.00    -0.055 NA 
HETATM   32  C   UNL     1      -7.898   3.562  70.544  1.00  0.00    -0.046 C  
HETATM   33  C   UNL     1      -7.563   2.344  69.647  1.00  0.00    -0.043 C  
HETATM   34  N   UNL     1      -6.199   2.362  69.078  1.00  0.00    -0.025 NA 
HETATM   35  C   UNL     1      -5.197   2.046  70.098  1.00  0.00    -0.004 C  
HETATM   36  C   UNL     1      -5.942   3.683  68.469  1.00  0.00    -0.024 C  
HETATM   37  C   UNL     1      -6.308   4.893  69.367  1.00  0.00    -0.031 C  
ENDBRANCH  30  31
ENDBRANCH  22  25
BRANCH  23  38
HETATM   38  O   UNL     1      -9.812   9.735  67.194  1.00  0.00    -0.171 OA 
HETATM   39  C   UNL     1     -10.293  10.488  66.086  1.00  0.00    -0.210 C  
ENDBRANCH  23  38
ENDBRANCH  17  19
ENDBRANCH   8  17
BRANCH   5  40
HETATM   40  C   UNL     1      -8.034  12.629  70.457  1.00  0.00     5.043 C  
HETATM   41  H2  UNL     1      -8.034  13.361  72.303  1.00  0.00     0.000 HD 
HETATM   42  N   UNL     1      -7.390  12.923  71.644  1.00  0.00     5.980 N  
HETATM   43  O   UNL     1      -8.163  11.475  70.080  1.00  0.00     1.147 OA 
HETATM   44  H1  UNL     1      -6.929  12.120  72.072  1.00  0.00     0.000 HD 
ENDBRANCH   5  40
ENDBRANCH   2   3
TORSDOF 9
ENDMDL
MODEL      145
REMARK 921   NORMALIZED FREE ENERGY PREDICTED BY IDOCK:   16.36 KCAL/MOL
REMARK 922        TOTAL FREE ENERGY PREDICTED BY IDOCK:   22.82 KCAL/MOL
REMARK 923 INTER-LIGAND FREE ENERGY PREDICTED BY IDOCK:   15.55 KCAL/MOL
REMARK 924 INTRA-LIGAND FREE ENERGY PREDICTED BY IDOCK:    7.27 KCAL/MOL
REMARK 927      BINDING AFFINITY PREDICTED BY RF-SCORE:    0.00 PKD
ROOT
HETATM    1  C   UNL     1     -10.584  14.033  73.185  1.00  0.00     5.814 C  
HETATM    2  C   UNL     1     -11.734  13.042  73.017  1.00  0.00     5.208 C  
ENDROOT
BRANCH   2   3
HETATM    3  C   UNL     1     -11.569  12.120  71.855  1.00  0.00     3.530 A  
HETATM    4  C   UNL     1     -11.334  12.537  70.513  1.00  0.00     0.880 A  
HETATM    5  C   UNL     1     -12.214  10.076  71.161  1.00  0.00    -0.380 A  
HETATM    6  N   UNL     1     -11.389  11.607  69.502  1.00  0.00    -0.266 NA 
HETATM    7  N   UNL     1     -11.916  10.875  72.202  1.00  0.00     1.158 NA 
HETATM    8  C   UNL     1     -11.803  10.322  69.839  1.00  0.00    -0.193 A  
BRANCH   4   9
HETATM    9  N   UNL     1     -10.991  13.867  70.359  1.00  0.00    -0.170 NA 
HETATM   10  H   UNL     1     -10.087  13.935  69.892  1.00  0.00     0.000 HD 
BRANCH   9  11
HETATM   11  C   UNL     1     -11.501  15.211  70.647  1.00  0.00    -0.305 C  
HETATM   12  O   UNL     1     -14.154  16.278  70.535  1.00  0.00     1.601 OA 
HETATM   13  C   UNL     1     -13.580  15.729  69.349  1.00  0.00     2.715 C  
HETATM   14  C   UNL     1     -12.300  15.476  71.912  1.00  0.00    -0.472 C  
HETATM   15  C   UNL     1     -12.077  15.885  69.407  1.00  0.00    -0.183 C  
HETATM   16  C   UNL     1     -13.805  15.523  71.695  1.00  0.00    -0.456 C  
ENDBRANCH   9  11
ENDBRANCH   4   9
BRANCH   8  17
HETATM   17  N   UNL     1     -11.694   9.235  68.916  1.00  0.00     0.129 NA 
HETATM   18  H   UNL     1     -12.525   8.652  68.816  1.00  0.00     0.000 HD 
BRANCH  17  19
HETATM   19  C   UNL     1     -10.573   8.861  68.116  1.00  0.00    -0.157 A  
HETATM   20  C   UNL     1     -10.610   9.025  66.733  1.00  0.00    -0.201 A  
HETATM   21  C   UNL     1      -9.706   8.337  65.895  1.00  0.00     0.019 A  
HETATM   22  C   UNL     1      -8.749   7.427  66.391  1.00  0.00    -0.142 A  
HETATM   23  C   UNL     1      -8.627   7.366  67.796  1.00  0.00    -0.120 A  
HETATM   24  C   UNL     1      -9.496   8.110  68.629  1.00  0.00    -0.147 A  
BRANCH  22  25
HETATM   25  N   UNL     1      -8.087   6.593  65.493  1.00  0.00    -0.119 NA 
HETATM   26  C   UNL     1      -7.835   7.008  64.109  1.00  0.00    -0.106 C  
HETATM   27  C   UNL     1      -8.015   5.151  65.726  1.00  0.00    -0.108 C  
HETATM   28  C   UNL     1      -6.626   4.654  65.320  1.00  0.00    -0.047 C  
HETATM   29  C   UNL     1      -6.448   6.511  63.692  1.00  0.00    -0.040 C  
HETATM   30  C   UNL     1      -6.306   4.973  63.831  1.00  0.00    -0.022 C  
BRANCH  30  31
HETATM   31  N   UNL     1      -7.155   4.210  62.872  1.00  0.00    -0.039 NA 
HETATM   32  C   UNL     1      -6.937   2.743  62.922  1.00  0.00    -0.032 C  
HETATM   33  C   UNL     1      -7.516   2.047  64.179  1.00  0.00    -0.059 C  
HETATM   34  N   UNL     1      -8.954   2.296  64.407  1.00  0.00    -0.105 NA 
HETATM   35  C   UNL     1      -9.778   1.544  63.458  1.00  0.00    -0.117 C  
HETATM   36  C   UNL     1      -9.219   3.747  64.311  1.00  0.00    -0.141 C  
HETATM   37  C   UNL     1      -8.610   4.435  63.063  1.00  0.00    -0.108 C  
ENDBRANCH  30  31
ENDBRANCH  22  25
BRANCH  23  38
HETATM   38  O   UNL     1      -7.615   6.584  68.316  1.00  0.00    -0.099 OA 
HETATM   39  C   UNL     1      -7.784   6.153  69.662  1.00  0.00    -0.098 C  
ENDBRANCH  23  38
ENDBRANCH  17  19
ENDBRANCH   8  17
BRANCH   5  40
HETATM   40  C   UNL     1     -13.445   9.278  71.477  1.00  0.00    -0.370 C  
HETATM   41  H2  UNL     1     -12.653   7.510  71.042  1.00  0.00     0.000 HD 
HETATM   42  N   UNL     1     -13.494   8.051  70.841  1.00  0.00    -0.437 N  
HETATM   43  O   UNL     1     -14.259   9.572  72.338  1.00  0.00    -0.265 OA 
HETATM   44  H1  UNL     1     -14.330   7.508  71.056  1.00  0.00     0.000 HD 
ENDBRANCH   5  40
ENDBRANCH   2   3
TORSDOF 9
ENDMDL
MODEL      146
REMARK 921   NORMALIZED FREE ENERGY PREDICTED BY IDOCK:   21.90 KCAL/MOL
REMARK 922        TOTAL FREE ENERGY PREDICTED BY IDOCK:   31.28 KCAL/MOL
REMARK 923 INTER-LIGAND FREE ENERGY PREDICTED BY IDOCK:   25.19 KCAL/MOL
REMARK 924 INTRA-LIGAND FREE ENERGY PREDICTED BY IDOCK:    6.09 KCAL/MOL
REMARK 927      BINDING AFFINITY PREDICTED BY RF-SCORE:    0.00 PKD
ROOT
HETATM    1  C   UNL     1      -7.121  18.018  63.821  1.00  0.00     8.142 C  
HETATM    2  C   UNL     1      -6.722  17.428  65.172  1.00  0.00     1.700 C  
ENDROOT
BRANCH   2   3
HETATM    3  C   UNL     1      -7.753  16.526  65.763  1.00  0.00     0.871 A  
HETATM    4  C   UNL     1      -8.626  16.879  66.833  1.00  0.00    -0.214 A  
HETATM    5  C   UNL     1      -8.152  14.334  66.094  1.00  0.00     1.612 A  
HETATM    6  N   UNL     1      -9.401  15.905  67.416  1.00  0.00    -0.209 NA 
HETATM    7  N   UNL     1      -7.578  15.275  65.322  1.00  0.00     5.406 NA 
HETATM    8  C   UNL     1      -9.190  14.592  67.008  1.00  0.00    -0.239 A  
BRANCH   4   9
HETATM    9  N   UNL     1      -8.664  18.225  67.144  1.00  0.00    -0.251 NA 
HETATM   10  H   UNL     1      -8.519  18.349  68.146  1.00  0.00     0.000 HD 
BRANCH   9  11
HETATM   11  C   UNL     1      -8.844  19.533  66.506  1.00  0.00    -0.357 C  
HETATM   12  O   UNL     1     -11.189  21.127  66.118  1.00  0.00     2.831 OA 
HETATM   13  C   UNL     1     -11.148  19.813  65.563  1.00  0.00     0.138 C  
HETATM   14  C   UNL     1      -9.106  20.770  67.348  1.00  0.00    -0.321 C  
HETATM   15  C   UNL     1      -9.714  19.448  65.257  1.00  0.00     1.157 C  
HETATM   16  C   UNL     1     -10.570  21.183  67.403  1.00  0.00     1.675 C  
ENDBRANCH   9  11
ENDBRANCH   4   9
BRANCH   8  17
HETATM   17  N   UNL     1     -10.077  13.538  67.390  1.00  0.00    -0.235 NA 
HETATM   18  H   UNL     1     -11.054  13.660  67.123  1.00  0.00     0.000 HD 
BRANCH  17  19
HETATM   19  C   UNL     1      -9.773  12.337  68.098  1.00  0.00    -0.213 A  
HETATM   20  C   UNL     1      -8.960  12.376  69.230  1.00  0.00     0.920 A  
HETATM   21  C   UNL     1      -8.341  11.205  69.720  1.00  0.00     0.799 A  
HETATM   22  C   UNL     1      -8.473   9.951  69.088  1.00  0.00    -0.148 A  
HETATM   23  C   UNL     1      -9.401   9.891  68.024  1.00  0.00    -0.130 A  
HETATM   24  C   UNL     1     -10.066  11.060  67.581  1.00  0.00    -0.208 A  
BRANCH  22  25
HETATM   25  N   UNL     1      -7.624   8.915  69.467  1.00  0.00    -0.078 NA 
HETATM   26  C   UNL     1      -8.148   7.594  69.834  1.00  0.00    -0.124 C  
HETATM   27  C   UNL     1      -6.270   9.193  69.944  1.00  0.00    -0.038 C  
HETATM   28  C   UNL     1      -5.322   8.129  69.389  1.00  0.00    -0.030 C  
HETATM   29  C   UNL     1      -7.202   6.522  69.285  1.00  0.00    -0.090 C  
HETATM   30  C   UNL     1      -5.752   6.693  69.806  1.00  0.00    -0.015 C  
BRANCH  30  31
HETATM   31  N   UNL     1      -5.612   6.439  71.268  1.00  0.00    -0.026 NA 
HETATM   32  C   UNL     1      -5.687   7.670  72.095  1.00  0.00    -0.036 C  
HETATM   33  C   UNL     1      -7.104   8.284  72.210  1.00  0.00    -0.095 C  
HETATM   34  N   UNL     1      -8.136   7.348  72.702  1.00  0.00    -0.101 NA 
HETATM   35  C   UNL     1      -7.987   7.104  74.139  1.00  0.00    -0.119 C  
HETATM   36  C   UNL     1      -8.057   6.087  71.936  1.00  0.00    -0.107 C  
HETATM   37  C   UNL     1      -6.628   5.499  71.804  1.00  0.00    -0.052 C  
ENDBRANCH  30  31
ENDBRANCH  22  25
BRANCH  23  38
HETATM   38  O   UNL     1      -9.652   8.655  67.465  1.00  0.00    -0.148 OA 
HETATM   39  C   UNL     1     -10.142   8.660  66.128  1.00  0.00    -0.035 C  
ENDBRANCH  23  38
ENDBRANCH  17  19
ENDBRANCH   8  17
BRANCH   5  40
HETATM   40  C   UNL     1      -7.206  13.181  66.268  1.00  0.00     2.491 C  
HETATM   41  H2  UNL     1      -6.747  13.584  68.157  1.00  0.00     0.000 HD 
HETATM   42  N   UNL     1      -6.280  13.366  67.277  1.00  0.00    -0.107 N  
HETATM   43  O   UNL     1      -7.322  12.101  65.711  1.00  0.00     1.173 OA 
HETATM   44  H1  UNL     1      -5.637  12.583  67.396  1.00  0.00     0.000 HD 
ENDBRANCH   5  40
ENDBRANCH   2   3
TORSDOF 9
ENDMDL
MODEL      147
REMARK 921   NORMALIZED FREE ENERGY PREDICTED BY IDOCK:   24.08 KCAL/MOL
REMARK 922        TOTAL FREE ENERGY PREDICTED BY IDOCK:   34.61 KCAL/MOL
REMARK 923 INTER-LIGAND FREE ENERGY PREDICTED BY IDOCK:   28.31 KCAL/MOL
REMARK 924 INTRA-LIGAND FREE ENERGY PREDICTED BY IDOCK:    6.31 KCAL/MOL
REMARK 927      BINDING AFFINITY PREDICTED BY RF-SCORE:    0.00 PKD
ROOT
HETATM    1  C   UNL     1      -8.223  17.003  67.988  1.00  0.00    -0.206 C  
HETATM    2  C   UNL     1      -9.422  16.919  68.929  1.00  0.00    -0.241 C  
ENDROOT
BRANCH   2   3
HETATM    3  C   UNL     1     -10.301  15.740  68.682  1.00  0.00    -0.225 A  
HETATM    4  C   UNL     1     -11.279  15.247  69.594  1.00  0.00    -0.278 A  
HETATM    5  C   UNL     1     -10.310  13.795  67.544  1.00  0.00    -0.241 A  
HETATM    6  N   UNL     1     -11.892  14.045  69.336  1.00  0.00    -0.311 NA 
HETATM    7  N   UNL     1      -9.878  15.068  67.605  1.00  0.00    -0.220 NA 
HETATM    8  C   UNL     1     -11.424  13.309  68.252  1.00  0.00    -0.316 A  
BRANCH   4   9
HETATM    9  N   UNL     1     -11.578  16.088  70.649  1.00  0.00    -0.407 NA 
HETATM   10  H   UNL     1     -12.053  15.562  71.382  1.00  0.00     0.000 HD 
BRANCH   9  11
HETATM   11  C   UNL     1     -11.435  17.488  71.060  1.00  0.00     2.449 C  
HETATM   12  O   UNL     1     -10.216  18.653  73.373  1.00  0.00     3.045 OA 
HETATM   13  C   UNL     1     -11.290  17.731  73.550  1.00  0.00     1.465 C  
HETATM   14  C   UNL     1     -10.085  18.181  70.978  1.00  0.00     3.386 C  
HETATM   15  C   UNL     1     -12.200  17.791  72.344  1.00  0.00     4.424 C  
HETATM   16  C   UNL     1      -9.350  18.264  72.307  1.00  0.00    10.975 C  
ENDBRANCH   9  11
ENDBRANCH   4   9
BRANCH   8  17
HETATM   17  N   UNL     1     -12.123  12.158  67.772  1.00  0.00    -0.471 NA 
HETATM   18  H   UNL     1     -12.526  12.240  66.839  1.00  0.00     0.000 HD 
BRANCH  17  19
HETATM   19  C   UNL     1     -12.329  10.908  68.429  1.00  0.00     0.687 A  
HETATM   20  C   UNL     1     -12.616  10.871  69.793  1.00  0.00    -0.150 A  
HETATM   21  C   UNL     1     -12.453   9.682  70.536  1.00  0.00    -0.066 A  
HETATM   22  C   UNL     1     -11.966   8.487  69.968  1.00  0.00     0.576 A  
HETATM   23  C   UNL     1     -11.805   8.493  68.564  1.00  0.00     2.252 A  
HETATM   24  C   UNL     1     -12.033   9.674  67.818  1.00  0.00     2.756 A  
BRANCH  22  25
HETATM   25  N   UNL     1     -11.579   7.450  70.812  1.00  0.00    -0.294 NA 
HETATM   26  C   UNL     1     -12.290   7.182  72.067  1.00  0.00    -0.263 C  
HETATM   27  C   UNL     1     -10.232   6.885  70.736  1.00  0.00    -0.195 C  
HETATM   28  C   UNL     1     -10.320   5.370  70.925  1.00  0.00    -0.312 C  
HETATM   29  C   UNL     1     -12.379   5.666  72.267  1.00  0.00     0.268 C  
HETATM   30  C   UNL     1     -10.984   4.990  72.280  1.00  0.00    -0.092 C  
BRANCH  30  31
HETATM   31  N   UNL     1     -10.156   5.360  73.463  1.00  0.00    -0.175 NA 
HETATM   32  C   UNL     1      -8.783   4.795  73.428  1.00  0.00    -0.100 C  
HETATM   33  C   UNL     1      -7.837   5.464  72.401  1.00  0.00    -0.103 C  
HETATM   34  N   UNL     1      -7.716   6.929  72.545  1.00  0.00    -0.094 NA 
HETATM   35  C   UNL     1      -6.904   7.281  73.711  1.00  0.00    -0.079 C  
HETATM   36  C   UNL     1      -9.066   7.523  72.637  1.00  0.00    -0.150 C  
HETATM   37  C   UNL     1     -10.013   6.826  73.648  1.00  0.00    -0.266 C  
ENDBRANCH  30  31
ENDBRANCH  22  25
BRANCH  23  38
HETATM   38  O   UNL     1     -11.452   7.306  67.957  1.00  0.00     0.314 OA 
HETATM   39  C   UNL     1     -11.404   7.319  66.535  1.00  0.00     1.564 C  
ENDBRANCH  23  38
ENDBRANCH  17  19
ENDBRANCH   8  17
BRANCH   5  40
HETATM   40  C   UNL     1      -9.180  12.900  67.125  1.00  0.00    -0.225 C  
HETATM   41  H2  UNL     1      -8.392  12.713  68.938  1.00  0.00     0.000 HD 
HETATM   42  N   UNL     1      -8.098  12.927  67.985  1.00  0.00    -0.148 N  
HETATM   43  O   UNL     1      -9.243  12.084  66.219  1.00  0.00    -0.225 OA 
HETATM   44  H1  UNL     1      -7.330  12.319  67.700  1.00  0.00     0.000 HD 
ENDBRANCH   5  40
ENDBRANCH   2   3
TORSDOF 9
ENDMDL
MODEL      148
REMARK 921   NORMALIZED FREE ENERGY PREDICTED BY IDOCK:   30.86 KCAL/MOL
REMARK 922        TOTAL FREE ENERGY PREDICTED BY IDOCK:   44.96 KCAL/MOL
REMARK 923 INTER-LIGAND FREE ENERGY PREDICTED BY IDOCK:   34.50 KCAL/MOL
REMARK 924 INTRA-LIGAND FREE ENERGY PREDICTED BY IDOCK:   10.47 KCAL/MOL
REMARK 927      BINDING AFFINITY PREDICTED BY RF-SCORE:    0.00 PKD
ROOT
HETATM    1  C   UNL     1     -13.378  16.210  70.055  1.00  0.00     2.120 C  
HETATM    2  C   UNL     1     -12.285  16.375  69.001  1.00  0.00     0.666 C  
ENDROOT
BRANCH   2   3
HETATM    3  C   UNL     1     -10.963  15.817  69.412  1.00  0.00    -0.296 A  
HETATM    4  C   UNL     1      -9.790  15.824  68.603  1.00  0.00    -0.210 A  
HETATM    5  C   UNL     1     -10.095  14.223  70.747  1.00  0.00     2.230 A  
HETATM    6  N   UNL     1      -8.687  15.114  69.015  1.00  0.00    -0.204 NA 
HETATM    7  N   UNL     1     -11.095  15.098  70.533  1.00  0.00    -0.276 NA 
HETATM    8  C   UNL     1      -8.827  14.318  70.146  1.00  0.00     1.717 A  
BRANCH   4   9
HETATM    9  N   UNL     1      -9.852  16.628  67.481  1.00  0.00    -0.249 NA 
HETATM   10  H   UNL     1     -10.653  17.254  67.552  1.00  0.00     0.000 HD 
BRANCH   9  11
HETATM   11  C   UNL     1      -9.142  16.875  66.222  1.00  0.00    -0.267 C  
HETATM   12  O   UNL     1      -7.120  18.786  65.549  1.00  0.00    -0.470 OA 
HETATM   13  C   UNL     1      -8.384  19.254  66.018  1.00  0.00    -0.182 C  
HETATM   14  C   UNL     1      -7.688  16.465  66.064  1.00  0.00     0.275 C  
HETATM   15  C   UNL     1      -9.453  18.253  65.648  1.00  0.00     0.605 C  
HETATM   16  C   UNL     1      -6.699  17.608  66.236  1.00  0.00    -0.282 C  
ENDBRANCH   9  11
ENDBRANCH   4   9
BRANCH   8  17
HETATM   17  N   UNL     1      -7.696  13.710  70.777  1.00  0.00     2.162 NA 
HETATM   18  H   UNL     1      -6.943  14.343  71.045  1.00  0.00     0.000 HD 
BRANCH  17  19
HETATM   19  C   UNL     1      -7.486  12.332  71.082  1.00  0.00     6.449 A  
HETATM   20  C   UNL     1      -6.193  11.815  71.144  1.00  0.00     1.106 A  
HETATM   21  C   UNL     1      -5.962  10.425  71.066  1.00  0.00     0.012 A  
HETATM   22  C   UNL     1      -7.001   9.488  70.886  1.00  0.00    -0.067 A  
HETATM   23  C   UNL     1      -8.314  10.003  70.957  1.00  0.00     1.319 A  
HETATM   24  C   UNL     1      -8.537  11.393  71.101  1.00  0.00     8.126 A  
BRANCH  22  25
HETATM   25  N   UNL     1      -6.673   8.178  70.547  1.00  0.00    -0.037 NA 
HETATM   26  C   UNL     1      -6.754   7.705  69.161  1.00  0.00    -0.048 C  
HETATM   27  C   UNL     1      -6.672   7.121  71.558  1.00  0.00    -0.051 C  
HETATM   28  C   UNL     1      -5.487   6.190  71.297  1.00  0.00    -0.022 C  
HETATM   29  C   UNL     1      -5.573   6.767  68.892  1.00  0.00    -0.017 C  
HETATM   30  C   UNL     1      -5.539   5.567  69.873  1.00  0.00    -0.008 C  
BRANCH  30  31
HETATM   31  N   UNL     1      -6.672   4.617  69.688  1.00  0.00    -0.043 NA 
HETATM   32  C   UNL     1      -7.961   5.282  69.369  1.00  0.00    -0.088 C  
HETATM   33  C   UNL     1      -8.050   5.861  67.935  1.00  0.00    -0.105 C  
HETATM   34  N   UNL     1      -7.771   4.882  66.864  1.00  0.00    -0.091 NA 
HETATM   35  C   UNL     1      -8.890   3.952  66.694  1.00  0.00    -0.126 C  
HETATM   36  C   UNL     1      -6.520   4.160  67.175  1.00  0.00    -0.042 C  
HETATM   37  C   UNL     1      -6.432   3.611  68.622  1.00  0.00    -0.037 C  
ENDBRANCH  30  31
ENDBRANCH  22  25
BRANCH  23  38
HETATM   38  O   UNL     1      -9.357   9.100  70.914  1.00  0.00    -0.237 OA 
HETATM   39  C   UNL     1      -9.428   8.279  69.753  1.00  0.00    -0.163 C  
ENDBRANCH  23  38
ENDBRANCH  17  19
ENDBRANCH   8  17
BRANCH   5  40
HETATM   40  C   UNL     1     -10.664  12.912  71.204  1.00  0.00     4.960 C  
HETATM   41  H2  UNL     1      -9.090  11.819  70.685  1.00  0.00     0.000 HD 
HETATM   42  N   UNL     1     -10.104  11.812  70.582  1.00  0.00     3.096 N  
HETATM   43  O   UNL     1     -11.421  12.779  72.153  1.00  0.00     3.270 OA 
HETATM   44  H1  UNL     1     -10.491  10.921  70.893  1.00  0.00     0.000 HD 
ENDBRANCH   5  40
ENDBRANCH   2   3
TORSDOF 9
ENDMDL
MODEL      149
REMARK 921   NORMALIZED FREE ENERGY PREDICTED BY IDOCK:   31.07 KCAL/MOL
REMARK 922        TOTAL FREE ENERGY PREDICTED BY IDOCK:   45.27 KCAL/MOL
REMARK 923 INTER-LIGAND FREE ENERGY PREDICTED BY IDOCK:   40.37 KCAL/MOL
REMARK 924 INTRA-LIGAND FREE ENERGY PREDICTED BY IDOCK:    4.90 KCAL/MOL
REMARK 927      BINDING AFFINITY PREDICTED BY RF-SCORE:    0.00 PKD
ROOT
HETATM    1  C   UNL     1     -12.830  13.522  72.499  1.00  0.00    -0.244 C  
HETATM    2  C   UNL     1     -12.809  12.039  72.863  1.00  0.00     2.663 C  
ENDROOT
BRANCH   2   3
HETATM    3  C   UNL     1     -11.548  11.341  72.477  1.00  0.00     5.487 A  
HETATM    4  C   UNL     1     -10.919  11.443  71.202  1.00  0.00     2.636 A  
HETATM    5  C   UNL     1     -10.386   9.472  72.957  1.00  0.00     3.933 A  
HETATM    6  N   UNL     1      -9.870  10.608  70.903  1.00  0.00     1.614 NA 
HETATM    7  N   UNL     1     -11.228  10.425  73.398  1.00  0.00     8.266 NA 
HETATM    8  C   UNL     1      -9.562   9.614  71.826  1.00  0.00     1.234 A  
BRANCH   4   9
HETATM    9  N   UNL     1     -11.395  12.453  70.388  1.00  0.00    -0.217 NA 
HETATM   10  H   UNL     1     -12.183  12.916  70.841  1.00  0.00     0.000 HD 
BRANCH   9  11
HETATM   11  C   UNL     1     -11.138  13.078  69.086  1.00  0.00    -0.192 C  
HETATM   12  O   UNL     1      -8.762  13.198  67.496  1.00  0.00    -0.178 OA 
HETATM   13  C   UNL     1      -8.738  13.741  68.816  1.00  0.00     0.038 C  
HETATM   14  C   UNL     1     -10.977  12.223  67.841  1.00  0.00    -0.265 C  
HETATM   15  C   UNL     1     -10.126  14.213  69.183  1.00  0.00    -0.023 C  
HETATM   16  C   UNL     1      -9.530  11.997  67.428  1.00  0.00    -0.177 C  
ENDBRANCH   9  11
ENDBRANCH   4   9
BRANCH   8  17
HETATM   17  N   UNL     1      -8.368   8.834  71.716  1.00  0.00    -0.319 NA 
HETATM   18  H   UNL     1      -7.553   9.197  72.211  1.00  0.00     0.000 HD 
BRANCH  17  19
HETATM   19  C   UNL     1      -8.170   7.613  71.004  1.00  0.00    -0.107 A  
HETATM   20  C   UNL     1      -7.417   7.599  69.831  1.00  0.00    -0.083 A  
HETATM   21  C   UNL     1      -7.513   6.524  68.921  1.00  0.00    -0.095 A  
HETATM   22  C   UNL     1      -8.385   5.434  69.116  1.00  0.00    -0.097 A  
HETATM   23  C   UNL     1      -9.043   5.388  70.365  1.00  0.00    -0.141 A  
HETATM   24  C   UNL     1      -8.891   6.440  71.300  1.00  0.00    -0.138 A  
BRANCH  22  25
HETATM   25  N   UNL     1      -8.621   4.563  68.056  1.00  0.00    -0.101 NA 
HETATM   26  C   UNL     1      -7.618   4.349  67.007  1.00  0.00    -0.085 C  
HETATM   27  C   UNL     1      -9.984   4.181  67.690  1.00  0.00     0.012 C  
HETATM   28  C   UNL     1      -9.996   2.699  67.309  1.00  0.00     0.935 C  
HETATM   29  C   UNL     1      -7.626   2.868  66.616  1.00  0.00    -0.075 C  
HETATM   30  C   UNL     1      -9.021   2.393  66.136  1.00  0.00    -0.114 C  
BRANCH  30  31
HETATM   31  N   UNL     1      -9.445   3.005  64.845  1.00  0.00    -0.153 NA 
HETATM   32  C   UNL     1     -10.708   2.441  64.305  1.00  0.00     0.416 C  
HETATM   33  C   UNL     1     -11.984   2.869  65.071  1.00  0.00     6.400 C  
HETATM   34  N   UNL     1     -12.161   4.331  65.193  1.00  0.00     2.133 NA 
HETATM   35  C   UNL     1     -12.575   4.922  63.918  1.00  0.00     6.055 C  
HETATM   36  C   UNL     1     -10.903   4.936  65.678  1.00  0.00    -0.027 C  
HETATM   37  C   UNL     1      -9.630   4.476  64.922  1.00  0.00    -0.117 C  
ENDBRANCH  30  31
ENDBRANCH  22  25
BRANCH  23  38
HETATM   38  O   UNL     1      -9.805   4.272  70.645  1.00  0.00    -0.196 OA 
HETATM   39  C   UNL     1      -9.114   3.169  71.221  1.00  0.00    -0.109 C  
ENDBRANCH  23  38
ENDBRANCH  17  19
ENDBRANCH   8  17
BRANCH   5  40
HETATM   40  C   UNL     1     -10.848   8.129  73.443  1.00  0.00     0.501 C  
HETATM   41  H2  UNL     1     -12.723   8.327  72.823  1.00  0.00     0.000 HD 
HETATM   42  N   UNL     1     -12.211   8.053  73.660  1.00  0.00     1.562 N  
HETATM   43  O   UNL     1     -10.147   7.130  73.487  1.00  0.00    -0.259 OA 
HETATM   44  H1  UNL     1     -12.525   7.140  73.990  1.00  0.00     0.000 HD 
ENDBRANCH   5  40
ENDBRANCH   2   3
TORSDOF 9
ENDMDL
MODEL      150
REMARK 921   NORMALIZED FREE ENERGY PREDICTED BY IDOCK:   31.59 KCAL/MOL
REMARK 922        TOTAL FREE ENERGY PREDICTED BY IDOCK:   46.07 KCAL/MOL
REMARK 923 INTER-LIGAND FREE ENERGY PREDICTED BY IDOCK:   43.19 KCAL/MOL
REMARK 924 INTRA-LIGAND FREE ENERGY PREDICTED BY IDOCK:    2.88 KCAL/MOL
REMARK 927      BINDING AFFINITY PREDICTED BY RF-SCORE:    0.00 PKD
ROOT
HETATM    1  C   UNL     1      -9.731   4.836  67.329  1.00  0.00    -0.210 C  
HETATM    2  C   UNL     1     -10.609   5.901  67.982  1.00  0.00    -0.321 C  
ENDROOT
BRANCH   2   3
HETATM    3  C   UNL     1     -10.071   7.287  67.854  1.00  0.00    -0.177 A  
HETATM    4  C   UNL     1     -10.354   8.356  68.753  1.00  0.00    -0.206 A  
HETATM    5  C   UNL     1      -9.370   8.733  66.275  1.00  0.00    -0.222 A  
HETATM    6  N   UNL     1      -9.956   9.630  68.426  1.00  0.00    -0.154 NA 
HETATM    7  N   UNL     1      -9.496   7.449  66.657  1.00  0.00    -0.181 NA 
HETATM    8  C   UNL     1      -9.408   9.823  67.163  1.00  0.00    -0.142 A  
BRANCH   4   9
HETATM    9  N   UNL     1     -10.958   7.985  69.940  1.00  0.00    -0.371 NA 
HETATM   10  H   UNL     1     -10.244   7.744  70.627  1.00  0.00     0.000 HD 
BRANCH   9  11
HETATM   11  C   UNL     1     -12.289   7.825  70.534  1.00  0.00     0.229 C  
HETATM   12  O   UNL     1     -13.603   9.283  72.617  1.00  0.00    -0.455 OA 
HETATM   13  C   UNL     1     -12.366   8.633  72.904  1.00  0.00     0.195 C  
HETATM   14  C   UNL     1     -13.394   8.820  70.225  1.00  0.00     1.468 C  
HETATM   15  C   UNL     1     -12.217   7.428  72.004  1.00  0.00    -0.315 C  
HETATM   16  C   UNL     1     -13.611   9.862  71.313  1.00  0.00    -0.195 C  
ENDBRANCH   9  11
ENDBRANCH   4   9
BRANCH   8  17
HETATM   17  N   UNL     1      -8.772  11.053  66.803  1.00  0.00    -0.148 NA 
HETATM   18  H   UNL     1      -8.017  10.980  66.121  1.00  0.00     0.000 HD 
BRANCH  17  19
HETATM   19  C   UNL     1      -9.058  12.369  67.275  1.00  0.00    -0.187 A  
HETATM   20  C   UNL     1      -8.830  13.474  66.456  1.00  0.00     0.005 A  
HETATM   21  C   UNL     1      -8.739  14.774  66.999  1.00  0.00    -0.258 A  
HETATM   22  C   UNL     1      -8.836  15.030  68.382  1.00  0.00    -0.178 A  
HETATM   23  C   UNL     1      -9.199  13.930  69.190  1.00  0.00     0.345 A  
HETATM   24  C   UNL     1      -9.352  12.641  68.626  1.00  0.00     0.017 A  
BRANCH  22  25
HETATM   25  N   UNL     1      -8.467  16.286  68.860  1.00  0.00    -0.242 NA 
HETATM   26  C   UNL     1      -7.617  16.431  70.047  1.00  0.00     0.956 C  
HETATM   27  C   UNL     1      -9.238  17.477  68.506  1.00  0.00    -0.278 C  
HETATM   28  C   UNL     1      -8.271  18.637  68.266  1.00  0.00    -0.349 C  
HETATM   29  C   UNL     1      -6.648  17.594  69.816  1.00  0.00     0.022 C  
HETATM   30  C   UNL     1      -7.384  18.924  69.512  1.00  0.00     0.061 C  
BRANCH  30  31
HETATM   31  N   UNL     1      -8.156  19.454  70.671  1.00  0.00     1.781 NA 
HETATM   32  C   UNL     1      -8.435  20.910  70.585  1.00  0.00     3.280 C  
HETATM   33  C   UNL     1      -9.506  21.300  69.536  1.00  0.00     2.928 C  
HETATM   34  N   UNL     1     -10.798  20.602  69.695  1.00  0.00     0.749 NA 
HETATM   35  C   UNL     1     -11.546  21.129  70.838  1.00  0.00     8.762 C  
HETATM   36  C   UNL     1     -10.556  19.152  69.838  1.00  0.00     1.372 C  
HETATM   37  C   UNL     1      -9.462  18.777  70.871  1.00  0.00     3.689 C  
ENDBRANCH  30  31
ENDBRANCH  22  25
BRANCH  23  38
HETATM   38  O   UNL     1      -9.429  14.169  70.529  1.00  0.00     2.040 OA 
HETATM   39  C   UNL     1      -9.328  13.042  71.393  1.00  0.00    13.688 C  
ENDBRANCH  23  38
ENDBRANCH  17  19
ENDBRANCH   8  17
BRANCH   5  40
HETATM   40  C   UNL     1      -9.753   8.868  64.830  1.00  0.00     0.770 C  
HETATM   41  H2  UNL     1      -8.060   8.127  64.105  1.00  0.00     0.000 HD 
HETATM   42  N   UNL     1      -8.674   8.930  63.969  1.00  0.00    -0.410 N  
HETATM   43  O   UNL     1     -10.892   8.761  64.404  1.00  0.00     5.831 OA 
HETATM   44  H1  UNL     1      -8.934   9.021  62.987  1.00  0.00     0.000 HD 
ENDBRANCH   5  40
ENDBRANCH   2   3
TORSDOF 9
ENDMDL
MODEL      151
REMARK 921   NORMALIZED FREE ENERGY PREDICTED BY IDOCK:   46.85 KCAL/MOL
REMARK 922        TOTAL FREE ENERGY PREDICTED BY IDOCK:   69.35 KCAL/MOL
REMARK 923 INTER-LIGAND FREE ENERGY PREDICTED BY IDOCK:   63.05 KCAL/MOL
REMARK 924 INTRA-LIGAND FREE ENERGY PREDICTED BY IDOCK:    6.30 KCAL/MOL
REMARK 927      BINDING AFFINITY PREDICTED BY RF-SCORE:    0.00 PKD
ROOT
HETATM    1  C   UNL     1      -9.612  13.706  73.350  1.00  0.00    12.811 C  
HETATM    2  C   UNL     1     -10.565  12.524  73.515  1.00  0.00    18.735 C  
ENDROOT
BRANCH   2   3
HETATM    3  C   UNL     1     -10.552  11.575  72.364  1.00  0.00    11.874 A  
HETATM    4  C   UNL     1     -10.021  11.868  71.074  1.00  0.00     7.321 A  
HETATM    5  C   UNL     1     -11.720   9.831  71.543  1.00  0.00    -0.375 A  
HETATM    6  N   UNL     1     -10.238  10.984  70.043  1.00  0.00     0.383 NA 
HETATM    7  N   UNL     1     -11.322  10.514  72.633  1.00  0.00     4.088 NA 
HETATM    8  C   UNL     1     -11.081   9.907  70.292  1.00  0.00    -0.308 A  
BRANCH   4   9
HETATM    9  N   UNL     1      -9.254  13.014  70.997  1.00  0.00     8.360 NA 
HETATM   10  H   UNL     1      -9.624  13.717  71.637  1.00  0.00     0.000 HD 
BRANCH   9  11
HETATM   11  C   UNL     1      -8.082  13.551  70.298  1.00  0.00     2.954 C  
HETATM   12  O   UNL     1      -7.877  15.214  67.978  1.00  0.00    -0.119 OA 
HETATM   13  C   UNL     1      -8.536  13.953  67.867  1.00  0.00    -0.177 C  
HETATM   14  C   UNL     1      -7.727  15.024  70.410  1.00  0.00     0.747 C  
HETATM   15  C   UNL     1      -7.953  12.998  68.884  1.00  0.00     0.169 C  
HETATM   16  C   UNL     1      -8.167  15.860  69.217  1.00  0.00    -0.227 C  
ENDBRANCH   9  11
ENDBRANCH   4   9
BRANCH   8  17
HETATM   17  N   UNL     1     -11.205   8.824  69.367  1.00  0.00    -0.432 NA 
HETATM   18  H   UNL     1     -12.111   8.355  69.349  1.00  0.00     0.000 HD 
BRANCH  17  19
HETATM   19  C   UNL     1     -10.225   8.313  68.464  1.00  0.00    -0.208 A  
HETATM   20  C   UNL     1     -10.371   8.498  67.090  1.00  0.00    -0.377 A  
HETATM   21  C   UNL     1      -9.651   7.706  66.170  1.00  0.00    -0.077 A  
HETATM   22  C   UNL     1      -8.781   6.672  66.572  1.00  0.00    -0.135 A  
HETATM   23  C   UNL     1      -8.534   6.577  67.960  1.00  0.00    -0.119 A  
HETATM   24  C   UNL     1      -9.213   7.421  68.871  1.00  0.00    -0.142 A  
BRANCH  22  25
HETATM   25  N   UNL     1      -8.324   5.768  65.616  1.00  0.00    -0.132 NA 
HETATM   26  C   UNL     1      -8.053   6.188  64.237  1.00  0.00    -0.093 C  
HETATM   27  C   UNL     1      -8.517   4.329  65.794  1.00  0.00    -0.113 C  
HETATM   28  C   UNL     1      -7.264   3.599  65.306  1.00  0.00    -0.067 C  
HETATM   29  C   UNL     1      -6.802   5.458  63.739  1.00  0.00    -0.046 C  
HETATM   30  C   UNL     1      -6.949   3.916  63.816  1.00  0.00    -0.045 C  
BRANCH  30  31
HETATM   31  N   UNL     1      -7.963   3.368  62.872  1.00  0.00    -0.071 NA 
HETATM   32  C   UNL     1      -8.403   1.990  63.205  1.00  0.00    -0.073 C  
HETATM   33  C   UNL     1      -9.324   1.890  64.447  1.00  0.00    -0.132 C  
HETATM   34  N   UNL     1     -10.527   2.744  64.384  1.00  0.00     0.124 NA 
HETATM   35  C   UNL     1     -11.516   2.198  63.452  1.00  0.00     0.331 C  
HETATM   36  C   UNL     1     -10.134   4.116  64.002  1.00  0.00    -0.089 C  
HETATM   37  C   UNL     1      -9.189   4.200  62.775  1.00  0.00    -0.124 C  
ENDBRANCH  30  31
ENDBRANCH  22  25
BRANCH  23  38
HETATM   38  O   UNL     1      -7.591   5.662  68.380  1.00  0.00    -0.079 OA 
HETATM   39  C   UNL     1      -7.952   4.860  69.499  1.00  0.00    -0.070 C  
ENDBRANCH  23  38
ENDBRANCH  17  19
ENDBRANCH   8  17
BRANCH   5  40
HETATM   40  C   UNL     1     -13.172   9.476  71.676  1.00  0.00    -0.406 C  
HETATM   41  H2  UNL     1     -12.873   7.540  72.004  1.00  0.00     0.000 HD 
HETATM   42  N   UNL     1     -13.447   8.146  71.417  1.00  0.00    -0.505 N  
HETATM   43  O   UNL     1     -14.027  10.217  72.135  1.00  0.00    -0.104 OA 
HETATM   44  H1  UNL     1     -14.434   7.904  71.508  1.00  0.00     0.000 HD 
ENDBRANCH   5  40
ENDBRANCH   2   3
TORSDOF 9
ENDMDL
MODEL      152
REMARK 921   NORMALIZED FREE ENERGY PREDICTED BY IDOCK:   61.17 KCAL/MOL
REMARK 922        TOTAL FREE ENERGY PREDICTED BY IDOCK:   91.22 KCAL/MOL
REMARK 923 INTER-LIGAND FREE ENERGY PREDICTED BY IDOCK:   85.88 KCAL/MOL
REMARK 924 INTRA-LIGAND FREE ENERGY PREDICTED BY IDOCK:    5.35 KCAL/MOL
REMARK 927      BINDING AFFINITY PREDICTED BY RF-SCORE:    0.00 PKD
ROOT
HETATM    1  C   UNL     1     -11.022  16.416  67.226  1.00  0.00    -0.118 C  
HETATM    2  C   UNL     1      -9.573  16.536  66.758  1.00  0.00    -0.268 C  
ENDROOT
BRANCH   2   3
HETATM    3  C   UNL     1      -8.744  15.330  67.049  1.00  0.00    -0.234 A  
HETATM    4  C   UNL     1      -8.199  15.007  68.326  1.00  0.00    -0.146 A  
HETATM    5  C   UNL     1      -7.313  13.923  66.025  1.00  0.00     4.244 A  
HETATM    6  N   UNL     1      -7.298  13.974  68.428  1.00  0.00    -0.104 NA 
HETATM    7  N   UNL     1      -8.381  14.734  65.908  1.00  0.00     1.133 NA 
HETATM    8  C   UNL     1      -6.868  13.383  67.245  1.00  0.00     0.084 A  
BRANCH   4   9
HETATM    9  N   UNL     1      -8.700  15.740  69.385  1.00  0.00    -0.258 NA 
HETATM   10  H   UNL     1      -8.180  16.612  69.474  1.00  0.00     0.000 HD 
BRANCH   9  11
HETATM   11  C   UNL     1      -9.735  15.674  70.422  1.00  0.00     0.546 C  
HETATM   12  O   UNL     1      -9.551  15.145  73.229  1.00  0.00     5.603 OA 
HETATM   13  C   UNL     1      -9.085  14.159  72.308  1.00  0.00     9.340 C  
HETATM   14  C   UNL     1      -9.870  16.788  71.446  1.00  0.00     4.634 C  
HETATM   15  C   UNL     1      -9.863  14.277  71.018  1.00  0.00     3.361 C  
HETATM   16  C   UNL     1      -9.241  16.469  72.794  1.00  0.00    13.247 C  
ENDBRANCH   9  11
ENDBRANCH   4   9
BRANCH   8  17
HETATM   17  N   UNL     1      -6.102  12.175  67.247  1.00  0.00    -0.143 NA 
HETATM   18  H   UNL     1      -5.095  12.287  67.137  1.00  0.00     0.000 HD 
BRANCH  17  19
HETATM   19  C   UNL     1      -6.566  10.832  67.385  1.00  0.00    -0.071 A  
HETATM   20  C   UNL     1      -6.096   9.836  66.531  1.00  0.00    -0.060 A  
HETATM   21  C   UNL     1      -6.790   8.615  66.388  1.00  0.00    -0.071 A  
HETATM   22  C   UNL     1      -8.001   8.344  67.058  1.00  0.00    -0.100 A  
HETATM   23  C   UNL     1      -8.401   9.298  68.019  1.00  0.00    -0.120 A  
HETATM   24  C   UNL     1      -7.661  10.491  68.203  1.00  0.00    -0.096 A  
BRANCH  22  25
HETATM   25  N   UNL     1      -8.758   7.244  66.660  1.00  0.00    -0.126 NA 
HETATM   26  C   UNL     1      -8.390   5.881  67.057  1.00  0.00    -0.105 C  
HETATM   27  C   UNL     1      -9.650   7.329  65.504  1.00  0.00     0.812 C  
HETATM   28  C   UNL     1     -10.932   6.555  65.813  1.00  0.00     2.188 C  
HETATM   29  C   UNL     1      -9.670   5.097  67.364  1.00  0.00    -0.172 C  
HETATM   30  C   UNL     1     -10.645   5.066  66.160  1.00  0.00    -0.265 C  
BRANCH  30  31
HETATM   31  N   UNL     1     -10.132   4.282  65.001  1.00  0.00    -0.206 NA 
HETATM   32  C   UNL     1      -9.639   5.125  63.883  1.00  0.00     0.617 C  
HETATM   33  C   UNL     1      -8.291   5.836  64.158  1.00  0.00    -0.047 C  
HETATM   34  N   UNL     1      -7.194   4.930  64.556  1.00  0.00    -0.057 NA 
HETATM   35  C   UNL     1      -6.700   4.163  63.410  1.00  0.00    -0.038 C  
HETATM   36  C   UNL     1      -7.665   4.036  65.633  1.00  0.00    -0.089 C  
HETATM   37  C   UNL     1      -9.030   3.353  65.358  1.00  0.00    -0.142 C  
ENDBRANCH  30  31
ENDBRANCH  22  25
BRANCH  23  38
HETATM   38  O   UNL     1      -9.511   9.006  68.785  1.00  0.00    -0.146 OA 
HETATM   39  C   UNL     1     -10.599   9.918  68.685  1.00  0.00    -0.217 C  
ENDBRANCH  23  38
ENDBRANCH  17  19
ENDBRANCH   8  17
BRANCH   5  40
HETATM   40  C   UNL     1      -6.386  14.142  64.865  1.00  0.00    17.546 C  
HETATM   41  H2  UNL     1      -4.970  15.059  65.912  1.00  0.00     0.000 HD 
HETATM   42  N   UNL     1      -5.498  15.185  65.049  1.00  0.00    11.697 N  
HETATM   43  O   UNL     1      -6.280  13.387  63.912  1.00  0.00    14.225 OA 
HETATM   44  H1  UNL     1      -4.868  15.334  64.260  1.00  0.00     0.000 HD 
ENDBRANCH   5  40
ENDBRANCH   2   3
TORSDOF 9
ENDMDL
MODEL      153
REMARK 921   NORMALIZED FREE ENERGY PREDICTED BY IDOCK:   79.71 KCAL/MOL
REMARK 922        TOTAL FREE ENERGY PREDICTED BY IDOCK:  119.51 KCAL/MOL
REMARK 923 INTER-LIGAND FREE ENERGY PREDICTED BY IDOCK:  113.26 KCAL/MOL
REMARK 924 INTRA-LIGAND FREE ENERGY PREDICTED BY IDOCK:    6.25 KCAL/MOL
REMARK 927      BINDING AFFINITY PREDICTED BY RF-SCORE:    0.00 PKD
ROOT
HETATM    1  C   UNL     1      -7.328  17.901  62.724  1.00  0.00    16.495 C  
HETATM    2  C   UNL     1      -7.038  16.873  63.816  1.00  0.00    13.731 C  
ENDROOT
BRANCH   2   3
HETATM    3  C   UNL     1      -8.178  15.951  64.093  1.00  0.00    12.621 A  
HETATM    4  C   UNL     1      -9.086  16.085  65.183  1.00  0.00     1.475 A  
HETATM    5  C   UNL     1      -8.781  13.802  63.788  1.00  0.00     8.222 A  
HETATM    6  N   UNL     1      -9.977  15.071  65.442  1.00  0.00    -0.347 NA 
HETATM    7  N   UNL     1      -8.081  14.856  63.330  1.00  0.00    16.892 NA 
HETATM    8  C   UNL     1      -9.851  13.904  64.696  1.00  0.00     0.270 A  
BRANCH   4   9
HETATM    9  N   UNL     1      -9.031  17.292  65.853  1.00  0.00    -0.531 NA 
HETATM   10  H   UNL     1      -8.959  17.125  66.856  1.00  0.00     0.000 HD 
BRANCH   9  11
HETATM   11  C   UNL     1      -9.041  18.735  65.593  1.00  0.00     0.728 C  
HETATM   12  O   UNL     1     -11.126  20.678  65.864  1.00  0.00     0.658 OA 
HETATM   13  C   UNL     1     -11.326  19.569  64.989  1.00  0.00     1.595 C  
HETATM   14  C   UNL     1      -9.055  19.725  66.746  1.00  0.00    -0.442 C  
HETATM   15  C   UNL     1      -9.987  19.108  64.457  1.00  0.00     4.920 C  
HETATM   16  C   UNL     1     -10.429  20.302  67.051  1.00  0.00    -0.182 C  
ENDBRANCH   9  11
ENDBRANCH   4   9
BRANCH   8  17
HETATM   17  N   UNL     1     -10.847  12.878  64.736  1.00  0.00    -0.310 NA 
HETATM   18  H   UNL     1     -11.732  13.100  64.281  1.00  0.00     0.000 HD 
BRANCH  17  19
HETATM   19  C   UNL     1     -10.763  11.584  65.331  1.00  0.00    -0.278 A  
HETATM   20  C   UNL     1     -10.204  11.429  66.599  1.00  0.00    -0.258 A  
HETATM   21  C   UNL     1      -9.766  10.165  67.049  1.00  0.00    -0.224 A  
HETATM   22  C   UNL     1      -9.830   9.006  66.249  1.00  0.00    -0.291 A  
HETATM   23  C   UNL     1     -10.516   9.141  65.022  1.00  0.00     2.386 A  
HETATM   24  C   UNL     1     -11.010  10.401  64.607  1.00  0.00     0.899 A  
BRANCH  22  25
HETATM   25  N   UNL     1      -9.135   7.869  66.655  1.00  0.00    -0.155 NA 
HETATM   26  C   UNL     1      -9.733   6.533  66.554  1.00  0.00    -0.126 C  
HETATM   27  C   UNL     1      -8.012   7.971  67.586  1.00  0.00    -0.123 C  
HETATM   28  C   UNL     1      -6.922   6.988  67.154  1.00  0.00    -0.078 C  
HETATM   29  C   UNL     1      -8.647   5.541  66.126  1.00  0.00    -0.129 C  
HETATM   30  C   UNL     1      -7.446   5.524  67.105  1.00  0.00    -0.084 C  
BRANCH  30  31
HETATM   31  N   UNL     1      -7.783   4.976  68.449  1.00  0.00    -0.079 NA 
HETATM   32  C   UNL     1      -8.140   6.018  69.444  1.00  0.00    -0.111 C  
HETATM   33  C   UNL     1      -9.528   6.670  69.225  1.00  0.00    -0.141 C  
HETATM   34  N   UNL     1     -10.649   5.710  69.156  1.00  0.00    -0.268 NA 
HETATM   35  C   UNL     1     -10.970   5.176  70.482  1.00  0.00     0.252 C  
HETATM   36  C   UNL     1     -10.307   4.626  68.213  1.00  0.00     0.177 C  
HETATM   37  C   UNL     1      -8.903   4.002  68.426  1.00  0.00    -0.107 C  
ENDBRANCH  30  31
ENDBRANCH  22  25
BRANCH  23  38
HETATM   38  O   UNL     1     -10.711   8.001  64.270  1.00  0.00     7.892 OA 
HETATM   39  C   UNL     1     -11.968   7.353  64.428  1.00  0.00    18.470 C  
ENDBRANCH  23  38
ENDBRANCH  17  19
ENDBRANCH   8  17
BRANCH   5  40
HETATM   40  C   UNL     1      -7.949  12.558  63.674  1.00  0.00     5.364 C  
HETATM   41  H2  UNL     1      -7.850  12.204  65.626  1.00  0.00     0.000 HD 
HETATM   42  N   UNL     1      -7.231  12.259  64.817  1.00  0.00     4.073 N  
HETATM   43  O   UNL     1      -8.009  11.768  62.745  1.00  0.00     0.401 OA 
HETATM   44  H1  UNL     1      -6.665  11.414  64.740  1.00  0.00     0.000 HD 
ENDBRANCH   5  40
ENDBRANCH   2   3
TORSDOF 9
ENDMDL
