MODEL        1
REMARK 921   NORMALIZED FREE ENERGY PREDICTED BY IDOCK:   -8.32 KCAL/MOL
REMARK 922        TOTAL FREE ENERGY PREDICTED BY IDOCK:  -11.53 KCAL/MOL
REMARK 923 INTER-LIGAND FREE ENERGY PREDICTED BY IDOCK:  -10.75 KCAL/MOL
REMARK 924 INTRA-LIGAND FREE ENERGY PREDICTED BY IDOCK:   -0.77 KCAL/MOL
REMARK 927      BINDING AFFINITY PREDICTED BY RF-SCORE:    0.00 PKD
ROOT
HETATM    1  C   UNL     1      -7.872  17.696  67.927  1.00  0.00    -0.221 C  
HETATM    2  N   UNL     1      -9.163  17.295  68.508  1.00  0.00    -0.267 NA 
HETATM    3  C   UNL     1     -10.280  17.876  67.743  1.00  0.00    -0.368 C  
HETATM    4  C   UNL     1     -10.519  17.249  66.374  1.00  0.00    -0.263 C  
HETATM    5  C   UNL     1     -10.600  15.718  66.445  1.00  0.00    -0.307 C  
HETATM    6  C   UNL     1      -9.422  15.130  67.235  1.00  0.00    -0.214 C  
HETATM    7  C   UNL     1      -9.262  15.815  68.601  1.00  0.00    -0.207 C  
ENDROOT
BRANCH   5   8
HETATM    8  N   UNL     1     -10.734  15.130  65.111  1.00  0.00    -0.392 N  
HETATM    9  H   UNL     1      -9.913  14.746  64.643  1.00  0.00     0.000 HD 
BRANCH   8  10
HETATM   10  C   UNL     1     -11.954  15.091  64.483  1.00  0.00    -0.371 C  
HETATM   11  O   UNL     1     -12.360  15.982  63.745  1.00  0.00    -0.858 OA 
BRANCH  10  12
HETATM   12  N   UNL     1     -12.697  13.988  64.862  1.00  0.00    -0.689 N  
HETATM   13  H   UNL     1     -13.696  14.061  65.058  1.00  0.00     0.000 HD 
BRANCH  12  14
HETATM   14  C   UNL     1     -12.015  12.757  64.965  1.00  0.00    -0.412 A  
HETATM   15  C   UNL     1     -10.292  10.579  65.184  1.00  0.00    -0.310 A  
HETATM   16  C   UNL     1      -9.326   9.527  65.301  1.00  0.00    -0.253 C  
HETATM   17  N   UNL     1      -8.538   8.682  65.394  1.00  0.00    -0.174 NA 
HETATM   18  C   UNL     1     -11.541  12.140  63.808  1.00  0.00    -0.557 A  
HETATM   19  C   UNL     1     -10.839  11.148  66.336  1.00  0.00    -0.284 A  
HETATM   20  C   UNL     1     -11.701  12.235  66.225  1.00  0.00    -0.431 A  
HETATM   21  C   UNL     1     -10.657  11.065  63.922  1.00  0.00    -0.382 A  
ENDBRANCH  12  14
ENDBRANCH  10  12
ENDBRANCH   8  10
ENDBRANCH   5   8
BRANCH   7  22
HETATM   22  C   UNL     1     -10.367  15.377  69.534  1.00  0.00    -0.266 A  
HETATM   23  N   UNL     1     -10.885  14.167  69.628  1.00  0.00    -0.450 NA 
HETATM   24  N   UNL     1     -10.971  16.236  70.422  1.00  0.00    -0.317 NA 
HETATM   25  C   UNL     1     -11.848  14.250  70.597  1.00  0.00    -0.281 A  
HETATM   26  H   UNL     1     -10.622  13.341  69.091  1.00  0.00     0.000 HD 
HETATM   27  C   UNL     1     -11.934  15.541  71.107  1.00  0.00    -0.382 A  
HETATM   28  C   UNL     1     -12.697  13.252  71.094  1.00  0.00    -0.404 A  
HETATM   29  C   UNL     1     -12.844  15.910  72.099  1.00  0.00    -0.491 A  
HETATM   30  C   UNL     1     -13.682  14.899  72.587  1.00  0.00    -0.552 A  
HETATM   31  C   UNL     1     -13.611  13.592  72.097  1.00  0.00    -0.651 A  
ENDBRANCH   7  22
TORSDOF 5
ENDMDL
MODEL        2
REMARK 921   NORMALIZED FREE ENERGY PREDICTED BY IDOCK:   -8.10 KCAL/MOL
REMARK 922        TOTAL FREE ENERGY PREDICTED BY IDOCK:  -11.24 KCAL/MOL
REMARK 923 INTER-LIGAND FREE ENERGY PREDICTED BY IDOCK:  -10.73 KCAL/MOL
REMARK 924 INTRA-LIGAND FREE ENERGY PREDICTED BY IDOCK:   -0.51 KCAL/MOL
REMARK 927      BINDING AFFINITY PREDICTED BY RF-SCORE:    0.00 PKD
ROOT
HETATM    1  C   UNL     1     -10.952  12.970  64.075  1.00  0.00    -0.389 C  
HETATM    2  N   UNL     1     -11.187  14.150  64.922  1.00  0.00    -0.355 NA 
HETATM    3  C   UNL     1     -12.362  13.945  65.786  1.00  0.00    -0.486 C  
HETATM    4  C   UNL     1     -12.155  12.964  66.934  1.00  0.00    -0.313 C  
HETATM    5  C   UNL     1     -10.888  13.279  67.742  1.00  0.00    -0.252 C  
HETATM    6  C   UNL     1      -9.672  13.477  66.827  1.00  0.00    -0.271 C  
HETATM    7  C   UNL     1      -9.970  14.486  65.706  1.00  0.00    -0.334 C  
ENDROOT
BRANCH   5   8
HETATM    8  N   UNL     1     -10.654  12.271  68.779  1.00  0.00    -0.320 N  
HETATM    9  H   UNL     1      -9.745  11.816  68.845  1.00  0.00     0.000 HD 
BRANCH   8  10
HETATM   10  C   UNL     1     -11.649  11.934  69.663  1.00  0.00    -0.317 C  
HETATM   11  O   UNL     1     -12.164  12.735  70.435  1.00  0.00    -0.350 OA 
BRANCH  10  12
HETATM   12  N   UNL     1     -11.922  10.578  69.644  1.00  0.00    -0.459 N  
HETATM   13  H   UNL     1     -12.383  10.138  68.846  1.00  0.00     0.000 HD 
BRANCH  12  14
HETATM   14  C   UNL     1     -11.535   9.827  70.774  1.00  0.00    -0.342 A  
HETATM   15  C   UNL     1     -10.808   7.984  72.734  1.00  0.00    -0.438 A  
HETATM   16  C   UNL     1     -10.444   6.962  73.668  1.00  0.00    -0.369 C  
HETATM   17  N   UNL     1     -10.152   6.129  74.419  1.00  0.00    -0.305 NA 
HETATM   18  C   UNL     1     -12.517   9.283  71.601  1.00  0.00    -0.448 A  
HETATM   19  C   UNL     1      -9.821   8.598  71.958  1.00  0.00    -0.396 A  
HETATM   20  C   UNL     1     -10.186   9.520  70.982  1.00  0.00    -0.332 A  
HETATM   21  C   UNL     1     -12.152   8.341  72.565  1.00  0.00    -0.400 A  
ENDBRANCH  12  14
ENDBRANCH  10  12
ENDBRANCH   8  10
ENDBRANCH   5   8
BRANCH   7  22
HETATM   22  C   UNL     1     -10.027  15.887  66.271  1.00  0.00    -0.298 A  
HETATM   23  N   UNL     1      -9.901  16.231  67.538  1.00  0.00    -0.236 NA 
HETATM   24  N   UNL     1     -10.220  16.996  65.482  1.00  0.00    -0.617 NA 
HETATM   25  C   UNL     1     -10.022  17.594  67.567  1.00  0.00    -0.322 A  
HETATM   26  H   UNL     1      -9.746  15.610  68.333  1.00  0.00     0.000 HD 
HETATM   27  C   UNL     1     -10.235  18.103  66.290  1.00  0.00    -0.395 A  
HETATM   28  C   UNL     1      -9.962  18.469  68.660  1.00  0.00    -0.419 A  
HETATM   29  C   UNL     1     -10.407  19.464  66.032  1.00  0.00    -0.584 A  
HETATM   30  C   UNL     1     -10.339  20.324  67.135  1.00  0.00    -0.419 A  
HETATM   31  C   UNL     1     -10.119  19.839  68.427  1.00  0.00    -0.568 A  
ENDBRANCH   7  22
TORSDOF 5
ENDMDL
MODEL        3
REMARK 921   NORMALIZED FREE ENERGY PREDICTED BY IDOCK:   -8.10 KCAL/MOL
REMARK 922        TOTAL FREE ENERGY PREDICTED BY IDOCK:  -11.24 KCAL/MOL
REMARK 923 INTER-LIGAND FREE ENERGY PREDICTED BY IDOCK:  -10.20 KCAL/MOL
REMARK 924 INTRA-LIGAND FREE ENERGY PREDICTED BY IDOCK:   -1.03 KCAL/MOL
REMARK 927      BINDING AFFINITY PREDICTED BY RF-SCORE:    0.00 PKD
ROOT
HETATM    1  C   UNL     1     -10.556  15.207  65.136  1.00  0.00    -0.424 C  
HETATM    2  N   UNL     1     -11.443  14.834  66.249  1.00  0.00    -0.342 NA 
HETATM    3  C   UNL     1     -12.447  13.851  65.808  1.00  0.00    -0.495 C  
HETATM    4  C   UNL     1     -11.907  12.447  65.556  1.00  0.00    -0.469 C  
HETATM    5  C   UNL     1     -11.069  11.931  66.734  1.00  0.00    -0.308 C  
HETATM    6  C   UNL     1     -10.021  12.964  67.173  1.00  0.00    -0.240 C  
HETATM    7  C   UNL     1     -10.655  14.343  67.410  1.00  0.00    -0.270 C  
ENDROOT
BRANCH   5   8
HETATM    8  N   UNL     1     -10.481  10.623  66.436  1.00  0.00    -0.235 N  
HETATM    9  H   UNL     1      -9.864  10.519  65.631  1.00  0.00     0.000 HD 
BRANCH   8  10
HETATM   10  C   UNL     1     -10.753   9.537  67.230  1.00  0.00    -0.199 C  
HETATM   11  O   UNL     1     -10.467   8.386  66.917  1.00  0.00    -0.317 OA 
BRANCH  10  12
HETATM   12  N   UNL     1     -11.468   9.887  68.361  1.00  0.00    -0.519 N  
HETATM   13  H   UNL     1     -12.397  10.304  68.296  1.00  0.00     0.000 HD 
BRANCH  12  14
HETATM   14  C   UNL     1     -10.857   9.642  69.609  1.00  0.00    -0.244 A  
HETATM   15  C   UNL     1      -9.685   8.719  71.963  1.00  0.00    -0.370 A  
HETATM   16  C   UNL     1      -9.093   8.148  73.135  1.00  0.00    -0.265 C  
HETATM   17  N   UNL     1      -8.616   7.677  74.081  1.00  0.00    -0.236 NA 
HETATM   18  C   UNL     1     -11.658   9.401  70.725  1.00  0.00    -0.364 A  
HETATM   19  C   UNL     1      -8.880   9.044  70.868  1.00  0.00    -0.294 A  
HETATM   20  C   UNL     1      -9.467   9.507  69.694  1.00  0.00    -0.213 A  
HETATM   21  C   UNL     1     -11.070   8.915  71.895  1.00  0.00    -0.442 A  
ENDBRANCH  12  14
ENDBRANCH  10  12
ENDBRANCH   8  10
ENDBRANCH   5   8
BRANCH   7  22
HETATM   22  C   UNL     1     -11.468  14.329  68.684  1.00  0.00    -0.296 A  
HETATM   23  N   UNL     1     -12.136  15.342  69.203  1.00  0.00    -0.550 NA 
HETATM   24  N   UNL     1     -11.601  13.206  69.465  1.00  0.00    -0.292 NA 
HETATM   25  C   UNL     1     -12.709  14.860  70.348  1.00  0.00    -0.321 A  
HETATM   26  H   UNL     1     -12.210  16.288  68.828  1.00  0.00     0.000 HD 
HETATM   27  C   UNL     1     -12.382  13.523  70.546  1.00  0.00    -0.342 A  
HETATM   28  C   UNL     1     -13.527  15.517  71.277  1.00  0.00    -0.560 A  
HETATM   29  C   UNL     1     -12.822  12.786  71.647  1.00  0.00    -0.363 A  
HETATM   30  C   UNL     1     -13.642  13.457  72.563  1.00  0.00    -0.659 A  
HETATM   31  C   UNL     1     -13.992  14.798  72.384  1.00  0.00    -0.575 A  
ENDBRANCH   7  22
TORSDOF 5
ENDMDL
MODEL        4
REMARK 921   NORMALIZED FREE ENERGY PREDICTED BY IDOCK:   -7.98 KCAL/MOL
REMARK 922        TOTAL FREE ENERGY PREDICTED BY IDOCK:  -11.09 KCAL/MOL
REMARK 923 INTER-LIGAND FREE ENERGY PREDICTED BY IDOCK:   -9.52 KCAL/MOL
REMARK 924 INTRA-LIGAND FREE ENERGY PREDICTED BY IDOCK:   -1.57 KCAL/MOL
REMARK 927      BINDING AFFINITY PREDICTED BY RF-SCORE:    0.00 PKD
ROOT
HETATM    1  C   UNL     1      -8.331  18.384  68.244  1.00  0.00    -0.303 C  
HETATM    2  N   UNL     1      -9.560  17.682  68.643  1.00  0.00    -0.304 NA 
HETATM    3  C   UNL     1     -10.587  17.791  67.593  1.00  0.00    -0.379 C  
HETATM    4  C   UNL     1     -10.324  16.956  66.344  1.00  0.00    -0.302 C  
HETATM    5  C   UNL     1      -9.996  15.496  66.684  1.00  0.00    -0.261 C  
HETATM    6  C   UNL     1      -8.916  15.401  67.771  1.00  0.00    -0.173 C  
HETATM    7  C   UNL     1      -9.268  16.266  68.991  1.00  0.00    -0.253 C  
ENDROOT
BRANCH   5   8
HETATM    8  N   UNL     1      -9.653  14.734  65.481  1.00  0.00    -0.498 N  
HETATM    9  H   UNL     1      -8.790  14.942  64.980  1.00  0.00     0.000 HD 
BRANCH   8  10
HETATM   10  C   UNL     1     -10.484  13.742  65.021  1.00  0.00    -0.402 C  
HETATM   11  O   UNL     1     -11.567  13.963  64.491  1.00  0.00    -0.368 OA 
BRANCH  10  12
HETATM   12  N   UNL     1     -10.000  12.481  65.318  1.00  0.00    -0.392 N  
HETATM   13  H   UNL     1      -9.549  11.903  64.608  1.00  0.00     0.000 HD 
BRANCH  12  14
HETATM   14  C   UNL     1     -10.155  12.028  66.646  1.00  0.00    -0.198 A  
HETATM   15  C   UNL     1     -10.445  10.717  69.087  1.00  0.00    -0.243 A  
HETATM   16  C   UNL     1     -10.586   9.953  70.290  1.00  0.00    -0.301 C  
HETATM   17  N   UNL     1     -10.702   9.327  71.259  1.00  0.00    -0.326 NA 
HETATM   18  C   UNL     1     -11.434  11.753  67.127  1.00  0.00    -0.366 A  
HETATM   19  C   UNL     1      -9.171  11.073  68.639  1.00  0.00    -0.186 A  
HETATM   20  C   UNL     1      -9.029  11.730  67.420  1.00  0.00    -0.173 A  
HETATM   21  C   UNL     1     -11.575  11.073  68.339  1.00  0.00    -0.372 A  
ENDBRANCH  12  14
ENDBRANCH  10  12
ENDBRANCH   8  10
ENDBRANCH   5   8
BRANCH   7  22
HETATM   22  C   UNL     1     -10.394  15.629  69.772  1.00  0.00    -0.305 A  
HETATM   23  N   UNL     1     -10.724  14.352  69.778  1.00  0.00    -0.453 NA 
HETATM   24  N   UNL     1     -11.226  16.350  70.595  1.00  0.00    -0.301 NA 
HETATM   25  C   UNL     1     -11.797  14.249  70.622  1.00  0.00    -0.281 A  
HETATM   26  H   UNL     1     -10.273  13.596  69.261  1.00  0.00     0.000 HD 
HETATM   27  C   UNL     1     -12.143  15.491  71.142  1.00  0.00    -0.380 A  
HETATM   28  C   UNL     1     -12.532  13.115  70.991  1.00  0.00    -0.406 A  
HETATM   29  C   UNL     1     -13.211  15.678  72.021  1.00  0.00    -0.541 A  
HETATM   30  C   UNL     1     -13.933  14.533  72.382  1.00  0.00    -0.580 A  
HETATM   31  C   UNL     1     -13.601  13.272  71.879  1.00  0.00    -0.473 A  
ENDBRANCH   7  22
TORSDOF 5
ENDMDL
MODEL        5
REMARK 921   NORMALIZED FREE ENERGY PREDICTED BY IDOCK:   -7.95 KCAL/MOL
REMARK 922        TOTAL FREE ENERGY PREDICTED BY IDOCK:  -11.05 KCAL/MOL
REMARK 923 INTER-LIGAND FREE ENERGY PREDICTED BY IDOCK:  -10.42 KCAL/MOL
REMARK 924 INTRA-LIGAND FREE ENERGY PREDICTED BY IDOCK:   -0.63 KCAL/MOL
REMARK 927      BINDING AFFINITY PREDICTED BY RF-SCORE:    0.00 PKD
ROOT
HETATM    1  C   UNL     1      -7.306  17.660  66.991  1.00  0.00    -0.191 C  
HETATM    2  N   UNL     1      -7.978  16.374  66.750  1.00  0.00    -0.230 NA 
HETATM    3  C   UNL     1      -7.938  15.530  67.956  1.00  0.00    -0.133 C  
HETATM    4  C   UNL     1      -8.855  15.979  69.088  1.00  0.00    -0.245 C  
HETATM    5  C   UNL     1     -10.290  16.229  68.604  1.00  0.00    -0.263 C  
HETATM    6  C   UNL     1     -10.314  17.120  67.354  1.00  0.00    -0.333 C  
HETATM    7  C   UNL     1      -9.367  16.587  66.266  1.00  0.00    -0.302 C  
ENDROOT
BRANCH   5   8
HETATM    8  N   UNL     1     -11.131  16.751  69.684  1.00  0.00    -0.359 N  
HETATM    9  H   UNL     1     -11.333  17.749  69.730  1.00  0.00     0.000 HD 
BRANCH   8  10
HETATM   10  C   UNL     1     -11.651  15.908  70.634  1.00  0.00    -0.400 C  
HETATM   11  O   UNL     1     -11.305  15.923  71.811  1.00  0.00    -0.368 OA 
BRANCH  10  12
HETATM   12  N   UNL     1     -12.526  14.986  70.088  1.00  0.00    -0.479 N  
HETATM   13  H   UNL     1     -13.148  15.234  69.317  1.00  0.00     0.000 HD 
BRANCH  12  14
HETATM   14  C   UNL     1     -12.523  13.688  70.641  1.00  0.00    -0.347 A  
HETATM   15  C   UNL     1     -12.875  11.050  71.467  1.00  0.00    -0.555 A  
HETATM   16  C   UNL     1     -13.136   9.689  71.824  1.00  0.00    -0.421 C  
HETATM   17  N   UNL     1     -13.355   8.587  72.109  1.00  0.00    -0.354 NA 
HETATM   18  C   UNL     1     -13.315  13.420  71.757  1.00  0.00    -0.479 A  
HETATM   19  C   UNL     1     -12.015  11.335  70.403  1.00  0.00    -0.471 A  
HETATM   20  C   UNL     1     -11.839  12.654  69.994  1.00  0.00    -0.358 A  
HETATM   21  C   UNL     1     -13.510  12.095  72.152  1.00  0.00    -0.383 A  
ENDBRANCH  12  14
ENDBRANCH  10  12
ENDBRANCH   8  10
ENDBRANCH   5   8
BRANCH   7  22
HETATM   22  C   UNL     1      -9.948  15.343  65.637  1.00  0.00    -0.362 A  
HETATM   23  N   UNL     1      -9.439  14.126  65.680  1.00  0.00    -0.527 NA 
HETATM   24  N   UNL     1     -11.124  15.352  64.924  1.00  0.00    -0.425 NA 
HETATM   25  C   UNL     1     -10.304  13.336  64.974  1.00  0.00    -0.340 A  
HETATM   26  H   UNL     1      -8.578  13.835  66.144  1.00  0.00     0.000 HD 
HETATM   27  C   UNL     1     -11.368  14.080  64.477  1.00  0.00    -0.358 A  
HETATM   28  C   UNL     1     -10.241  11.960  64.714  1.00  0.00    -0.314 A  
HETATM   29  C   UNL     1     -12.392  13.525  63.707  1.00  0.00    -0.392 A  
HETATM   30  C   UNL     1     -12.315  12.148  63.461  1.00  0.00    -0.682 A  
HETATM   31  C   UNL     1     -11.260  11.376  63.955  1.00  0.00    -0.350 A  
ENDBRANCH   7  22
TORSDOF 5
ENDMDL
MODEL        6
REMARK 921   NORMALIZED FREE ENERGY PREDICTED BY IDOCK:   -7.83 KCAL/MOL
REMARK 922        TOTAL FREE ENERGY PREDICTED BY IDOCK:  -10.89 KCAL/MOL
REMARK 923 INTER-LIGAND FREE ENERGY PREDICTED BY IDOCK:  -10.14 KCAL/MOL
REMARK 924 INTRA-LIGAND FREE ENERGY PREDICTED BY IDOCK:   -0.75 KCAL/MOL
REMARK 927      BINDING AFFINITY PREDICTED BY RF-SCORE:    0.00 PKD
ROOT
HETATM    1  C   UNL     1      -9.782  10.326  66.770  1.00  0.00    -0.185 C  
HETATM    2  N   UNL     1     -10.080  11.393  67.738  1.00  0.00    -0.178 NA 
HETATM    3  C   UNL     1      -9.103  12.489  67.623  1.00  0.00    -0.187 C  
HETATM    4  C   UNL     1      -9.249  13.357  66.378  1.00  0.00    -0.131 C  
HETATM    5  C   UNL     1     -10.691  13.844  66.180  1.00  0.00    -0.283 C  
HETATM    6  C   UNL     1     -11.695  12.688  66.291  1.00  0.00    -0.460 C  
HETATM    7  C   UNL     1     -11.477  11.875  67.577  1.00  0.00    -0.326 C  
ENDROOT
BRANCH   5   8
HETATM    8  N   UNL     1     -10.832  14.594  64.930  1.00  0.00    -0.445 N  
HETATM    9  H   UNL     1     -10.585  14.152  64.045  1.00  0.00     0.000 HD 
BRANCH   8  10
HETATM   10  C   UNL     1     -11.293  15.887  64.939  1.00  0.00    -0.256 C  
HETATM   11  O   UNL     1     -11.802  16.428  63.963  1.00  0.00    -1.003 OA 
BRANCH  10  12
HETATM   12  N   UNL     1     -11.023  16.526  66.136  1.00  0.00    -0.019 N  
HETATM   13  H   UNL     1     -11.508  16.269  66.997  1.00  0.00     0.000 HD 
BRANCH  12  14
HETATM   14  C   UNL     1     -10.049  17.546  66.117  1.00  0.00    -0.310 A  
HETATM   15  C   UNL     1      -8.152  19.545  66.530  1.00  0.00    -0.325 A  
HETATM   16  C   UNL     1      -7.190  20.557  66.846  1.00  0.00    -0.290 C  
HETATM   17  N   UNL     1      -6.414  21.377  67.110  1.00  0.00    -0.562 NA 
HETATM   18  C   UNL     1     -10.456  18.879  66.156  1.00  0.00    -0.521 A  
HETATM   19  C   UNL     1      -7.742  18.215  66.404  1.00  0.00    -0.295 A  
HETATM   20  C   UNL     1      -8.691  17.219  66.195  1.00  0.00    -0.198 A  
HETATM   21  C   UNL     1      -9.506  19.876  66.389  1.00  0.00    -0.513 A  
ENDBRANCH  12  14
ENDBRANCH  10  12
ENDBRANCH   8  10
ENDBRANCH   5   8
BRANCH   7  22
HETATM   22  C   UNL     1     -11.948  12.664  68.776  1.00  0.00    -0.237 A  
HETATM   23  N   UNL     1     -12.118  13.971  68.841  1.00  0.00    -0.457 NA 
HETATM   24  N   UNL     1     -12.264  12.072  69.976  1.00  0.00    -0.245 NA 
HETATM   25  C   UNL     1     -12.549  14.227  70.115  1.00  0.00    -0.282 A  
HETATM   26  H   UNL     1     -11.962  14.651  68.097  1.00  0.00     0.000 HD 
HETATM   27  C   UNL     1     -12.640  13.053  70.856  1.00  0.00    -0.280 A  
HETATM   28  C   UNL     1     -12.883  15.450  70.712  1.00  0.00    -0.524 A  
HETATM   29  C   UNL     1     -13.042  13.026  72.192  1.00  0.00    -0.465 A  
HETATM   30  C   UNL     1     -13.376  14.256  72.772  1.00  0.00    -0.621 A  
HETATM   31  C   UNL     1     -13.300  15.449  72.047  1.00  0.00    -0.545 A  
ENDBRANCH   7  22
TORSDOF 5
ENDMDL
MODEL        7
REMARK 921   NORMALIZED FREE ENERGY PREDICTED BY IDOCK:   -7.80 KCAL/MOL
REMARK 922        TOTAL FREE ENERGY PREDICTED BY IDOCK:  -10.85 KCAL/MOL
REMARK 923 INTER-LIGAND FREE ENERGY PREDICTED BY IDOCK:  -10.32 KCAL/MOL
REMARK 924 INTRA-LIGAND FREE ENERGY PREDICTED BY IDOCK:   -0.53 KCAL/MOL
REMARK 927      BINDING AFFINITY PREDICTED BY RF-SCORE:    0.00 PKD
ROOT
HETATM    1  C   UNL     1     -10.368  12.800  63.980  1.00  0.00    -0.368 C  
HETATM    2  N   UNL     1     -10.730  14.100  64.565  1.00  0.00    -0.375 NA 
HETATM    3  C   UNL     1     -12.173  14.157  64.855  1.00  0.00    -0.438 C  
HETATM    4  C   UNL     1     -12.626  13.316  66.043  1.00  0.00    -0.279 C  
HETATM    5  C   UNL     1     -11.773  13.574  67.293  1.00  0.00    -0.383 C  
HETATM    6  C   UNL     1     -10.273  13.499  66.975  1.00  0.00    -0.249 C  
HETATM    7  C   UNL     1      -9.908  14.382  65.771  1.00  0.00    -0.302 C  
ENDROOT
BRANCH   5   8
HETATM    8  N   UNL     1     -12.161  12.689  68.394  1.00  0.00    -0.198 N  
HETATM    9  H   UNL     1     -12.897  12.977  69.038  1.00  0.00     0.000 HD 
BRANCH   8  10
HETATM   10  C   UNL     1     -11.542  11.476  68.566  1.00  0.00    -0.313 C  
HETATM   11  O   UNL     1     -11.707  10.522  67.813  1.00  0.00    -0.438 OA 
BRANCH  10  12
HETATM   12  N   UNL     1     -10.800  11.433  69.733  1.00  0.00    -0.460 N  
HETATM   13  H   UNL     1     -10.285  12.248  70.067  1.00  0.00     0.000 HD 
BRANCH  12  14
HETATM   14  C   UNL     1     -10.787  10.214  70.444  1.00  0.00    -0.301 A  
HETATM   15  C   UNL     1     -10.663   8.061  72.208  1.00  0.00    -0.360 A  
HETATM   16  C   UNL     1     -10.580   7.024  73.192  1.00  0.00    -0.318 C  
HETATM   17  N   UNL     1     -10.509   6.190  73.994  1.00  0.00    -0.285 NA 
HETATM   18  C   UNL     1      -9.581   9.536  70.613  1.00  0.00    -0.292 A  
HETATM   19  C   UNL     1     -11.887   8.692  71.968  1.00  0.00    -0.443 A  
HETATM   20  C   UNL     1     -11.947   9.766  71.085  1.00  0.00    -0.463 A  
HETATM   21  C   UNL     1      -9.517   8.473  71.518  1.00  0.00    -0.290 A  
ENDBRANCH  12  14
ENDBRANCH  10  12
ENDBRANCH   8  10
ENDBRANCH   5   8
BRANCH   7  22
HETATM   22  C   UNL     1      -9.957  15.841  66.164  1.00  0.00    -0.311 A  
HETATM   23  N   UNL     1     -10.322  16.851  65.398  1.00  0.00    -0.638 NA 
HETATM   24  N   UNL     1      -9.612  16.282  67.419  1.00  0.00    -0.229 NA 
HETATM   25  C   UNL     1     -10.204  17.970  66.177  1.00  0.00    -0.363 A  
HETATM   26  H   UNL     1     -10.628  16.808  64.425  1.00  0.00     0.000 HD 
HETATM   27  C   UNL     1      -9.749  17.645  67.450  1.00  0.00    -0.283 A  
HETATM   28  C   UNL     1     -10.470  19.308  65.857  1.00  0.00    -0.534 A  
HETATM   29  C   UNL     1      -9.526  18.598  68.446  1.00  0.00    -0.377 A  
HETATM   30  C   UNL     1      -9.801  19.930  68.110  1.00  0.00    -0.524 A  
HETATM   31  C   UNL     1     -10.266  20.282  66.840  1.00  0.00    -0.504 A  
ENDBRANCH   7  22
TORSDOF 5
ENDMDL
MODEL        8
REMARK 921   NORMALIZED FREE ENERGY PREDICTED BY IDOCK:   -7.75 KCAL/MOL
REMARK 922        TOTAL FREE ENERGY PREDICTED BY IDOCK:  -10.79 KCAL/MOL
REMARK 923 INTER-LIGAND FREE ENERGY PREDICTED BY IDOCK:  -10.00 KCAL/MOL
REMARK 924 INTRA-LIGAND FREE ENERGY PREDICTED BY IDOCK:   -0.79 KCAL/MOL
REMARK 927      BINDING AFFINITY PREDICTED BY RF-SCORE:    0.00 PKD
ROOT
HETATM    1  C   UNL     1      -7.550  17.120  66.897  1.00  0.00    -0.205 C  
HETATM    2  N   UNL     1      -8.769  16.936  67.700  1.00  0.00    -0.208 NA 
HETATM    3  C   UNL     1      -9.878  17.739  67.156  1.00  0.00    -0.311 C  
HETATM    4  C   UNL     1     -10.468  17.222  65.849  1.00  0.00    -0.267 C  
HETATM    5  C   UNL     1     -10.816  15.729  65.923  1.00  0.00    -0.268 C  
HETATM    6  C   UNL     1      -9.647  14.906  66.480  1.00  0.00    -0.297 C  
HETATM    7  C   UNL     1      -9.122  15.496  67.799  1.00  0.00    -0.178 C  
ENDROOT
BRANCH   5   8
HETATM    8  N   UNL     1     -11.292  15.229  64.631  1.00  0.00    -0.600 N  
HETATM    9  H   UNL     1     -10.940  15.644  63.768  1.00  0.00     0.000 HD 
BRANCH   8  10
HETATM   10  C   UNL     1     -12.207  14.208  64.570  1.00  0.00    -0.445 C  
HETATM   11  O   UNL     1     -13.198  14.148  65.289  1.00  0.00    -0.760 OA 
BRANCH  10  12
HETATM   12  N   UNL     1     -11.823  13.220  63.680  1.00  0.00    -0.663 N  
HETATM   13  H   UNL     1     -12.152  13.217  62.714  1.00  0.00     0.000 HD 
BRANCH  12  14
HETATM   14  C   UNL     1     -10.958  12.217  64.166  1.00  0.00    -0.363 A  
HETATM   15  C   UNL     1      -9.584   9.948  65.020  1.00  0.00    -0.364 A  
HETATM   16  C   UNL     1      -8.960   8.725  65.427  1.00  0.00    -0.160 C  
HETATM   17  N   UNL     1      -8.463   7.731  65.756  1.00  0.00    -0.140 NA 
HETATM   18  C   UNL     1     -11.059  11.816  65.498  1.00  0.00    -0.336 A  
HETATM   19  C   UNL     1      -9.421  10.406  63.710  1.00  0.00    -0.353 A  
HETATM   20  C   UNL     1     -10.106  11.541  63.286  1.00  0.00    -0.439 A  
HETATM   21  C   UNL     1     -10.389  10.663  65.915  1.00  0.00    -0.291 A  
ENDBRANCH  12  14
ENDBRANCH  10  12
ENDBRANCH   8  10
ENDBRANCH   5   8
BRANCH   7  22
HETATM   22  C   UNL     1     -10.106  15.227  68.915  1.00  0.00    -0.225 A  
HETATM   23  N   UNL     1     -10.789  14.115  69.112  1.00  0.00    -0.306 NA 
HETATM   24  N   UNL     1     -10.399  16.156  69.884  1.00  0.00    -0.248 NA 
HETATM   25  C   UNL     1     -11.544  14.337  70.232  1.00  0.00    -0.224 A  
HETATM   26  H   UNL     1     -10.761  13.266  68.547  1.00  0.00     0.000 HD 
HETATM   27  C   UNL     1     -11.329  15.616  70.734  1.00  0.00    -0.371 A  
HETATM   28  C   UNL     1     -12.445  13.481  70.880  1.00  0.00    -0.448 A  
HETATM   29  C   UNL     1     -11.982  16.110  71.864  1.00  0.00    -0.583 A  
HETATM   30  C   UNL     1     -12.875  15.241  72.502  1.00  0.00    -0.465 A  
HETATM   31  C   UNL     1     -13.104  13.948  72.022  1.00  0.00    -0.480 A  
ENDBRANCH   7  22
TORSDOF 5
ENDMDL
MODEL        9
REMARK 921   NORMALIZED FREE ENERGY PREDICTED BY IDOCK:   -7.63 KCAL/MOL
REMARK 922        TOTAL FREE ENERGY PREDICTED BY IDOCK:  -10.64 KCAL/MOL
REMARK 923 INTER-LIGAND FREE ENERGY PREDICTED BY IDOCK:   -9.51 KCAL/MOL
REMARK 924 INTRA-LIGAND FREE ENERGY PREDICTED BY IDOCK:   -1.12 KCAL/MOL
REMARK 927      BINDING AFFINITY PREDICTED BY RF-SCORE:    0.00 PKD
ROOT
HETATM    1  C   UNL     1     -11.691   7.328  71.052  1.00  0.00    -0.307 C  
HETATM    2  N   UNL     1     -11.614   8.755  71.399  1.00  0.00    -0.280 NA 
HETATM    3  C   UNL     1     -10.310   9.074  72.006  1.00  0.00    -0.217 C  
HETATM    4  C   UNL     1      -9.133   9.082  71.037  1.00  0.00    -0.322 C  
HETATM    5  C   UNL     1      -9.415   9.932  69.791  1.00  0.00    -0.226 C  
HETATM    6  C   UNL     1     -10.772   9.578  69.166  1.00  0.00    -0.228 C  
HETATM    7  C   UNL     1     -11.897   9.603  70.212  1.00  0.00    -0.099 C  
ENDROOT
BRANCH   5   8
HETATM    8  N   UNL     1      -8.313   9.849  68.830  1.00  0.00    -0.117 N  
HETATM    9  H   UNL     1      -7.733   9.012  68.797  1.00  0.00     0.000 HD 
BRANCH   8  10
HETATM   10  C   UNL     1      -8.053  10.890  67.974  1.00  0.00    -0.119 C  
HETATM   11  O   UNL     1      -7.241  10.821  67.057  1.00  0.00    -0.098 OA 
BRANCH  10  12
HETATM   12  N   UNL     1      -8.735  12.039  68.331  1.00  0.00    -0.242 N  
HETATM   13  H   UNL     1      -8.905  12.275  69.309  1.00  0.00     0.000 HD 
BRANCH  12  14
HETATM   14  C   UNL     1      -9.187  12.871  67.284  1.00  0.00    -0.208 A  
HETATM   15  C   UNL     1     -10.352  14.697  65.532  1.00  0.00    -0.383 A  
HETATM   16  C   UNL     1     -11.006  15.672  64.712  1.00  0.00    -0.400 C  
HETATM   17  N   UNL     1     -11.542  16.463  64.055  1.00  0.00    -1.082 NA 
HETATM   18  C   UNL     1     -10.312  12.495  66.551  1.00  0.00    -0.254 A  
HETATM   19  C   UNL     1      -9.176  15.036  66.205  1.00  0.00    -0.324 A  
HETATM   20  C   UNL     1      -8.595  14.121  67.079  1.00  0.00    -0.204 A  
HETATM   21  C   UNL     1     -10.908  13.422  65.693  1.00  0.00    -0.292 A  
ENDBRANCH  12  14
ENDBRANCH  10  12
ENDBRANCH   8  10
ENDBRANCH   5   8
BRANCH   7  22
HETATM   22  C   UNL     1     -12.219  11.029  70.594  1.00  0.00    -0.385 A  
HETATM   23  N   UNL     1     -11.733  12.122  70.038  1.00  0.00    -0.490 NA 
HETATM   24  N   UNL     1     -13.094  11.345  71.606  1.00  0.00    -0.450 NA 
HETATM   25  C   UNL     1     -12.305  13.167  70.712  1.00  0.00    -0.321 A  
HETATM   26  H   UNL     1     -11.069  12.178  69.266  1.00  0.00     0.000 HD 
HETATM   27  C   UNL     1     -13.157  12.710  71.711  1.00  0.00    -0.360 A  
HETATM   28  C   UNL     1     -12.139  14.546  70.522  1.00  0.00    -0.395 A  
HETATM   29  C   UNL     1     -13.862  13.564  72.561  1.00  0.00    -0.624 A  
HETATM   30  C   UNL     1     -13.687  14.939  72.354  1.00  0.00    -0.576 A  
HETATM   31  C   UNL     1     -12.842  15.424  71.352  1.00  0.00    -0.508 A  
ENDBRANCH   7  22
TORSDOF 5
ENDMDL
MODEL       10
REMARK 921   NORMALIZED FREE ENERGY PREDICTED BY IDOCK:   -7.56 KCAL/MOL
REMARK 922        TOTAL FREE ENERGY PREDICTED BY IDOCK:  -10.54 KCAL/MOL
REMARK 923 INTER-LIGAND FREE ENERGY PREDICTED BY IDOCK:   -9.83 KCAL/MOL
REMARK 924 INTRA-LIGAND FREE ENERGY PREDICTED BY IDOCK:   -0.72 KCAL/MOL
REMARK 927      BINDING AFFINITY PREDICTED BY RF-SCORE:    0.00 PKD
ROOT
HETATM    1  C   UNL     1     -12.107  13.357  63.206  1.00  0.00    -0.262 C  
HETATM    2  N   UNL     1     -12.016  14.246  64.375  1.00  0.00    -0.456 NA 
HETATM    3  C   UNL     1     -12.881  13.764  65.465  1.00  0.00    -0.419 C  
HETATM    4  C   UNL     1     -12.384  12.511  66.178  1.00  0.00    -0.011 C  
HETATM    5  C   UNL     1     -10.918  12.640  66.615  1.00  0.00    -0.258 C  
HETATM    6  C   UNL     1     -10.029  13.131  65.464  1.00  0.00    -0.220 C  
HETATM    7  C   UNL     1     -10.604  14.399  64.812  1.00  0.00    -0.393 C  
ENDROOT
BRANCH   5   8
HETATM    8  N   UNL     1     -10.430  11.394  67.211  1.00  0.00    -0.198 N  
HETATM    9  H   UNL     1     -10.063  10.656  66.610  1.00  0.00     0.000 HD 
BRANCH   8  10
HETATM   10  C   UNL     1     -10.462  11.210  68.571  1.00  0.00    -0.191 C  
HETATM   11  O   UNL     1      -9.471  10.926  69.236  1.00  0.00    -0.148 OA 
BRANCH  10  12
HETATM   12  N   UNL     1     -11.748  11.284  69.074  1.00  0.00    -0.314 N  
HETATM   13  H   UNL     1     -12.486  10.662  68.743  1.00  0.00     0.000 HD 
BRANCH  12  14
HETATM   14  C   UNL     1     -11.996  12.257  70.066  1.00  0.00    -0.304 A  
HETATM   15  C   UNL     1     -12.873  14.255  71.800  1.00  0.00    -0.426 A  
HETATM   16  C   UNL     1     -13.411  15.288  72.633  1.00  0.00    -0.507 C  
HETATM   17  N   UNL     1     -13.852  16.126  73.300  1.00  0.00    -0.457 NA 
HETATM   18  C   UNL     1     -11.620  13.579  69.833  1.00  0.00    -0.271 A  
HETATM   19  C   UNL     1     -13.174  12.918  72.073  1.00  0.00    -0.549 A  
HETATM   20  C   UNL     1     -12.733  11.922  71.206  1.00  0.00    -0.401 A  
HETATM   21  C   UNL     1     -12.083  14.581  70.690  1.00  0.00    -0.392 A  
ENDBRANCH  12  14
ENDBRANCH  10  12
ENDBRANCH   8  10
ENDBRANCH   5   8
BRANCH   7  22
HETATM   22  C   UNL     1     -10.418  15.585  65.729  1.00  0.00    -0.361 A  
HETATM   23  N   UNL     1     -10.044  15.551  66.994  1.00  0.00    -0.249 NA 
HETATM   24  N   UNL     1     -10.626  16.880  65.318  1.00  0.00    -0.650 NA 
HETATM   25  C   UNL     1     -10.016  16.855  67.408  1.00  0.00    -0.269 A  
HETATM   26  H   UNL     1      -9.822  14.724  67.549  1.00  0.00     0.000 HD 
HETATM   27  C   UNL     1     -10.388  17.714  66.379  1.00  0.00    -0.345 A  
HETATM   28  C   UNL     1      -9.681  17.383  68.662  1.00  0.00    -0.308 A  
HETATM   29  C   UNL     1     -10.459  19.099  66.531  1.00  0.00    -0.534 A  
HETATM   30  C   UNL     1     -10.117  19.610  67.790  1.00  0.00    -0.538 A  
HETATM   31  C   UNL     1      -9.732  18.770  68.839  1.00  0.00    -0.393 A  
ENDBRANCH   7  22
TORSDOF 5
ENDMDL
MODEL       11
REMARK 921   NORMALIZED FREE ENERGY PREDICTED BY IDOCK:   -7.55 KCAL/MOL
REMARK 922        TOTAL FREE ENERGY PREDICTED BY IDOCK:  -10.53 KCAL/MOL
REMARK 923 INTER-LIGAND FREE ENERGY PREDICTED BY IDOCK:   -9.76 KCAL/MOL
REMARK 924 INTRA-LIGAND FREE ENERGY PREDICTED BY IDOCK:   -0.78 KCAL/MOL
REMARK 927      BINDING AFFINITY PREDICTED BY RF-SCORE:    0.00 PKD
ROOT
HETATM    1  C   UNL     1      -8.201  18.687  66.327  1.00  0.00    -0.237 C  
HETATM    2  N   UNL     1      -8.604  17.287  66.128  1.00  0.00    -0.482 NA 
HETATM    3  C   UNL     1      -8.103  16.439  67.223  1.00  0.00    -0.171 C  
HETATM    4  C   UNL     1      -8.816  16.622  68.558  1.00  0.00    -0.235 C  
HETATM    5  C   UNL     1     -10.342  16.540  68.414  1.00  0.00    -0.294 C  
HETATM    6  C   UNL     1     -10.848  17.437  67.276  1.00  0.00    -0.126 C  
HETATM    7  C   UNL     1     -10.078  17.179  65.971  1.00  0.00    -0.288 C  
ENDROOT
BRANCH   5   8
HETATM    8  N   UNL     1     -11.012  16.813  69.687  1.00  0.00    -0.372 N  
HETATM    9  H   UNL     1     -11.101  17.774  70.015  1.00  0.00     0.000 HD 
BRANCH   8  10
HETATM   10  C   UNL     1     -11.521  15.787  70.443  1.00  0.00    -0.365 C  
HETATM   11  O   UNL     1     -11.071  15.471  71.540  1.00  0.00    -0.359 OA 
BRANCH  10  12
HETATM   12  N   UNL     1     -12.522  15.100  69.780  1.00  0.00    -0.570 N  
HETATM   13  H   UNL     1     -13.361  15.574  69.445  1.00  0.00     0.000 HD 
BRANCH  12  14
HETATM   14  C   UNL     1     -12.332  13.715  69.585  1.00  0.00    -0.203 A  
HETATM   15  C   UNL     1     -11.529  11.059  69.329  1.00  0.00    -0.370 A  
HETATM   16  C   UNL     1     -11.022   9.724  69.232  1.00  0.00    -0.193 C  
HETATM   17  N   UNL     1     -10.603   8.646  69.153  1.00  0.00    -0.210 NA 
HETATM   18  C   UNL     1     -11.860  13.258  68.355  1.00  0.00    -0.395 A  
HETATM   19  C   UNL     1     -12.083  11.503  70.533  1.00  0.00    -0.472 A  
HETATM   20  C   UNL     1     -12.485  12.830  70.657  1.00  0.00    -0.328 A  
HETATM   21  C   UNL     1     -11.435  11.932  68.238  1.00  0.00    -0.372 A  
ENDBRANCH  12  14
ENDBRANCH  10  12
ENDBRANCH   8  10
ENDBRANCH   5   8
BRANCH   7  22
HETATM   22  C   UNL     1     -10.492  15.852  65.378  1.00  0.00    -0.405 A  
HETATM   23  N   UNL     1     -11.504  15.637  64.559  1.00  0.00    -0.639 NA 
HETATM   24  N   UNL     1      -9.822  14.681  65.643  1.00  0.00    -0.338 NA 
HETATM   25  C   UNL     1     -11.488  14.294  64.295  1.00  0.00    -0.242 A  
HETATM   26  H   UNL     1     -12.162  16.328  64.198  1.00  0.00     0.000 HD 
HETATM   27  C   UNL     1     -10.449  13.664  64.971  1.00  0.00    -0.391 A  
HETATM   28  C   UNL     1     -12.341  13.539  63.479  1.00  0.00    -0.343 A  
HETATM   29  C   UNL     1     -10.209  12.292  64.891  1.00  0.00    -0.307 A  
HETATM   30  C   UNL     1     -11.069  11.553  64.068  1.00  0.00    -0.441 A  
HETATM   31  C   UNL     1     -12.117  12.162  63.372  1.00  0.00    -0.608 A  
ENDBRANCH   7  22
TORSDOF 5
ENDMDL
MODEL       12
REMARK 921   NORMALIZED FREE ENERGY PREDICTED BY IDOCK:   -7.54 KCAL/MOL
REMARK 922        TOTAL FREE ENERGY PREDICTED BY IDOCK:  -10.51 KCAL/MOL
REMARK 923 INTER-LIGAND FREE ENERGY PREDICTED BY IDOCK:   -9.71 KCAL/MOL
REMARK 924 INTRA-LIGAND FREE ENERGY PREDICTED BY IDOCK:   -0.80 KCAL/MOL
REMARK 927      BINDING AFFINITY PREDICTED BY RF-SCORE:    0.00 PKD
ROOT
HETATM    1  C   UNL     1     -11.086   6.657  72.947  1.00  0.00    -0.229 C  
HETATM    2  N   UNL     1     -11.063   8.099  72.657  1.00  0.00    -0.384 NA 
HETATM    3  C   UNL     1      -9.684   8.564  72.430  1.00  0.00    -0.287 C  
HETATM    4  C   UNL     1      -9.064   8.125  71.108  1.00  0.00    -0.183 C  
HETATM    5  C   UNL     1      -9.980   8.426  69.914  1.00  0.00    -0.190 C  
HETATM    6  C   UNL     1     -11.409   7.925  70.162  1.00  0.00    -0.099 C  
HETATM    7  C   UNL     1     -11.953   8.421  71.511  1.00  0.00    -0.299 C  
ENDROOT
BRANCH   5   8
HETATM    8  N   UNL     1      -9.411   7.912  68.665  1.00  0.00    -0.149 N  
HETATM    9  H   UNL     1      -8.598   7.297  68.696  1.00  0.00     0.000 HD 
BRANCH   8  10
HETATM   10  C   UNL     1      -9.962   8.251  67.455  1.00  0.00    -0.209 C  
HETATM   11  O   UNL     1     -10.827   7.584  66.897  1.00  0.00    -0.345 OA 
BRANCH  10  12
HETATM   12  N   UNL     1      -9.357   9.367  66.903  1.00  0.00    -0.142 N  
HETATM   13  H   UNL     1      -8.352   9.524  66.988  1.00  0.00     0.000 HD 
BRANCH  12  14
HETATM   14  C   UNL     1     -10.189  10.278  66.219  1.00  0.00    -0.221 A  
HETATM   15  C   UNL     1     -11.483  12.366  64.904  1.00  0.00    -0.378 A  
HETATM   16  C   UNL     1     -12.061  13.495  64.240  1.00  0.00    -0.431 C  
HETATM   17  N   UNL     1     -12.522  14.415  63.706  1.00  0.00    -0.786 NA 
HETATM   18  C   UNL     1     -10.979  11.163  66.951  1.00  0.00    -0.333 A  
HETATM   19  C   UNL     1     -10.760  11.425  64.167  1.00  0.00    -0.434 A  
HETATM   20  C   UNL     1     -10.116  10.381  64.826  1.00  0.00    -0.387 A  
HETATM   21  C   UNL     1     -11.605  12.224  66.292  1.00  0.00    -0.446 A  
ENDBRANCH  12  14
ENDBRANCH  10  12
ENDBRANCH   8  10
ENDBRANCH   5   8
BRANCH   7  22
HETATM   22  C   UNL     1     -12.269   9.896  71.432  1.00  0.00    -0.408 A  
HETATM   23  N   UNL     1     -13.098  10.567  72.210  1.00  0.00    -0.527 NA 
HETATM   24  N   UNL     1     -11.696  10.729  70.501  1.00  0.00    -0.333 NA 
HETATM   25  C   UNL     1     -13.060  11.860  71.765  1.00  0.00    -0.360 A  
HETATM   26  H   UNL     1     -13.652  10.198  72.983  1.00  0.00     0.000 HD 
HETATM   27  C   UNL     1     -12.196  11.991  70.683  1.00  0.00    -0.316 A  
HETATM   28  C   UNL     1     -13.748  12.985  72.241  1.00  0.00    -0.608 A  
HETATM   29  C   UNL     1     -11.978  13.202  70.024  1.00  0.00    -0.391 A  
HETATM   30  C   UNL     1     -12.670  14.317  70.517  1.00  0.00    -0.391 A  
HETATM   31  C   UNL     1     -13.539  14.214  71.606  1.00  0.00    -0.446 A  
ENDBRANCH   7  22
TORSDOF 5
ENDMDL
MODEL       13
REMARK 921   NORMALIZED FREE ENERGY PREDICTED BY IDOCK:   -7.50 KCAL/MOL
REMARK 922        TOTAL FREE ENERGY PREDICTED BY IDOCK:  -10.47 KCAL/MOL
REMARK 923 INTER-LIGAND FREE ENERGY PREDICTED BY IDOCK:   -9.25 KCAL/MOL
REMARK 924 INTRA-LIGAND FREE ENERGY PREDICTED BY IDOCK:   -1.22 KCAL/MOL
REMARK 927      BINDING AFFINITY PREDICTED BY RF-SCORE:    0.00 PKD
ROOT
HETATM    1  C   UNL     1     -11.691   7.328  71.052  1.00  0.00    -0.307 C  
HETATM    2  N   UNL     1     -11.614   8.755  71.399  1.00  0.00    -0.280 NA 
HETATM    3  C   UNL     1     -10.310   9.074  72.006  1.00  0.00    -0.217 C  
HETATM    4  C   UNL     1      -9.133   9.082  71.037  1.00  0.00    -0.322 C  
HETATM    5  C   UNL     1      -9.415   9.932  69.791  1.00  0.00    -0.226 C  
HETATM    6  C   UNL     1     -10.772   9.578  69.166  1.00  0.00    -0.228 C  
HETATM    7  C   UNL     1     -11.897   9.603  70.212  1.00  0.00    -0.099 C  
ENDROOT
BRANCH   5   8
HETATM    8  N   UNL     1      -8.313   9.849  68.830  1.00  0.00    -0.117 N  
HETATM    9  H   UNL     1      -7.733   9.012  68.797  1.00  0.00     0.000 HD 
BRANCH   8  10
HETATM   10  C   UNL     1      -8.053  10.890  67.974  1.00  0.00    -0.119 C  
HETATM   11  O   UNL     1      -7.241  10.821  67.057  1.00  0.00    -0.098 OA 
BRANCH  10  12
HETATM   12  N   UNL     1      -8.735  12.039  68.331  1.00  0.00    -0.242 N  
HETATM   13  H   UNL     1      -8.905  12.275  69.309  1.00  0.00     0.000 HD 
BRANCH  12  14
HETATM   14  C   UNL     1      -9.187  12.871  67.284  1.00  0.00    -0.208 A  
HETATM   15  C   UNL     1     -10.352  14.697  65.532  1.00  0.00    -0.383 A  
HETATM   16  C   UNL     1     -11.006  15.672  64.712  1.00  0.00    -0.400 C  
HETATM   17  N   UNL     1     -11.542  16.463  64.055  1.00  0.00    -1.082 NA 
HETATM   18  C   UNL     1     -10.312  12.495  66.551  1.00  0.00    -0.254 A  
HETATM   19  C   UNL     1      -9.176  15.036  66.205  1.00  0.00    -0.324 A  
HETATM   20  C   UNL     1      -8.595  14.121  67.079  1.00  0.00    -0.204 A  
HETATM   21  C   UNL     1     -10.908  13.422  65.693  1.00  0.00    -0.292 A  
ENDBRANCH  12  14
ENDBRANCH  10  12
ENDBRANCH   8  10
ENDBRANCH   5   8
BRANCH   7  22
HETATM   22  C   UNL     1     -12.219  11.029  70.594  1.00  0.00    -0.385 A  
HETATM   23  N   UNL     1     -12.864  11.428  71.674  1.00  0.00    -0.416 NA 
HETATM   24  N   UNL     1     -11.853  12.104  69.821  1.00  0.00    -0.332 NA 
HETATM   25  C   UNL     1     -12.918  12.793  71.590  1.00  0.00    -0.303 A  
HETATM   26  H   UNL     1     -13.244  10.842  72.417  1.00  0.00     0.000 HD 
HETATM   27  C   UNL     1     -12.300  13.247  70.430  1.00  0.00    -0.295 A  
HETATM   28  C   UNL     1     -13.487  13.716  72.478  1.00  0.00    -0.675 A  
HETATM   29  C   UNL     1     -12.223  14.598  70.087  1.00  0.00    -0.391 A  
HETATM   30  C   UNL     1     -12.793  15.507  70.987  1.00  0.00    -0.543 A  
HETATM   31  C   UNL     1     -13.414  15.077  72.164  1.00  0.00    -0.508 A  
ENDBRANCH   7  22
TORSDOF 5
ENDMDL
MODEL       14
REMARK 921   NORMALIZED FREE ENERGY PREDICTED BY IDOCK:   -7.49 KCAL/MOL
REMARK 922        TOTAL FREE ENERGY PREDICTED BY IDOCK:  -10.45 KCAL/MOL
REMARK 923 INTER-LIGAND FREE ENERGY PREDICTED BY IDOCK:   -9.48 KCAL/MOL
REMARK 924 INTRA-LIGAND FREE ENERGY PREDICTED BY IDOCK:   -0.97 KCAL/MOL
REMARK 927      BINDING AFFINITY PREDICTED BY RF-SCORE:    0.00 PKD
ROOT
HETATM    1  C   UNL     1     -10.807  15.337  64.936  1.00  0.00    -0.425 C  
HETATM    2  N   UNL     1     -11.590  14.830  66.074  1.00  0.00    -0.326 NA 
HETATM    3  C   UNL     1     -12.521  13.776  65.637  1.00  0.00    -0.503 C  
HETATM    4  C   UNL     1     -11.869  12.443  65.286  1.00  0.00    -0.451 C  
HETATM    5  C   UNL     1     -10.919  11.957  66.389  1.00  0.00    -0.292 C  
HETATM    6  C   UNL     1      -9.948  13.063  66.823  1.00  0.00    -0.245 C  
HETATM    7  C   UNL     1     -10.693  14.364  67.164  1.00  0.00    -0.283 C  
ENDROOT
BRANCH   5   8
HETATM    8  N   UNL     1     -10.231  10.726  65.993  1.00  0.00    -0.247 N  
HETATM    9  H   UNL     1     -10.006  10.566  65.011  1.00  0.00     0.000 HD 
BRANCH   8  10
HETATM   10  C   UNL     1      -9.885   9.785  66.931  1.00  0.00    -0.201 C  
HETATM   11  O   UNL     1      -8.802   9.210  66.940  1.00  0.00    -0.121 OA 
BRANCH  10  12
HETATM   12  N   UNL     1     -10.932   9.499  67.789  1.00  0.00    -0.495 N  
HETATM   13  H   UNL     1     -11.900   9.696  67.532  1.00  0.00     0.000 HD 
BRANCH  12  14
HETATM   14  C   UNL     1     -10.604   8.922  69.034  1.00  0.00    -0.183 A  
HETATM   15  C   UNL     1     -10.399   7.820  71.585  1.00  0.00    -0.236 A  
HETATM   16  C   UNL     1     -10.398   7.265  72.905  1.00  0.00    -0.262 C  
HETATM   17  N   UNL     1     -10.405   6.819  73.975  1.00  0.00    -0.373 NA 
HETATM   18  C   UNL     1     -10.325   9.753  70.118  1.00  0.00    -0.335 A  
HETATM   19  C   UNL     1     -10.593   6.985  70.483  1.00  0.00    -0.245 A  
HETATM   20  C   UNL     1     -10.693   7.537  69.209  1.00  0.00    -0.185 A  
HETATM   21  C   UNL     1     -10.248   9.200  71.399  1.00  0.00    -0.402 A  
ENDBRANCH  12  14
ENDBRANCH  10  12
ENDBRANCH   8  10
ENDBRANCH   5   8
BRANCH   7  22
HETATM   22  C   UNL     1     -11.426  14.213  68.477  1.00  0.00    -0.300 A  
HETATM   23  N   UNL     1     -11.555  13.107  69.185  1.00  0.00    -0.297 NA 
HETATM   24  N   UNL     1     -12.058  15.264  69.097  1.00  0.00    -0.276 NA 
HETATM   25  C   UNL     1     -12.293  13.454  70.284  1.00  0.00    -0.284 A  
HETATM   26  H   UNL     1     -11.182  12.185  68.960  1.00  0.00     0.000 HD 
HETATM   27  C   UNL     1     -12.634  14.801  70.252  1.00  0.00    -0.315 A  
HETATM   28  C   UNL     1     -12.714  12.659  71.359  1.00  0.00    -0.347 A  
HETATM   29  C   UNL     1     -13.398  15.418  71.244  1.00  0.00    -0.598 A  
HETATM   30  C   UNL     1     -13.806  14.610  72.313  1.00  0.00    -0.583 A  
HETATM   31  C   UNL     1     -13.470  13.255  72.373  1.00  0.00    -0.670 A  
ENDBRANCH   7  22
TORSDOF 5
ENDMDL
MODEL       15
REMARK 921   NORMALIZED FREE ENERGY PREDICTED BY IDOCK:   -7.41 KCAL/MOL
REMARK 922        TOTAL FREE ENERGY PREDICTED BY IDOCK:  -10.34 KCAL/MOL
REMARK 923 INTER-LIGAND FREE ENERGY PREDICTED BY IDOCK:   -9.09 KCAL/MOL
REMARK 924 INTRA-LIGAND FREE ENERGY PREDICTED BY IDOCK:   -1.25 KCAL/MOL
REMARK 927      BINDING AFFINITY PREDICTED BY RF-SCORE:    0.00 PKD
ROOT
HETATM    1  C   UNL     1     -12.243  14.041  64.835  1.00  0.00    -0.437 C  
HETATM    2  N   UNL     1     -12.217  13.766  66.280  1.00  0.00    -0.444 NA 
HETATM    3  C   UNL     1     -11.541  12.487  66.555  1.00  0.00    -0.388 C  
HETATM    4  C   UNL     1     -10.028  12.503  66.368  1.00  0.00    -0.262 C  
HETATM    5  C   UNL     1      -9.367  13.677  67.103  1.00  0.00    -0.240 C  
HETATM    6  C   UNL     1     -10.076  15.003  66.796  1.00  0.00    -0.257 C  
HETATM    7  C   UNL     1     -11.593  14.895  67.019  1.00  0.00    -0.304 C  
ENDROOT
BRANCH   5   8
HETATM    8  N   UNL     1      -7.929  13.731  66.833  1.00  0.00    -0.358 N  
HETATM    9  H   UNL     1      -7.590  13.630  65.877  1.00  0.00     0.000 HD 
BRANCH   8  10
HETATM   10  C   UNL     1      -7.032  13.916  67.856  1.00  0.00    -0.160 C  
HETATM   11  O   UNL     1      -7.036  13.248  68.885  1.00  0.00    -0.103 OA 
BRANCH  10  12
HETATM   12  N   UNL     1      -6.202  14.998  67.629  1.00  0.00    -0.142 N  
HETATM   13  H   UNL     1      -5.196  14.881  67.503  1.00  0.00     0.000 HD 
BRANCH  12  14
HETATM   14  C   UNL     1      -6.805  16.273  67.578  1.00  0.00    -0.161 A  
HETATM   15  C   UNL     1      -8.369  18.567  67.344  1.00  0.00    -0.264 A  
HETATM   16  C   UNL     1      -9.253  19.684  67.197  1.00  0.00    -0.332 C  
HETATM   17  N   UNL     1      -9.974  20.583  67.073  1.00  0.00    -0.429 NA 
HETATM   18  C   UNL     1      -6.813  16.976  66.374  1.00  0.00    -0.248 A  
HETATM   19  C   UNL     1      -8.289  17.905  68.572  1.00  0.00    -0.305 A  
HETATM   20  C   UNL     1      -7.505  16.760  68.687  1.00  0.00    -0.219 A  
HETATM   21  C   UNL     1      -7.618  18.111  66.253  1.00  0.00    -0.299 A  
ENDBRANCH  12  14
ENDBRANCH  10  12
ENDBRANCH   8  10
ENDBRANCH   5   8
BRANCH   7  22
HETATM   22  C   UNL     1     -11.897  14.844  68.498  1.00  0.00    -0.294 A  
HETATM   23  N   UNL     1     -12.595  13.917  69.127  1.00  0.00    -0.285 NA 
HETATM   24  N   UNL     1     -11.455  15.801  69.380  1.00  0.00    -0.330 NA 
HETATM   25  C   UNL     1     -12.606  14.290  70.444  1.00  0.00    -0.343 A  
HETATM   26  H   UNL     1     -13.036  13.093  68.717  1.00  0.00     0.000 HD 
HETATM   27  C   UNL     1     -11.906  15.477  70.632  1.00  0.00    -0.365 A  
HETATM   28  C   UNL     1     -13.202  13.655  71.543  1.00  0.00    -0.409 A  
HETATM   29  C   UNL     1     -11.771  16.091  71.878  1.00  0.00    -0.594 A  
HETATM   30  C   UNL     1     -12.369  15.442  72.966  1.00  0.00    -0.535 A  
HETATM   31  C   UNL     1     -13.071  14.244  72.805  1.00  0.00    -0.589 A  
ENDBRANCH   7  22
TORSDOF 5
ENDMDL
MODEL       16
REMARK 921   NORMALIZED FREE ENERGY PREDICTED BY IDOCK:   -7.38 KCAL/MOL
REMARK 922        TOTAL FREE ENERGY PREDICTED BY IDOCK:  -10.31 KCAL/MOL
REMARK 923 INTER-LIGAND FREE ENERGY PREDICTED BY IDOCK:   -9.41 KCAL/MOL
REMARK 924 INTRA-LIGAND FREE ENERGY PREDICTED BY IDOCK:   -0.90 KCAL/MOL
REMARK 927      BINDING AFFINITY PREDICTED BY RF-SCORE:    0.00 PKD
ROOT
HETATM    1  C   UNL     1      -8.510   5.770  66.847  1.00  0.00    -0.108 C  
HETATM    2  N   UNL     1      -9.461   6.845  66.527  1.00  0.00    -0.169 NA 
HETATM    3  C   UNL     1     -10.786   6.557  67.104  1.00  0.00    -0.368 C  
HETATM    4  C   UNL     1     -10.877   6.708  68.618  1.00  0.00    -0.319 C  
HETATM    5  C   UNL     1     -10.316   8.054  69.099  1.00  0.00    -0.220 C  
HETATM    6  C   UNL     1      -8.931   8.332  68.499  1.00  0.00    -0.137 C  
HETATM    7  C   UNL     1      -8.936   8.163  66.971  1.00  0.00    -0.141 C  
ENDROOT
BRANCH   5   8
HETATM    8  N   UNL     1     -10.324   8.140  70.561  1.00  0.00    -0.200 N  
HETATM    9  H   UNL     1      -9.458   7.998  71.081  1.00  0.00     0.000 HD 
BRANCH   8  10
HETATM   10  C   UNL     1     -11.486   8.412  71.239  1.00  0.00    -0.280 C  
HETATM   11  O   UNL     1     -11.760   7.923  72.330  1.00  0.00    -0.333 OA 
BRANCH  10  12
HETATM   12  N   UNL     1     -12.342   9.212  70.503  1.00  0.00    -0.472 N  
HETATM   13  H   UNL     1     -12.922   8.827  69.757  1.00  0.00     0.000 HD 
BRANCH  12  14
HETATM   14  C   UNL     1     -12.377  10.585  70.828  1.00  0.00    -0.378 A  
HETATM   15  C   UNL     1     -12.813  13.312  71.200  1.00  0.00    -0.363 A  
HETATM   16  C   UNL     1     -13.121  14.704  71.330  1.00  0.00    -0.359 C  
HETATM   17  N   UNL     1     -13.377  15.830  71.427  1.00  0.00    -0.495 NA 
HETATM   18  C   UNL     1     -11.740  11.501  69.991  1.00  0.00    -0.414 A  
HETATM   19  C   UNL     1     -13.379  12.392  72.086  1.00  0.00    -0.508 A  
HETATM   20  C   UNL     1     -13.158  11.030  71.900  1.00  0.00    -0.525 A  
HETATM   21  C   UNL     1     -11.982  12.865  70.165  1.00  0.00    -0.373 A  
ENDBRANCH  12  14
ENDBRANCH  10  12
ENDBRANCH   8  10
ENDBRANCH   5   8
BRANCH   7  22
HETATM   22  C   UNL     1      -9.670   9.315  66.324  1.00  0.00    -0.271 A  
HETATM   23  N   UNL     1      -9.746   9.574  65.033  1.00  0.00    -0.447 NA 
HETATM   24  N   UNL     1     -10.366  10.251  67.050  1.00  0.00    -0.231 NA 
HETATM   25  C   UNL     1     -10.506  10.707  64.926  1.00  0.00    -0.212 A  
HETATM   26  H   UNL     1      -9.326   9.041  64.271  1.00  0.00     0.000 HD 
HETATM   27  C   UNL     1     -10.902  11.163  66.178  1.00  0.00    -0.185 A  
HETATM   28  C   UNL     1     -10.899  11.409  63.778  1.00  0.00    -0.468 A  
HETATM   29  C   UNL     1     -11.675  12.310  66.362  1.00  0.00    -0.431 A  
HETATM   30  C   UNL     1     -12.063  12.997  65.204  1.00  0.00    -0.476 A  
HETATM   31  C   UNL     1     -11.685  12.556  63.933  1.00  0.00    -0.530 A  
ENDBRANCH   7  22
TORSDOF 5
ENDMDL
MODEL       17
REMARK 921   NORMALIZED FREE ENERGY PREDICTED BY IDOCK:   -7.33 KCAL/MOL
REMARK 922        TOTAL FREE ENERGY PREDICTED BY IDOCK:  -10.25 KCAL/MOL
REMARK 923 INTER-LIGAND FREE ENERGY PREDICTED BY IDOCK:   -9.06 KCAL/MOL
REMARK 924 INTRA-LIGAND FREE ENERGY PREDICTED BY IDOCK:   -1.19 KCAL/MOL
REMARK 927      BINDING AFFINITY PREDICTED BY RF-SCORE:    0.00 PKD
ROOT
HETATM    1  C   UNL     1     -11.501  15.938  64.219  1.00  0.00    -0.191 C  
HETATM    2  N   UNL     1     -10.686  14.937  64.923  1.00  0.00    -0.416 NA 
HETATM    3  C   UNL     1      -9.843  15.577  65.947  1.00  0.00    -0.353 C  
HETATM    4  C   UNL     1     -10.589  16.071  67.181  1.00  0.00    -0.305 C  
HETATM    5  C   UNL     1     -11.502  14.989  67.776  1.00  0.00    -0.334 C  
HETATM    6  C   UNL     1     -12.381  14.341  66.697  1.00  0.00    -0.320 C  
HETATM    7  C   UNL     1     -11.544  13.868  65.498  1.00  0.00    -0.327 C  
ENDROOT
BRANCH   5   8
HETATM    8  N   UNL     1     -12.281  15.511  68.901  1.00  0.00    -0.608 N  
HETATM    9  H   UNL     1     -12.973  16.242  68.740  1.00  0.00     0.000 HD 
BRANCH   8  10
HETATM   10  C   UNL     1     -12.089  15.024  70.170  1.00  0.00    -0.331 C  
HETATM   11  O   UNL     1     -11.080  15.247  70.831  1.00  0.00    -0.321 OA 
BRANCH  10  12
HETATM   12  N   UNL     1     -13.113  14.182  70.563  1.00  0.00    -0.332 N  
HETATM   13  H   UNL     1     -14.077  14.511  70.630  1.00  0.00     0.000 HD 
BRANCH  12  14
HETATM   14  C   UNL     1     -12.769  12.849  70.870  1.00  0.00    -0.207 A  
HETATM   15  C   UNL     1     -12.434  10.102  71.203  1.00  0.00    -0.490 A  
HETATM   16  C   UNL     1     -12.342   8.677  71.308  1.00  0.00    -0.263 C  
HETATM   17  N   UNL     1     -12.276   7.523  71.389  1.00  0.00    -0.322 NA 
HETATM   18  C   UNL     1     -13.409  12.204  71.928  1.00  0.00    -0.421 A  
HETATM   19  C   UNL     1     -11.729  10.770  70.198  1.00  0.00    -0.425 A  
HETATM   20  C   UNL     1     -11.897  12.142  70.035  1.00  0.00    -0.383 A  
HETATM   21  C   UNL     1     -13.259  10.824  72.076  1.00  0.00    -0.466 A  
ENDBRANCH  12  14
ENDBRANCH  10  12
ENDBRANCH   8  10
ENDBRANCH   5   8
BRANCH   7  22
HETATM   22  C   UNL     1     -10.748  12.639  65.873  1.00  0.00    -0.266 A  
HETATM   23  N   UNL     1      -9.466  12.431  65.642  1.00  0.00    -0.435 NA 
HETATM   24  N   UNL     1     -11.306  11.566  66.525  1.00  0.00    -0.376 NA 
HETATM   25  C   UNL     1      -9.193  11.191  66.153  1.00  0.00    -0.198 A  
HETATM   26  H   UNL     1      -8.813  13.062  65.178  1.00  0.00     0.000 HD 
HETATM   27  C   UNL     1     -10.333  10.617  66.706  1.00  0.00    -0.245 A  
HETATM   28  C   UNL     1      -7.982  10.487  66.179  1.00  0.00    -0.147 A  
HETATM   29  C   UNL     1     -10.342   9.348  67.286  1.00  0.00    -0.325 A  
HETATM   30  C   UNL     1      -9.122   8.660  67.307  1.00  0.00    -0.152 A  
HETATM   31  C   UNL     1      -7.960   9.217  66.765  1.00  0.00    -0.104 A  
ENDBRANCH   7  22
TORSDOF 5
ENDMDL
MODEL       18
REMARK 921   NORMALIZED FREE ENERGY PREDICTED BY IDOCK:   -7.32 KCAL/MOL
REMARK 922        TOTAL FREE ENERGY PREDICTED BY IDOCK:  -10.23 KCAL/MOL
REMARK 923 INTER-LIGAND FREE ENERGY PREDICTED BY IDOCK:   -9.17 KCAL/MOL
REMARK 924 INTRA-LIGAND FREE ENERGY PREDICTED BY IDOCK:   -1.06 KCAL/MOL
REMARK 927      BINDING AFFINITY PREDICTED BY RF-SCORE:    0.00 PKD
ROOT
HETATM    1  C   UNL     1      -7.925   6.404  66.838  1.00  0.00    -0.109 C  
HETATM    2  N   UNL     1      -8.987   7.328  66.411  1.00  0.00    -0.154 NA 
HETATM    3  C   UNL     1     -10.314   6.712  66.584  1.00  0.00    -0.145 C  
HETATM    4  C   UNL     1     -10.784   6.586  68.029  1.00  0.00    -0.351 C  
HETATM    5  C   UNL     1     -10.655   7.910  68.795  1.00  0.00    -0.127 C  
HETATM    6  C   UNL     1      -9.263   8.531  68.614  1.00  0.00    -0.142 C  
HETATM    7  C   UNL     1      -8.878   8.625  67.129  1.00  0.00    -0.129 C  
ENDROOT
BRANCH   5   8
HETATM    8  N   UNL     1     -11.020   7.745  70.204  1.00  0.00    -0.275 N  
HETATM    9  H   UNL     1     -11.115   6.809  70.596  1.00  0.00     0.000 HD 
BRANCH   8  10
HETATM   10  C   UNL     1     -11.235   8.841  71.003  1.00  0.00    -0.273 C  
HETATM   11  O   UNL     1     -10.430   9.231  71.842  1.00  0.00    -0.305 OA 
BRANCH  10  12
HETATM   12  N   UNL     1     -12.495   9.379  70.817  1.00  0.00    -0.488 N  
HETATM   13  H   UNL     1     -13.315   8.785  70.692  1.00  0.00     0.000 HD 
BRANCH  12  14
HETATM   14  C   UNL     1     -12.599  10.787  70.808  1.00  0.00    -0.383 A  
HETATM   15  C   UNL     1     -12.430  13.557  71.049  1.00  0.00    -0.451 A  
HETATM   16  C   UNL     1     -12.257  14.967  71.229  1.00  0.00    -0.320 C  
HETATM   17  N   UNL     1     -12.110  16.107  71.381  1.00  0.00    -0.410 NA 
HETATM   18  C   UNL     1     -13.281  11.427  71.842  1.00  0.00    -0.485 A  
HETATM   19  C   UNL     1     -11.820  12.917  69.967  1.00  0.00    -0.356 A  
HETATM   20  C   UNL     1     -11.908  11.533  69.848  1.00  0.00    -0.430 A  
HETATM   21  C   UNL     1     -13.174  12.813  71.974  1.00  0.00    -0.538 A  
ENDBRANCH  12  14
ENDBRANCH  10  12
ENDBRANCH   8  10
ENDBRANCH   5   8
BRANCH   7  22
HETATM   22  C   UNL     1      -9.675   9.717  66.454  1.00  0.00    -0.216 A  
HETATM   23  N   UNL     1     -10.486  10.577  67.040  1.00  0.00    -0.237 NA 
HETATM   24  N   UNL     1      -9.630   9.938  65.098  1.00  0.00    -0.284 NA 
HETATM   25  C   UNL     1     -10.979  11.366  66.037  1.00  0.00    -0.226 A  
HETATM   26  H   UNL     1     -10.702  10.641  68.036  1.00  0.00     0.000 HD 
HETATM   27  C   UNL     1     -10.467  10.981  64.802  1.00  0.00    -0.316 A  
HETATM   28  C   UNL     1     -11.877  12.439  66.109  1.00  0.00    -0.442 A  
HETATM   29  C   UNL     1     -10.814  11.609  63.605  1.00  0.00    -0.503 A  
HETATM   30  C   UNL     1     -11.710  12.682  63.696  1.00  0.00    -0.597 A  
HETATM   31  C   UNL     1     -12.233  13.093  64.925  1.00  0.00    -0.477 A  
ENDBRANCH   7  22
TORSDOF 5
ENDMDL
MODEL       19
REMARK 921   NORMALIZED FREE ENERGY PREDICTED BY IDOCK:   -7.24 KCAL/MOL
REMARK 922        TOTAL FREE ENERGY PREDICTED BY IDOCK:  -10.13 KCAL/MOL
REMARK 923 INTER-LIGAND FREE ENERGY PREDICTED BY IDOCK:   -8.81 KCAL/MOL
REMARK 924 INTRA-LIGAND FREE ENERGY PREDICTED BY IDOCK:   -1.31 KCAL/MOL
REMARK 927      BINDING AFFINITY PREDICTED BY RF-SCORE:    0.00 PKD
ROOT
HETATM    1  C   UNL     1      -8.078  17.346  66.099  1.00  0.00    -0.220 C  
HETATM    2  N   UNL     1      -8.167  15.991  66.665  1.00  0.00    -0.267 NA 
HETATM    3  C   UNL     1      -7.850  16.004  68.103  1.00  0.00    -0.141 C  
HETATM    4  C   UNL     1      -8.922  16.620  68.994  1.00  0.00    -0.204 C  
HETATM    5  C   UNL     1     -10.313  16.034  68.713  1.00  0.00    -0.237 C  
HETATM    6  C   UNL     1     -10.632  16.039  67.212  1.00  0.00    -0.313 C  
HETATM    7  C   UNL     1      -9.501  15.394  66.394  1.00  0.00    -0.296 C  
ENDROOT
BRANCH   5   8
HETATM    8  N   UNL     1     -11.343  16.704  69.510  1.00  0.00    -0.287 N  
HETATM    9  H   UNL     1     -11.660  17.636  69.245  1.00  0.00     0.000 HD 
BRANCH   8  10
HETATM   10  C   UNL     1     -11.886  16.089  70.611  1.00  0.00    -0.315 C  
HETATM   11  O   UNL     1     -11.473  16.265  71.752  1.00  0.00    -0.399 OA 
BRANCH  10  12
HETATM   12  N   UNL     1     -12.874  15.185  70.266  1.00  0.00    -0.623 N  
HETATM   13  H   UNL     1     -13.648  15.449  69.655  1.00  0.00     0.000 HD 
BRANCH  12  14
HETATM   14  C   UNL     1     -12.766  13.881  70.794  1.00  0.00    -0.313 A  
HETATM   15  C   UNL     1     -12.919  11.214  71.586  1.00  0.00    -0.548 A  
HETATM   16  C   UNL     1     -13.080   9.833  71.929  1.00  0.00    -0.446 C  
HETATM   17  N   UNL     1     -13.219   8.715  72.203  1.00  0.00    -0.370 NA 
HETATM   18  C   UNL     1     -13.486  13.547  71.940  1.00  0.00    -0.528 A  
HETATM   19  C   UNL     1     -12.130  11.567  70.489  1.00  0.00    -0.472 A  
HETATM   20  C   UNL     1     -12.053  12.900  70.096  1.00  0.00    -0.373 A  
HETATM   21  C   UNL     1     -13.582  12.206  72.319  1.00  0.00    -0.226 A  
ENDBRANCH  12  14
ENDBRANCH  10  12
ENDBRANCH   8  10
ENDBRANCH   5   8
BRANCH   7  22
HETATM   22  C   UNL     1      -9.505  13.896  66.595  1.00  0.00    -0.285 A  
HETATM   23  N   UNL     1      -8.452  13.101  66.613  1.00  0.00    -0.427 NA 
HETATM   24  N   UNL     1     -10.661  13.178  66.792  1.00  0.00    -0.262 NA 
HETATM   25  C   UNL     1      -8.942  11.840  66.820  1.00  0.00    -0.196 A  
HETATM   26  H   UNL     1      -7.475  13.370  66.496  1.00  0.00     0.000 HD 
HETATM   27  C   UNL     1     -10.329  11.855  66.926  1.00  0.00    -0.210 A  
HETATM   28  C   UNL     1      -8.253  10.625  66.929  1.00  0.00    -0.123 A  
HETATM   29  C   UNL     1     -11.090  10.702  67.126  1.00  0.00    -0.267 A  
HETATM   30  C   UNL     1     -10.384   9.497  67.236  1.00  0.00    -0.319 A  
HETATM   31  C   UNL     1      -8.990   9.456  67.141  1.00  0.00    -0.144 A  
ENDBRANCH   7  22
TORSDOF 5
ENDMDL
MODEL       20
REMARK 921   NORMALIZED FREE ENERGY PREDICTED BY IDOCK:   -7.23 KCAL/MOL
REMARK 922        TOTAL FREE ENERGY PREDICTED BY IDOCK:  -10.12 KCAL/MOL
REMARK 923 INTER-LIGAND FREE ENERGY PREDICTED BY IDOCK:   -9.12 KCAL/MOL
REMARK 924 INTRA-LIGAND FREE ENERGY PREDICTED BY IDOCK:   -1.00 KCAL/MOL
REMARK 927      BINDING AFFINITY PREDICTED BY RF-SCORE:    0.00 PKD
ROOT
HETATM    1  C   UNL     1     -10.645  15.650  65.336  1.00  0.00    -0.415 C  
HETATM    2  N   UNL     1     -11.309  15.262  66.590  1.00  0.00    -0.236 NA 
HETATM    3  C   UNL     1     -11.701  13.842  66.554  1.00  0.00    -0.393 C  
HETATM    4  C   UNL     1     -10.547  12.852  66.671  1.00  0.00    -0.273 C  
HETATM    5  C   UNL     1      -9.631  13.170  67.860  1.00  0.00    -0.218 C  
HETATM    6  C   UNL     1      -9.223  14.650  67.875  1.00  0.00    -0.197 C  
HETATM    7  C   UNL     1     -10.448  15.572  67.761  1.00  0.00    -0.273 C  
ENDROOT
BRANCH   5   8
HETATM    8  N   UNL     1      -8.478  12.268  67.900  1.00  0.00    -0.155 N  
HETATM    9  H   UNL     1      -7.544  12.632  67.711  1.00  0.00     0.000 HD 
BRANCH   8  10
HETATM   10  C   UNL     1      -8.642  10.936  68.188  1.00  0.00    -0.133 C  
HETATM   11  O   UNL     1      -8.707  10.064  67.328  1.00  0.00    -0.125 OA 
BRANCH  10  12
HETATM   12  N   UNL     1      -8.822  10.717  69.542  1.00  0.00    -0.398 N  
HETATM   13  H   UNL     1      -8.142  11.041  70.229  1.00  0.00     0.000 HD 
BRANCH  12  14
HETATM   14  C   UNL     1      -9.989  10.025  69.932  1.00  0.00    -0.237 A  
HETATM   15  C   UNL     1     -12.253   8.889  71.092  1.00  0.00    -0.303 A  
HETATM   16  C   UNL     1     -13.399   8.365  71.772  1.00  0.00    -0.357 C  
HETATM   17  N   UNL     1     -14.324   7.944  72.330  1.00  0.00    -0.156 NA 
HETATM   18  C   UNL     1      -9.869   8.830  70.640  1.00  0.00    -0.237 A  
HETATM   19  C   UNL     1     -12.379  10.039  70.309  1.00  0.00    -0.141 A  
HETATM   20  C   UNL     1     -11.246  10.604  69.729  1.00  0.00    -0.363 A  
HETATM   21  C   UNL     1     -11.002   8.277  71.242  1.00  0.00    -0.290 A  
ENDBRANCH  12  14
ENDBRANCH  10  12
ENDBRANCH   8  10
ENDBRANCH   5   8
BRANCH   7  22
HETATM   22  C   UNL     1     -11.225  15.565  69.056  1.00  0.00    -0.303 A  
HETATM   23  N   UNL     1     -12.527  15.399  69.193  1.00  0.00    -0.605 NA 
HETATM   24  N   UNL     1     -10.626  15.738  70.281  1.00  0.00    -0.315 NA 
HETATM   25  C   UNL     1     -12.772  15.471  70.538  1.00  0.00    -0.388 A  
HETATM   26  H   UNL     1     -13.210  15.248  68.451  1.00  0.00     0.000 HD 
HETATM   27  C   UNL     1     -11.597  15.694  71.247  1.00  0.00    -0.428 A  
HETATM   28  C   UNL     1     -13.986  15.355  71.228  1.00  0.00    -0.491 A  
HETATM   29  C   UNL     1     -11.559  15.824  72.637  1.00  0.00    -0.446 A  
HETATM   30  C   UNL     1     -12.781  15.701  73.311  1.00  0.00    -0.626 A  
HETATM   31  C   UNL     1     -13.975  15.469  72.622  1.00  0.00    -0.617 A  
ENDBRANCH   7  22
TORSDOF 5
ENDMDL
MODEL       21
REMARK 921   NORMALIZED FREE ENERGY PREDICTED BY IDOCK:   -7.23 KCAL/MOL
REMARK 922        TOTAL FREE ENERGY PREDICTED BY IDOCK:  -10.12 KCAL/MOL
REMARK 923 INTER-LIGAND FREE ENERGY PREDICTED BY IDOCK:   -9.55 KCAL/MOL
REMARK 924 INTRA-LIGAND FREE ENERGY PREDICTED BY IDOCK:   -0.57 KCAL/MOL
REMARK 927      BINDING AFFINITY PREDICTED BY RF-SCORE:    0.00 PKD
ROOT
HETATM    1  C   UNL     1      -8.808  17.930  67.939  1.00  0.00    -0.260 C  
HETATM    2  N   UNL     1      -9.102  16.606  67.369  1.00  0.00    -0.200 NA 
HETATM    3  C   UNL     1      -8.389  15.550  68.108  1.00  0.00    -0.145 C  
HETATM    4  C   UNL     1      -8.940  15.251  69.498  1.00  0.00    -0.183 C  
HETATM    5  C   UNL     1     -10.458  15.023  69.480  1.00  0.00    -0.235 C  
HETATM    6  C   UNL     1     -11.185  16.138  68.716  1.00  0.00    -0.365 C  
HETATM    7  C   UNL     1     -10.568  16.364  67.327  1.00  0.00    -0.293 C  
ENDROOT
BRANCH   5   8
HETATM    8  N   UNL     1     -10.983  14.833  70.835  1.00  0.00    -0.527 N  
HETATM    9  H   UNL     1     -10.477  15.218  71.631  1.00  0.00     0.000 HD 
BRANCH   8  10
HETATM   10  C   UNL     1     -12.150  14.140  71.041  1.00  0.00    -0.335 C  
HETATM   11  O   UNL     1     -12.870  14.311  72.019  1.00  0.00    -0.328 OA 
BRANCH  10  12
HETATM   12  N   UNL     1     -12.356  13.171  70.076  1.00  0.00    -0.224 N  
HETATM   13  H   UNL     1     -12.589  13.418  69.114  1.00  0.00     0.000 HD 
BRANCH  12  14
HETATM   14  C   UNL     1     -12.230  11.824  70.479  1.00  0.00    -0.347 A  
HETATM   15  C   UNL     1     -11.711   9.327  71.602  1.00  0.00    -0.462 A  
HETATM   16  C   UNL     1     -11.386   8.093  72.252  1.00  0.00    -0.364 C  
HETATM   17  N   UNL     1     -11.117   7.098  72.782  1.00  0.00    -0.293 NA 
HETATM   18  C   UNL     1     -11.165  11.065  69.997  1.00  0.00    -0.303 A  
HETATM   19  C   UNL     1     -12.827  10.057  72.020  1.00  0.00    -0.484 A  
HETATM   20  C   UNL     1     -13.085  11.303  71.456  1.00  0.00    -0.459 A  
HETATM   21  C   UNL     1     -10.892   9.825  70.580  1.00  0.00    -0.396 A  
ENDBRANCH  12  14
ENDBRANCH  10  12
ENDBRANCH   8  10
ENDBRANCH   5   8
BRANCH   7  22
HETATM   22  C   UNL     1     -10.930  15.221  66.407  1.00  0.00    -0.299 A  
HETATM   23  N   UNL     1     -12.115  14.655  66.282  1.00  0.00    -0.267 NA 
HETATM   24  N   UNL     1     -10.017  14.631  65.565  1.00  0.00    -0.361 NA 
HETATM   25  C   UNL     1     -11.961  13.674  65.341  1.00  0.00    -0.378 A  
HETATM   26  H   UNL     1     -12.970  14.899  66.783  1.00  0.00     0.000 HD 
HETATM   27  C   UNL     1     -10.650  13.626  64.879  1.00  0.00    -0.408 A  
HETATM   28  C   UNL     1     -12.907  12.776  64.829  1.00  0.00    -0.374 A  
HETATM   29  C   UNL     1     -10.211  12.708  63.923  1.00  0.00    -0.340 A  
HETATM   30  C   UNL     1     -11.172  11.821  63.420  1.00  0.00    -0.440 A  
HETATM   31  C   UNL     1     -12.497  11.853  63.862  1.00  0.00    -0.478 A  
ENDBRANCH   7  22
TORSDOF 5
ENDMDL
MODEL       22
REMARK 921   NORMALIZED FREE ENERGY PREDICTED BY IDOCK:   -7.17 KCAL/MOL
REMARK 922        TOTAL FREE ENERGY PREDICTED BY IDOCK:  -10.04 KCAL/MOL
REMARK 923 INTER-LIGAND FREE ENERGY PREDICTED BY IDOCK:   -9.37 KCAL/MOL
REMARK 924 INTRA-LIGAND FREE ENERGY PREDICTED BY IDOCK:   -0.67 KCAL/MOL
REMARK 927      BINDING AFFINITY PREDICTED BY RF-SCORE:    0.00 PKD
ROOT
HETATM    1  C   UNL     1      -9.471   8.711  69.133  1.00  0.00    -0.157 C  
HETATM    2  N   UNL     1      -9.814  10.086  69.526  1.00  0.00    -0.217 NA 
HETATM    3  C   UNL     1      -8.826  11.042  68.998  1.00  0.00    -0.058 C  
HETATM    4  C   UNL     1      -8.900  11.282  67.494  1.00  0.00    -0.140 C  
HETATM    5  C   UNL     1     -10.327  11.609  67.031  1.00  0.00    -0.217 C  
HETATM    6  C   UNL     1     -11.341  10.597  67.581  1.00  0.00    -0.284 C  
HETATM    7  C   UNL     1     -11.198  10.426  69.102  1.00  0.00    -0.246 C  
ENDROOT
BRANCH   5   8
HETATM    8  N   UNL     1     -10.395  11.742  65.574  1.00  0.00    -0.252 N  
HETATM    9  H   UNL     1      -9.896  11.079  64.982  1.00  0.00     0.000 HD 
BRANCH   8  10
HETATM   10  C   UNL     1     -11.127  12.750  64.998  1.00  0.00    -0.285 C  
HETATM   11  O   UNL     1     -12.314  12.643  64.711  1.00  0.00    -0.446 OA 
BRANCH  10  12
HETATM   12  N   UNL     1     -10.344  13.850  64.694  1.00  0.00    -0.587 N  
HETATM   13  H   UNL     1      -9.685  13.835  63.915  1.00  0.00     0.000 HD 
BRANCH  12  14
HETATM   14  C   UNL     1     -10.496  14.993  65.507  1.00  0.00    -0.365 A  
HETATM   15  C   UNL     1     -10.358  17.328  67.021  1.00  0.00    -0.318 A  
HETATM   16  C   UNL     1     -10.187  18.537  67.770  1.00  0.00    -0.382 C  
HETATM   17  N   UNL     1     -10.040  19.514  68.374  1.00  0.00    -0.426 NA 
HETATM   18  C   UNL     1     -10.183  14.912  66.863  1.00  0.00    -0.254 A  
HETATM   19  C   UNL     1     -10.754  17.392  65.683  1.00  0.00    -0.113 A  
HETATM   20  C   UNL     1     -10.825  16.224  64.929  1.00  0.00    -0.315 A  
HETATM   21  C   UNL     1     -10.089  16.087  67.613  1.00  0.00    -0.245 A  
ENDBRANCH  12  14
ENDBRANCH  10  12
ENDBRANCH   8  10
ENDBRANCH   5   8
BRANCH   7  22
HETATM   22  C   UNL     1     -11.728  11.648  69.814  1.00  0.00    -0.352 A  
HETATM   23  N   UNL     1     -11.528  12.907  69.473  1.00  0.00    -0.424 NA 
HETATM   24  N   UNL     1     -12.510  11.568  70.942  1.00  0.00    -0.389 NA 
HETATM   25  C   UNL     1     -12.194  13.654  70.406  1.00  0.00    -0.363 A  
HETATM   26  H   UNL     1     -10.990  13.252  68.678  1.00  0.00     0.000 HD 
HETATM   27  C   UNL     1     -12.812  12.841  71.349  1.00  0.00    -0.275 A  
HETATM   28  C   UNL     1     -12.312  15.047  70.510  1.00  0.00    -0.411 A  
HETATM   29  C   UNL     1     -13.549  13.343  72.423  1.00  0.00    -0.708 A  
HETATM   30  C   UNL     1     -13.660  14.737  72.509  1.00  0.00    -0.571 A  
HETATM   31  C   UNL     1     -13.055  15.577  71.570  1.00  0.00    -0.573 A  
ENDBRANCH   7  22
TORSDOF 5
ENDMDL
MODEL       23
REMARK 921   NORMALIZED FREE ENERGY PREDICTED BY IDOCK:   -7.11 KCAL/MOL
REMARK 922        TOTAL FREE ENERGY PREDICTED BY IDOCK:   -9.96 KCAL/MOL
REMARK 923 INTER-LIGAND FREE ENERGY PREDICTED BY IDOCK:   -9.20 KCAL/MOL
REMARK 924 INTRA-LIGAND FREE ENERGY PREDICTED BY IDOCK:   -0.77 KCAL/MOL
REMARK 927      BINDING AFFINITY PREDICTED BY RF-SCORE:    0.00 PKD
ROOT
HETATM    1  C   UNL     1      -8.502   9.895  65.150  1.00  0.00    -0.150 C  
HETATM    2  N   UNL     1      -8.912  10.058  66.554  1.00  0.00    -0.142 NA 
HETATM    3  C   UNL     1      -8.254  11.230  67.156  1.00  0.00    -0.149 C  
HETATM    4  C   UNL     1      -8.777  12.580  66.679  1.00  0.00    -0.101 C  
HETATM    5  C   UNL     1     -10.307  12.668  66.763  1.00  0.00    -0.235 C  
HETATM    6  C   UNL     1     -10.977  11.445  66.120  1.00  0.00    -0.294 C  
HETATM    7  C   UNL     1     -10.392  10.133  66.665  1.00  0.00    -0.208 C  
ENDROOT
BRANCH   5   8
HETATM    8  N   UNL     1     -10.798  13.934  66.211  1.00  0.00    -0.289 N  
HETATM    9  H   UNL     1     -10.911  14.036  65.203  1.00  0.00     0.000 HD 
BRANCH   8  10
HETATM   10  C   UNL     1     -11.106  14.984  67.040  1.00  0.00    -0.334 C  
HETATM   11  O   UNL     1     -10.429  16.003  67.116  1.00  0.00    -0.299 OA 
BRANCH  10  12
HETATM   12  N   UNL     1     -12.203  14.710  67.838  1.00  0.00    -0.603 N  
HETATM   13  H   UNL     1     -13.107  14.465  67.434  1.00  0.00     0.000 HD 
BRANCH  12  14
HETATM   14  C   UNL     1     -12.016  14.784  69.235  1.00  0.00    -0.294 A  
HETATM   15  C   UNL     1     -12.053  15.134  71.999  1.00  0.00    -0.453 A  
HETATM   16  C   UNL     1     -12.167  15.357  73.409  1.00  0.00    -0.508 C  
HETATM   17  N   UNL     1     -12.266  15.544  74.548  1.00  0.00    -0.630 NA 
HETATM   18  C   UNL     1     -11.447  15.931  69.787  1.00  0.00    -0.342 A  
HETATM   19  C   UNL     1     -12.543  13.950  71.443  1.00  0.00    -0.444 A  
HETATM   20  C   UNL     1     -12.522  13.776  70.062  1.00  0.00    -0.301 A  
HETATM   21  C   UNL     1     -11.491  16.115  71.171  1.00  0.00    -0.433 A  
ENDBRANCH  12  14
ENDBRANCH  10  12
ENDBRANCH   8  10
ENDBRANCH   5   8
BRANCH   7  22
HETATM   22  C   UNL     1     -10.868   9.901  68.081  1.00  0.00    -0.234 A  
HETATM   23  N   UNL     1     -11.876  10.504  68.681  1.00  0.00    -0.716 NA 
HETATM   24  N   UNL     1     -10.272   8.994  68.924  1.00  0.00    -0.203 NA 
HETATM   25  C   UNL     1     -11.927   9.976  69.943  1.00  0.00    -0.016 A  
HETATM   26  H   UNL     1     -12.492  11.216  68.287  1.00  0.00     0.000 HD 
HETATM   27  C   UNL     1     -10.923   9.032  70.129  1.00  0.00    -0.233 A  
HETATM   28  C   UNL     1     -12.812  10.261  70.991  1.00  0.00    -0.490 A  
HETATM   29  C   UNL     1     -10.736   8.346  71.330  1.00  0.00    -0.298 A  
HETATM   30  C   UNL     1     -11.632   8.640  72.366  1.00  0.00    -0.385 A  
HETATM   31  C   UNL     1     -12.654   9.580  72.203  1.00  0.00    -0.411 A  
ENDBRANCH   7  22
TORSDOF 5
ENDMDL
MODEL       24
REMARK 921   NORMALIZED FREE ENERGY PREDICTED BY IDOCK:   -7.09 KCAL/MOL
REMARK 922        TOTAL FREE ENERGY PREDICTED BY IDOCK:   -9.93 KCAL/MOL
REMARK 923 INTER-LIGAND FREE ENERGY PREDICTED BY IDOCK:   -9.31 KCAL/MOL
REMARK 924 INTRA-LIGAND FREE ENERGY PREDICTED BY IDOCK:   -0.63 KCAL/MOL
REMARK 927      BINDING AFFINITY PREDICTED BY RF-SCORE:    0.00 PKD
ROOT
HETATM    1  C   UNL     1     -11.437  16.085  64.482  1.00  0.00    -0.271 C  
HETATM    2  N   UNL     1     -10.618  14.909  64.815  1.00  0.00    -0.375 NA 
HETATM    3  C   UNL     1      -9.726  15.199  65.951  1.00  0.00    -0.350 C  
HETATM    4  C   UNL     1     -10.418  15.301  67.306  1.00  0.00    -0.275 C  
HETATM    5  C   UNL     1     -11.331  14.097  67.579  1.00  0.00    -0.322 C  
HETATM    6  C   UNL     1     -12.261  13.816  66.391  1.00  0.00    -0.480 C  
HETATM    7  C   UNL     1     -11.478  13.724  65.072  1.00  0.00    -0.332 C  
ENDROOT
BRANCH   5   8
HETATM    8  N   UNL     1     -12.059  14.258  68.840  1.00  0.00    -0.499 N  
HETATM    9  H   UNL     1     -12.499  15.152  69.058  1.00  0.00     0.000 HD 
BRANCH   8  10
HETATM   10  C   UNL     1     -12.155  13.217  69.729  1.00  0.00    -0.290 C  
HETATM   11  O   UNL     1     -12.195  13.372  70.945  1.00  0.00    -0.354 OA 
BRANCH  10  12
HETATM   12  N   UNL     1     -12.101  11.988  69.097  1.00  0.00    -0.239 N  
HETATM   13  H   UNL     1     -12.248  11.899  68.091  1.00  0.00     0.000 HD 
BRANCH  12  14
HETATM   14  C   UNL     1     -11.833  10.861  69.904  1.00  0.00    -0.349 A  
HETATM   15  C   UNL     1     -11.147   8.937  71.798  1.00  0.00    -0.433 A  
HETATM   16  C   UNL     1     -10.764   8.026  72.835  1.00  0.00    -0.333 C  
HETATM   17  N   UNL     1     -10.449   7.295  73.678  1.00  0.00    -0.370 NA 
HETATM   18  C   UNL     1     -10.569  10.274  69.856  1.00  0.00    -0.324 A  
HETATM   19  C   UNL     1     -12.439   9.468  71.786  1.00  0.00    -0.484 A  
HETATM   20  C   UNL     1     -12.780  10.428  70.837  1.00  0.00    -0.477 A  
HETATM   21  C   UNL     1     -10.220   9.328  70.823  1.00  0.00    -0.353 A  
ENDBRANCH  12  14
ENDBRANCH  10  12
ENDBRANCH   8  10
ENDBRANCH   5   8
BRANCH   7  22
HETATM   22  C   UNL     1     -10.695  12.432  65.023  1.00  0.00    -0.294 A  
HETATM   23  N   UNL     1      -9.701  12.144  64.204  1.00  0.00    -0.521 NA 
HETATM   24  N   UNL     1     -10.950  11.379  65.869  1.00  0.00    -0.249 NA 
HETATM   25  C   UNL     1      -9.311  10.873  64.527  1.00  0.00    -0.223 A  
HETATM   26  H   UNL     1      -9.306  12.744  63.480  1.00  0.00     0.000 HD 
HETATM   27  C   UNL     1     -10.085  10.361  65.563  1.00  0.00    -0.283 A  
HETATM   28  C   UNL     1      -8.293  10.086  63.970  1.00  0.00    -0.170 A  
HETATM   29  C   UNL     1      -9.909   9.077  66.082  1.00  0.00    -0.349 A  
HETATM   30  C   UNL     1      -8.885   8.307  65.516  1.00  0.00    -0.152 A  
HETATM   31  C   UNL     1      -8.089   8.800  64.479  1.00  0.00    -0.156 A  
ENDBRANCH   7  22
TORSDOF 5
ENDMDL
MODEL       25
REMARK 921   NORMALIZED FREE ENERGY PREDICTED BY IDOCK:   -7.07 KCAL/MOL
REMARK 922        TOTAL FREE ENERGY PREDICTED BY IDOCK:   -9.91 KCAL/MOL
REMARK 923 INTER-LIGAND FREE ENERGY PREDICTED BY IDOCK:   -9.11 KCAL/MOL
REMARK 924 INTRA-LIGAND FREE ENERGY PREDICTED BY IDOCK:   -0.80 KCAL/MOL
REMARK 927      BINDING AFFINITY PREDICTED BY RF-SCORE:    0.00 PKD
ROOT
HETATM    1  C   UNL     1     -10.932  12.943  64.385  1.00  0.00    -0.371 C  
HETATM    2  N   UNL     1     -10.604  12.376  65.703  1.00  0.00    -0.258 NA 
HETATM    3  C   UNL     1      -9.413  13.029  66.270  1.00  0.00    -0.192 C  
HETATM    4  C   UNL     1      -9.631  14.456  66.760  1.00  0.00    -0.279 C  
HETATM    5  C   UNL     1     -10.850  14.568  67.687  1.00  0.00    -0.273 C  
HETATM    6  C   UNL     1     -12.085  13.892  67.076  1.00  0.00    -0.451 C  
HETATM    7  C   UNL     1     -11.773  12.459  66.617  1.00  0.00    -0.372 C  
ENDROOT
BRANCH   5   8
HETATM    8  N   UNL     1     -11.100  15.959  68.071  1.00  0.00    -0.338 N  
HETATM    9  H   UNL     1     -11.697  16.545  67.486  1.00  0.00     0.000 HD 
BRANCH   8  10
HETATM   10  C   UNL     1     -10.540  16.483  69.209  1.00  0.00    -0.327 C  
HETATM   11  O   UNL     1     -10.119  15.792  70.131  1.00  0.00    -0.264 OA 
BRANCH  10  12
HETATM   12  N   UNL     1     -10.599  17.865  69.229  1.00  0.00    -0.323 N  
HETATM   13  H   UNL     1     -11.283  18.360  69.802  1.00  0.00     0.000 HD 
BRANCH  12  14
HETATM   14  C   UNL     1      -9.674  18.561  68.422  1.00  0.00    -0.364 A  
HETATM   15  C   UNL     1      -7.913  19.600  66.530  1.00  0.00    -0.321 A  
HETATM   16  C   UNL     1      -7.033  20.054  65.496  1.00  0.00    -0.310 C  
HETATM   17  N   UNL     1      -6.321  20.414  64.654  1.00  0.00    -0.292 NA 
HETATM   18  C   UNL     1      -8.324  18.218  68.483  1.00  0.00    -0.327 A  
HETATM   19  C   UNL     1      -9.250  20.005  66.529  1.00  0.00    -0.471 A  
HETATM   20  C   UNL     1     -10.128  19.486  67.476  1.00  0.00    -0.524 A  
HETATM   21  C   UNL     1      -7.449  18.722  67.517  1.00  0.00    -0.241 A  
ENDBRANCH  12  14
ENDBRANCH  10  12
ENDBRANCH   8  10
ENDBRANCH   5   8
BRANCH   7  22
HETATM   22  C   UNL     1     -11.622  11.552  67.817  1.00  0.00    -0.267 A  
HETATM   23  N   UNL     1     -10.889  10.457  67.889  1.00  0.00    -0.259 NA 
HETATM   24  N   UNL     1     -12.261  11.789  69.010  1.00  0.00    -0.280 NA 
HETATM   25  C   UNL     1     -11.065   9.976  69.158  1.00  0.00    -0.190 A  
HETATM   26  H   UNL     1     -10.311  10.053  67.152  1.00  0.00     0.000 HD 
HETATM   27  C   UNL     1     -11.931  10.786  69.884  1.00  0.00    -0.342 A  
HETATM   28  C   UNL     1     -10.511   8.839  69.762  1.00  0.00    -0.222 A  
HETATM   29  C   UNL     1     -12.297  10.519  71.204  1.00  0.00    -0.510 A  
HETATM   30  C   UNL     1     -11.731   9.382  71.794  1.00  0.00    -0.444 A  
HETATM   31  C   UNL     1     -10.852   8.555  71.089  1.00  0.00    -0.298 A  
ENDBRANCH   7  22
TORSDOF 5
ENDMDL
MODEL       26
REMARK 921   NORMALIZED FREE ENERGY PREDICTED BY IDOCK:   -7.07 KCAL/MOL
REMARK 922        TOTAL FREE ENERGY PREDICTED BY IDOCK:   -9.91 KCAL/MOL
REMARK 923 INTER-LIGAND FREE ENERGY PREDICTED BY IDOCK:  -10.12 KCAL/MOL
REMARK 924 INTRA-LIGAND FREE ENERGY PREDICTED BY IDOCK:    0.21 KCAL/MOL
REMARK 927      BINDING AFFINITY PREDICTED BY RF-SCORE:    0.00 PKD
ROOT
HETATM    1  C   UNL     1     -11.353  15.943  69.453  1.00  0.00    -0.349 C  
HETATM    2  N   UNL     1     -10.117  16.557  68.944  1.00  0.00    -0.251 NA 
HETATM    3  C   UNL     1      -9.158  15.524  68.518  1.00  0.00    -0.196 C  
HETATM    4  C   UNL     1      -9.521  14.800  67.226  1.00  0.00    -0.217 C  
HETATM    5  C   UNL     1      -9.860  15.779  66.092  1.00  0.00    -0.315 C  
HETATM    6  C   UNL     1     -10.869  16.841  66.550  1.00  0.00     0.006 C  
HETATM    7  C   UNL     1     -10.418  17.521  67.853  1.00  0.00    -0.384 C  
ENDROOT
BRANCH   5   8
HETATM    8  N   UNL     1     -10.298  15.067  64.889  1.00  0.00    -0.453 N  
HETATM    9  H   UNL     1      -9.763  14.266  64.553  1.00  0.00     0.000 HD 
BRANCH   8  10
HETATM   10  C   UNL     1     -11.421  15.468  64.210  1.00  0.00    -0.180 C  
HETATM   11  O   UNL     1     -11.657  16.638  63.930  1.00  0.00    -1.204 OA 
BRANCH  10  12
HETATM   12  N   UNL     1     -12.288  14.416  63.974  1.00  0.00    -0.931 N  
HETATM   13  H   UNL     1     -13.196  14.563  63.532  1.00  0.00     0.000 HD 
BRANCH  12  14
HETATM   14  C   UNL     1     -11.862  13.130  64.370  1.00  0.00    -0.388 A  
HETATM   15  C   UNL     1     -10.629  10.794  65.256  1.00  0.00    -0.230 A  
HETATM   16  C   UNL     1      -9.911   9.651  65.734  1.00  0.00    -0.302 C  
HETATM   17  N   UNL     1      -9.322   8.730  66.120  1.00  0.00    -0.217 NA 
HETATM   18  C   UNL     1     -11.187  12.323  63.455  1.00  0.00    -0.535 A  
HETATM   19  C   UNL     1     -11.380  11.563  66.149  1.00  0.00    -0.200 A  
HETATM   20  C   UNL     1     -11.996  12.728  65.703  1.00  0.00    -0.503 A  
HETATM   21  C   UNL     1     -10.548  11.166  63.908  1.00  0.00    -0.431 A  
ENDBRANCH  12  14
ENDBRANCH  10  12
ENDBRANCH   8  10
ENDBRANCH   5   8
BRANCH   7  22
HETATM   22  C   UNL     1      -9.258  18.450  67.579  1.00  0.00    -0.272 A  
HETATM   23  N   UNL     1      -8.883  18.916  66.403  1.00  0.00    -0.348 NA 
HETATM   24  N   UNL     1      -8.441  18.929  68.575  1.00  0.00    -0.340 NA 
HETATM   25  C   UNL     1      -7.795  19.709  66.647  1.00  0.00    -0.287 A  
HETATM   26  H   UNL     1      -9.314  18.724  65.498  1.00  0.00     0.000 HD 
HETATM   27  C   UNL     1      -7.486  19.729  68.003  1.00  0.00    -0.294 A  
HETATM   28  C   UNL     1      -7.014  20.449  65.749  1.00  0.00    -0.262 A  
HETATM   29  C   UNL     1      -6.413  20.449  68.530  1.00  0.00    -0.330 A  
HETATM   30  C   UNL     1      -5.645  21.185  67.618  1.00  0.00    -0.376 A  
HETATM   31  C   UNL     1      -5.939  21.189  66.252  1.00  0.00    -0.328 A  
ENDBRANCH   7  22
TORSDOF 5
ENDMDL
MODEL       27
REMARK 921   NORMALIZED FREE ENERGY PREDICTED BY IDOCK:   -6.96 KCAL/MOL
REMARK 922        TOTAL FREE ENERGY PREDICTED BY IDOCK:   -9.77 KCAL/MOL
REMARK 923 INTER-LIGAND FREE ENERGY PREDICTED BY IDOCK:   -8.48 KCAL/MOL
REMARK 924 INTRA-LIGAND FREE ENERGY PREDICTED BY IDOCK:   -1.30 KCAL/MOL
REMARK 927      BINDING AFFINITY PREDICTED BY RF-SCORE:    0.00 PKD
ROOT
HETATM    1  C   UNL     1      -7.990  10.023  64.934  1.00  0.00    -0.140 C  
HETATM    2  N   UNL     1      -8.819  11.106  65.484  1.00  0.00    -0.175 NA 
HETATM    3  C   UNL     1     -10.203  10.648  65.692  1.00  0.00    -0.253 C  
HETATM    4  C   UNL     1     -10.397   9.689  66.861  1.00  0.00    -0.307 C  
HETATM    5  C   UNL     1      -9.761  10.219  68.154  1.00  0.00    -0.143 C  
HETATM    6  C   UNL     1      -8.316  10.681  67.922  1.00  0.00    -0.120 C  
HETATM    7  C   UNL     1      -8.219  11.647  66.731  1.00  0.00    -0.161 C  
ENDROOT
BRANCH   5   8
HETATM    8  N   UNL     1      -9.874   9.243  69.241  1.00  0.00    -0.167 N  
HETATM    9  H   UNL     1      -9.400   8.344  69.163  1.00  0.00     0.000 HD 
BRANCH   8  10
HETATM   10  C   UNL     1     -10.611   9.528  70.363  1.00  0.00    -0.276 C  
HETATM   11  O   UNL     1     -10.172   9.418  71.503  1.00  0.00    -0.308 OA 
BRANCH  10  12
HETATM   12  N   UNL     1     -11.920   9.852  70.055  1.00  0.00    -0.461 N  
HETATM   13  H   UNL     1     -12.510   9.224  69.508  1.00  0.00     0.000 HD 
BRANCH  12  14
HETATM   14  C   UNL     1     -12.406  11.089  70.530  1.00  0.00    -0.373 A  
HETATM   15  C   UNL     1     -12.993  13.535  71.729  1.00  0.00    -0.439 A  
HETATM   16  C   UNL     1     -13.204  14.783  72.398  1.00  0.00    -0.389 C  
HETATM   17  N   UNL     1     -13.369  15.791  72.946  1.00  0.00    -0.534 NA 
HETATM   18  C   UNL     1     -13.192  11.116  71.681  1.00  0.00    -0.449 A  
HETATM   19  C   UNL     1     -12.278  13.505  70.529  1.00  0.00    -0.433 A  
HETATM   20  C   UNL     1     -11.987  12.282  69.931  1.00  0.00    -0.377 A  
HETATM   21  C   UNL     1     -13.463  12.342  72.294  1.00  0.00    -0.428 A  
ENDBRANCH  12  14
ENDBRANCH  10  12
ENDBRANCH   8  10
ENDBRANCH   5   8
BRANCH   7  22
HETATM   22  C   UNL     1      -8.801  12.991  67.105  1.00  0.00    -0.218 A  
HETATM   23  N   UNL     1      -9.328  13.878  66.282  1.00  0.00    -0.468 NA 
HETATM   24  N   UNL     1      -8.843  13.446  68.402  1.00  0.00    -0.165 NA 
HETATM   25  C   UNL     1      -9.715  14.929  67.067  1.00  0.00    -0.235 A  
HETATM   26  H   UNL     1      -9.428  13.796  65.270  1.00  0.00     0.000 HD 
HETATM   27  C   UNL     1      -9.413  14.692  68.404  1.00  0.00    -0.209 A  
HETATM   28  C   UNL     1     -10.334  16.132  66.701  1.00  0.00    -0.297 A  
HETATM   29  C   UNL     1      -9.687  15.608  69.421  1.00  0.00    -0.292 A  
HETATM   30  C   UNL     1     -10.309  16.802  69.038  1.00  0.00    -0.326 A  
HETATM   31  C   UNL     1     -10.630  17.063  67.702  1.00  0.00    -0.333 A  
ENDBRANCH   7  22
TORSDOF 5
ENDMDL
MODEL       28
REMARK 921   NORMALIZED FREE ENERGY PREDICTED BY IDOCK:   -6.94 KCAL/MOL
REMARK 922        TOTAL FREE ENERGY PREDICTED BY IDOCK:   -9.74 KCAL/MOL
REMARK 923 INTER-LIGAND FREE ENERGY PREDICTED BY IDOCK:   -9.14 KCAL/MOL
REMARK 924 INTRA-LIGAND FREE ENERGY PREDICTED BY IDOCK:   -0.60 KCAL/MOL
REMARK 927      BINDING AFFINITY PREDICTED BY RF-SCORE:    0.00 PKD
ROOT
HETATM    1  C   UNL     1     -10.598  15.211  65.045  1.00  0.00    -0.413 C  
HETATM    2  N   UNL     1     -11.481  14.814  66.153  1.00  0.00    -0.338 NA 
HETATM    3  C   UNL     1     -12.514  13.875  65.685  1.00  0.00    -0.505 C  
HETATM    4  C   UNL     1     -12.013  12.470  65.369  1.00  0.00    -0.492 C  
HETATM    5  C   UNL     1     -11.173  11.885  66.514  1.00  0.00    -0.327 C  
HETATM    6  C   UNL     1     -10.094  12.873  66.980  1.00  0.00    -0.245 C  
HETATM    7  C   UNL     1     -10.691  14.257  67.282  1.00  0.00    -0.277 C  
ENDROOT
BRANCH   5   8
HETATM    8  N   UNL     1     -10.621  10.577  66.154  1.00  0.00    -0.162 N  
HETATM    9  H   UNL     1     -10.646  10.268  65.183  1.00  0.00     0.000 HD 
BRANCH   8  10
HETATM   10  C   UNL     1     -10.073   9.762  67.113  1.00  0.00    -0.211 C  
HETATM   11  O   UNL     1      -8.867   9.571  67.225  1.00  0.00    -0.127 OA 
BRANCH  10  12
HETATM   12  N   UNL     1     -11.041   9.114  67.859  1.00  0.00    -0.489 N  
HETATM   13  H   UNL     1     -11.845   9.615  68.238  1.00  0.00     0.000 HD 
BRANCH  12  14
HETATM   14  C   UNL     1     -10.869   7.730  68.074  1.00  0.00     0.021 A  
HETATM   15  C   UNL     1     -10.100   5.068  68.369  1.00  0.00    -0.176 A  
HETATM   16  C   UNL     1      -9.608   3.729  68.491  1.00  0.00    -0.105 C  
HETATM   17  N   UNL     1      -9.203   2.647  68.586  1.00  0.00    -0.164 NA 
HETATM   18  C   UNL     1     -11.031   6.849  67.006  1.00  0.00    -0.404 A  
HETATM   19  C   UNL     1     -10.021   5.937  69.460  1.00  0.00    -0.238 A  
HETATM   20  C   UNL     1     -10.408   7.266  69.311  1.00  0.00    -0.208 A  
HETATM   21  C   UNL     1     -10.620   5.521  67.149  1.00  0.00    -0.313 A  
ENDBRANCH  12  14
ENDBRANCH  10  12
ENDBRANCH   8  10
ENDBRANCH   5   8
BRANCH   7  22
HETATM   22  C   UNL     1     -11.488  14.210  68.565  1.00  0.00    -0.300 A  
HETATM   23  N   UNL     1     -12.160  15.205  69.111  1.00  0.00    -0.534 NA 
HETATM   24  N   UNL     1     -11.601  13.071  69.326  1.00  0.00    -0.296 NA 
HETATM   25  C   UNL     1     -12.714  14.696  70.254  1.00  0.00    -0.273 A  
HETATM   26  H   UNL     1     -12.249  16.157  68.756  1.00  0.00     0.000 HD 
HETATM   27  C   UNL     1     -12.371  13.359  70.423  1.00  0.00    -0.312 A  
HETATM   28  C   UNL     1     -13.528  15.326  71.206  1.00  0.00    -0.591 A  
HETATM   29  C   UNL     1     -12.790  12.596  71.514  1.00  0.00    -0.368 A  
HETATM   30  C   UNL     1     -13.606  13.241  72.452  1.00  0.00    -0.694 A  
HETATM   31  C   UNL     1     -13.972  14.582  72.303  1.00  0.00    -0.600 A  
ENDBRANCH   7  22
TORSDOF 5
ENDMDL
MODEL       29
REMARK 921   NORMALIZED FREE ENERGY PREDICTED BY IDOCK:   -6.86 KCAL/MOL
REMARK 922        TOTAL FREE ENERGY PREDICTED BY IDOCK:   -9.64 KCAL/MOL
REMARK 923 INTER-LIGAND FREE ENERGY PREDICTED BY IDOCK:   -8.67 KCAL/MOL
REMARK 924 INTRA-LIGAND FREE ENERGY PREDICTED BY IDOCK:   -0.98 KCAL/MOL
REMARK 927      BINDING AFFINITY PREDICTED BY RF-SCORE:    0.00 PKD
ROOT
HETATM    1  C   UNL     1      -9.658   8.368  65.961  1.00  0.00    -0.126 C  
HETATM    2  N   UNL     1      -8.803   9.565  65.957  1.00  0.00    -0.149 NA 
HETATM    3  C   UNL     1      -8.225   9.788  64.621  1.00  0.00    -0.150 C  
HETATM    4  C   UNL     1      -9.207  10.290  63.568  1.00  0.00    -0.321 C  
HETATM    5  C   UNL     1     -10.012  11.501  64.061  1.00  0.00    -0.303 C  
HETATM    6  C   UNL     1     -10.616  11.247  65.449  1.00  0.00    -0.312 C  
HETATM    7  C   UNL     1      -9.554  10.752  66.443  1.00  0.00    -0.189 C  
ENDROOT
BRANCH   5   8
HETATM    8  N   UNL     1     -11.015  11.909  63.075  1.00  0.00    -0.670 N  
HETATM    9  H   UNL     1     -10.846  11.742  62.083  1.00  0.00     0.000 HD 
BRANCH   8  10
HETATM   10  C   UNL     1     -12.181  12.514  63.473  1.00  0.00    -0.558 C  
HETATM   11  O   UNL     1     -13.205  11.895  63.738  1.00  0.00    -0.655 OA 
BRANCH  10  12
HETATM   12  N   UNL     1     -12.086  13.894  63.441  1.00  0.00    -1.002 N  
HETATM   13  H   UNL     1     -12.134  14.411  62.562  1.00  0.00     0.000 HD 
BRANCH  12  14
HETATM   14  C   UNL     1     -11.921  14.557  64.676  1.00  0.00    -0.468 A  
HETATM   15  C   UNL     1     -11.242  15.586  67.174  1.00  0.00    -0.204 A  
HETATM   16  C   UNL     1     -10.813  16.048  68.460  1.00  0.00    -0.304 C  
HETATM   17  N   UNL     1     -10.461  16.414  69.502  1.00  0.00    -0.299 NA 
HETATM   18  C   UNL     1     -12.518  14.028  65.819  1.00  0.00    -0.523 A  
HETATM   19  C   UNL     1     -10.714  16.167  66.019  1.00  0.00    -0.245 A  
HETATM   20  C   UNL     1     -11.056  15.652  64.771  1.00  0.00    -0.426 A  
HETATM   21  C   UNL     1     -12.156  14.530  67.071  1.00  0.00    -0.303 A  
ENDBRANCH  12  14
ENDBRANCH  10  12
ENDBRANCH   8  10
ENDBRANCH   5   8
BRANCH   7  22
HETATM   22  C   UNL     1      -8.636  11.887  66.830  1.00  0.00    -0.181 A  
HETATM   23  N   UNL     1      -8.941  13.171  66.863  1.00  0.00    -0.284 NA 
HETATM   24  N   UNL     1      -7.328  11.688  67.206  1.00  0.00    -0.128 NA 
HETATM   25  C   UNL     1      -7.801  13.813  67.266  1.00  0.00    -0.097 A  
HETATM   26  H   UNL     1      -9.840  13.596  66.637  1.00  0.00     0.000 HD 
HETATM   27  C   UNL     1      -6.767  12.908  67.478  1.00  0.00    -0.154 A  
HETATM   28  C   UNL     1      -7.577  15.181  67.471  1.00  0.00    -0.216 A  
HETATM   29  C   UNL     1      -5.487  13.295  67.881  1.00  0.00    -0.118 A  
HETATM   30  C   UNL     1      -5.282  14.665  68.086  1.00  0.00    -0.119 A  
HETATM   31  C   UNL     1      -6.307  15.594  67.887  1.00  0.00    -0.165 A  
ENDBRANCH   7  22
TORSDOF 5
ENDMDL
MODEL       30
REMARK 921   NORMALIZED FREE ENERGY PREDICTED BY IDOCK:   -6.86 KCAL/MOL
REMARK 922        TOTAL FREE ENERGY PREDICTED BY IDOCK:   -9.64 KCAL/MOL
REMARK 923 INTER-LIGAND FREE ENERGY PREDICTED BY IDOCK:   -8.48 KCAL/MOL
REMARK 924 INTRA-LIGAND FREE ENERGY PREDICTED BY IDOCK:   -1.16 KCAL/MOL
REMARK 927      BINDING AFFINITY PREDICTED BY RF-SCORE:    0.00 PKD
ROOT
HETATM    1  C   UNL     1     -10.606   9.122  67.505  1.00  0.00    -0.249 C  
HETATM    2  N   UNL     1     -10.769  10.146  68.549  1.00  0.00    -0.218 NA 
HETATM    3  C   UNL     1      -9.501  10.365  69.267  1.00  0.00    -0.198 C  
HETATM    4  C   UNL     1      -8.432  11.111  68.476  1.00  0.00    -0.156 C  
HETATM    5  C   UNL     1      -8.974  12.404  67.850  1.00  0.00    -0.184 C  
HETATM    6  C   UNL     1     -10.288  12.155  67.096  1.00  0.00    -0.233 C  
HETATM    7  C   UNL     1     -11.306  11.406  67.971  1.00  0.00    -0.303 C  
ENDROOT
BRANCH   5   8
HETATM    8  N   UNL     1      -7.961  13.056  67.016  1.00  0.00    -0.389 N  
HETATM    9  H   UNL     1      -8.066  13.058  66.002  1.00  0.00     0.000 HD 
BRANCH   8  10
HETATM   10  C   UNL     1      -6.871  13.663  67.588  1.00  0.00    -0.174 C  
HETATM   11  O   UNL     1      -5.713  13.361  67.320  1.00  0.00    -0.353 OA 
BRANCH  10  12
HETATM   12  N   UNL     1      -7.237  14.575  68.562  1.00  0.00    -0.112 N  
HETATM   13  H   UNL     1      -7.041  14.407  69.550  1.00  0.00     0.000 HD 
BRANCH  12  14
HETATM   14  C   UNL     1      -7.894  15.748  68.133  1.00  0.00    -0.131 A  
HETATM   15  C   UNL     1      -9.334  17.811  66.935  1.00  0.00    -0.272 A  
HETATM   16  C   UNL     1     -10.103  18.802  66.246  1.00  0.00    -0.409 C  
HETATM   17  N   UNL     1     -10.727  19.600  65.681  1.00  0.00    -0.444 NA 
HETATM   18  C   UNL     1      -7.253  16.597  67.231  1.00  0.00    -0.199 A  
HETATM   19  C   UNL     1      -9.945  17.009  67.903  1.00  0.00    -0.281 A  
HETATM   20  C   UNL     1      -9.223  15.980  68.501  1.00  0.00    -0.206 A  
HETATM   21  C   UNL     1      -7.985  17.614  66.614  1.00  0.00    -0.285 A  
ENDBRANCH  12  14
ENDBRANCH  10  12
ENDBRANCH   8  10
ENDBRANCH   5   8
BRANCH   7  22
HETATM   22  C   UNL     1     -11.855  12.330  69.034  1.00  0.00    -0.305 A  
HETATM   23  N   UNL     1     -11.905  13.647  68.983  1.00  0.00    -0.333 NA 
HETATM   24  N   UNL     1     -12.387  11.868  70.214  1.00  0.00    -0.247 NA 
HETATM   25  C   UNL     1     -12.477  14.043  70.162  1.00  0.00    -0.319 A  
HETATM   26  H   UNL     1     -11.583  14.248  68.223  1.00  0.00     0.000 HD 
HETATM   27  C   UNL     1     -12.781  12.947  70.962  1.00  0.00    -0.251 A  
HETATM   28  C   UNL     1     -12.768  15.336  70.619  1.00  0.00    -0.470 A  
HETATM   29  C   UNL     1     -13.361  13.064  72.226  1.00  0.00    -0.606 A  
HETATM   30  C   UNL     1     -13.649  14.363  72.665  1.00  0.00    -0.589 A  
HETATM   31  C   UNL     1     -13.360  15.481  71.878  1.00  0.00    -0.569 A  
ENDBRANCH   7  22
TORSDOF 5
ENDMDL
MODEL       31
REMARK 921   NORMALIZED FREE ENERGY PREDICTED BY IDOCK:   -6.85 KCAL/MOL
REMARK 922        TOTAL FREE ENERGY PREDICTED BY IDOCK:   -9.62 KCAL/MOL
REMARK 923 INTER-LIGAND FREE ENERGY PREDICTED BY IDOCK:   -8.66 KCAL/MOL
REMARK 924 INTRA-LIGAND FREE ENERGY PREDICTED BY IDOCK:   -0.96 KCAL/MOL
REMARK 927      BINDING AFFINITY PREDICTED BY RF-SCORE:    0.00 PKD
ROOT
HETATM    1  C   UNL     1      -8.775   5.498  70.270  1.00  0.00    -0.130 C  
HETATM    2  N   UNL     1      -9.422   6.384  69.290  1.00  0.00    -0.136 NA 
HETATM    3  C   UNL     1     -10.862   6.090  69.191  1.00  0.00    -0.352 C  
HETATM    4  C   UNL     1     -11.696   6.536  70.386  1.00  0.00    -0.439 C  
HETATM    5  C   UNL     1     -11.429   8.001  70.761  1.00  0.00    -0.263 C  
HETATM    6  C   UNL     1      -9.926   8.287  70.872  1.00  0.00    -0.223 C  
HETATM    7  C   UNL     1      -9.168   7.811  69.623  1.00  0.00    -0.153 C  
ENDROOT
BRANCH   5   8
HETATM    8  N   UNL     1     -12.167   8.383  71.968  1.00  0.00    -0.339 N  
HETATM    9  H   UNL     1     -11.800   8.131  72.885  1.00  0.00     0.000 HD 
BRANCH   8  10
HETATM   10  C   UNL     1     -13.347   9.078  71.875  1.00  0.00    -0.417 C  
HETATM   11  O   UNL     1     -14.293   8.709  71.187  1.00  0.00    -0.277 OA 
BRANCH  10  12
HETATM   12  N   UNL     1     -13.299  10.277  72.563  1.00  0.00    -0.504 N  
HETATM   13  H   UNL     1     -13.396  10.313  73.578  1.00  0.00     0.000 HD 
BRANCH  12  14
HETATM   14  C   UNL     1     -13.109  11.449  71.800  1.00  0.00    -0.418 A  
HETATM   15  C   UNL     1     -12.340  13.800  70.517  1.00  0.00    -0.429 A  
HETATM   16  C   UNL     1     -11.856  15.005  69.913  1.00  0.00    -0.324 C  
HETATM   17  N   UNL     1     -11.458  15.980  69.431  1.00  0.00    -0.343 NA 
HETATM   18  C   UNL     1     -13.504  12.678  72.328  1.00  0.00    -0.541 A  
HETATM   19  C   UNL     1     -12.022  12.564  69.949  1.00  0.00    -0.371 A  
HETATM   20  C   UNL     1     -12.409  11.391  70.591  1.00  0.00    -0.466 A  
HETATM   21  C   UNL     1     -13.095  13.854  71.696  1.00  0.00    -0.446 A  
ENDBRANCH  12  14
ENDBRANCH  10  12
ENDBRANCH   8  10
ENDBRANCH   5   8
BRANCH   7  22
HETATM   22  C   UNL     1      -9.461   8.727  68.457  1.00  0.00    -0.145 A  
HETATM   23  N   UNL     1      -9.425   8.410  67.177  1.00  0.00    -0.154 NA 
HETATM   24  N   UNL     1      -9.814  10.046  68.622  1.00  0.00    -0.155 NA 
HETATM   25  C   UNL     1      -9.757   9.552  66.502  1.00  0.00    -0.222 A  
HETATM   26  H   UNL     1      -9.196   7.501  66.774  1.00  0.00     0.000 HD 
HETATM   27  C   UNL     1      -9.997  10.601  67.383  1.00  0.00    -0.181 A  
HETATM   28  C   UNL     1      -9.873   9.768  65.122  1.00  0.00    -0.294 A  
HETATM   29  C   UNL     1     -10.342  11.887  66.961  1.00  0.00    -0.239 A  
HETATM   30  C   UNL     1     -10.457  12.083  65.579  1.00  0.00    -0.307 A  
HETATM   31  C   UNL     1     -10.229  11.043  64.672  1.00  0.00    -0.392 A  
ENDBRANCH   7  22
TORSDOF 5
ENDMDL
MODEL       32
REMARK 921   NORMALIZED FREE ENERGY PREDICTED BY IDOCK:   -6.80 KCAL/MOL
REMARK 922        TOTAL FREE ENERGY PREDICTED BY IDOCK:   -9.56 KCAL/MOL
REMARK 923 INTER-LIGAND FREE ENERGY PREDICTED BY IDOCK:   -8.86 KCAL/MOL
REMARK 924 INTRA-LIGAND FREE ENERGY PREDICTED BY IDOCK:   -0.70 KCAL/MOL
REMARK 927      BINDING AFFINITY PREDICTED BY RF-SCORE:    0.00 PKD
ROOT
HETATM    1  C   UNL     1      -9.965  11.916  64.712  1.00  0.00    -0.235 C  
HETATM    2  N   UNL     1      -9.914  11.574  66.142  1.00  0.00    -0.216 NA 
HETATM    3  C   UNL     1      -8.932  12.418  66.844  1.00  0.00    -0.212 C  
HETATM    4  C   UNL     1      -9.354  13.870  67.042  1.00  0.00    -0.255 C  
HETATM    5  C   UNL     1     -10.758  13.985  67.651  1.00  0.00    -0.257 C  
HETATM    6  C   UNL     1     -11.770  13.109  66.900  1.00  0.00    -0.441 C  
HETATM    7  C   UNL     1     -11.265  11.665  66.754  1.00  0.00    -0.308 C  
ENDROOT
BRANCH   5   8
HETATM    8  N   UNL     1     -11.184  15.383  67.745  1.00  0.00    -0.324 N  
HETATM    9  H   UNL     1     -11.275  15.941  66.896  1.00  0.00     0.000 HD 
BRANCH   8  10
HETATM   10  C   UNL     1     -11.460  15.950  68.964  1.00  0.00    -0.380 C  
HETATM   11  O   UNL     1     -12.593  16.031  69.428  1.00  0.00     0.004 OA 
BRANCH  10  12
HETATM   12  N   UNL     1     -10.333  16.499  69.549  1.00  0.00    -0.286 N  
HETATM   13  H   UNL     1     -10.046  16.243  70.494  1.00  0.00     0.000 HD 
BRANCH  12  14
HETATM   14  C   UNL     1      -9.598  17.427  68.782  1.00  0.00    -0.267 A  
HETATM   15  C   UNL     1      -8.023  19.438  67.668  1.00  0.00    -0.318 A  
HETATM   16  C   UNL     1      -7.191  20.502  67.193  1.00  0.00    -0.315 C  
HETATM   17  N   UNL     1      -6.517  21.367  66.817  1.00  0.00    -0.485 NA 
HETATM   18  C   UNL     1     -10.184  18.646  68.440  1.00  0.00    -0.415 A  
HETATM   19  C   UNL     1      -7.463  18.186  67.934  1.00  0.00    -0.228 A  
HETATM   20  C   UNL     1      -8.252  17.183  68.489  1.00  0.00    -0.261 A  
HETATM   21  C   UNL     1      -9.386  19.660  67.906  1.00  0.00    -0.424 A  
ENDBRANCH  12  14
ENDBRANCH  10  12
ENDBRANCH   8  10
ENDBRANCH   5   8
BRANCH   7  22
HETATM   22  C   UNL     1     -11.334  10.954  68.086  1.00  0.00    -0.315 A  
HETATM   23  N   UNL     1     -12.388  10.860  68.874  1.00  0.00    -0.759 NA 
HETATM   24  N   UNL     1     -10.257  10.300  68.634  1.00  0.00    -0.171 NA 
HETATM   25  C   UNL     1     -11.977  10.133  69.958  1.00  0.00    -0.136 A  
HETATM   26  H   UNL     1     -13.317  11.248  68.711  1.00  0.00     0.000 HD 
HETATM   27  C   UNL     1     -10.638   9.776  69.842  1.00  0.00    -0.265 A  
HETATM   28  C   UNL     1     -12.702   9.738  71.091  1.00  0.00    -0.433 A  
HETATM   29  C   UNL     1      -9.958   9.042  70.815  1.00  0.00    -0.307 A  
HETATM   30  C   UNL     1     -10.699   8.652  71.938  1.00  0.00    -0.414 A  
HETATM   31  C   UNL     1     -12.048   8.991  72.076  1.00  0.00    -0.440 A  
ENDBRANCH   7  22
TORSDOF 5
ENDMDL
MODEL       33
REMARK 921   NORMALIZED FREE ENERGY PREDICTED BY IDOCK:   -6.75 KCAL/MOL
REMARK 922        TOTAL FREE ENERGY PREDICTED BY IDOCK:   -9.49 KCAL/MOL
REMARK 923 INTER-LIGAND FREE ENERGY PREDICTED BY IDOCK:   -9.25 KCAL/MOL
REMARK 924 INTRA-LIGAND FREE ENERGY PREDICTED BY IDOCK:   -0.24 KCAL/MOL
REMARK 927      BINDING AFFINITY PREDICTED BY RF-SCORE:    0.00 PKD
ROOT
HETATM    1  C   UNL     1     -11.530  12.897  68.868  1.00  0.00    -0.304 C  
HETATM    2  N   UNL     1     -10.596  13.971  68.493  1.00  0.00    -0.249 NA 
HETATM    3  C   UNL     1      -9.495  13.440  67.671  1.00  0.00    -0.216 C  
HETATM    4  C   UNL     1      -9.880  13.058  66.246  1.00  0.00    -0.278 C  
HETATM    5  C   UNL     1     -10.646  14.182  65.534  1.00  0.00    -0.326 C  
HETATM    6  C   UNL     1     -11.796  14.714  66.399  1.00  0.00    -0.304 C  
HETATM    7  C   UNL     1     -11.315  15.080  67.812  1.00  0.00    -0.330 C  
ENDROOT
BRANCH   5   8
HETATM    8  N   UNL     1     -11.089  13.762  64.203  1.00  0.00    -0.587 N  
HETATM    9  H   UNL     1     -10.778  14.278  63.380  1.00  0.00     0.000 HD 
BRANCH   8  10
HETATM   10  C   UNL     1     -11.920  12.680  64.052  1.00  0.00    -0.451 C  
HETATM   11  O   UNL     1     -12.918  12.496  64.741  1.00  0.00    -0.827 OA 
BRANCH  10  12
HETATM   12  N   UNL     1     -11.443  11.786  63.110  1.00  0.00    -0.790 N  
HETATM   13  H   UNL     1     -11.944  11.616  62.237  1.00  0.00     0.000 HD 
BRANCH  12  14
HETATM   14  C   UNL     1     -10.235  11.121  63.407  1.00  0.00    -0.380 A  
HETATM   15  C   UNL     1      -8.031   9.456  63.772  1.00  0.00    -0.142 A  
HETATM   16  C   UNL     1      -6.949   8.528  63.904  1.00  0.00    -0.083 C  
HETATM   17  N   UNL     1      -6.078   7.769  64.008  1.00  0.00    -0.056 NA 
HETATM   18  C   UNL     1     -10.155  10.332  64.554  1.00  0.00    -0.286 A  
HETATM   19  C   UNL     1      -8.078  10.313  62.669  1.00  0.00    -0.164 A  
HETATM   20  C   UNL     1      -9.179  11.145  62.490  1.00  0.00    -0.317 A  
HETATM   21  C   UNL     1      -9.061   9.480  64.721  1.00  0.00    -0.271 A  
ENDBRANCH  12  14
ENDBRANCH  10  12
ENDBRANCH   8  10
ENDBRANCH   5   8
BRANCH   7  22
HETATM   22  C   UNL     1     -10.493  16.347  67.769  1.00  0.00    -0.300 A  
HETATM   23  N   UNL     1      -9.321  16.546  68.340  1.00  0.00    -0.214 NA 
HETATM   24  N   UNL     1     -10.904  17.474  67.097  1.00  0.00    -0.176 NA 
HETATM   25  C   UNL     1      -8.970  17.832  68.032  1.00  0.00    -0.263 A  
HETATM   26  H   UNL     1      -8.785  15.879  68.897  1.00  0.00     0.000 HD 
HETATM   27  C   UNL     1      -9.951  18.446  67.260  1.00  0.00    -0.335 A  
HETATM   28  C   UNL     1      -7.818  18.549  68.383  1.00  0.00    -0.332 A  
HETATM   29  C   UNL     1      -9.857  19.766  66.816  1.00  0.00    -0.528 A  
HETATM   30  C   UNL     1      -8.697  20.465  67.173  1.00  0.00    -0.413 A  
HETATM   31  C   UNL     1      -7.693  19.870  67.942  1.00  0.00    -0.329 A  
ENDBRANCH   7  22
TORSDOF 5
ENDMDL
MODEL       34
REMARK 921   NORMALIZED FREE ENERGY PREDICTED BY IDOCK:   -6.72 KCAL/MOL
REMARK 922        TOTAL FREE ENERGY PREDICTED BY IDOCK:   -9.46 KCAL/MOL
REMARK 923 INTER-LIGAND FREE ENERGY PREDICTED BY IDOCK:   -8.87 KCAL/MOL
REMARK 924 INTRA-LIGAND FREE ENERGY PREDICTED BY IDOCK:   -0.59 KCAL/MOL
REMARK 927      BINDING AFFINITY PREDICTED BY RF-SCORE:    0.00 PKD
ROOT
HETATM    1  C   UNL     1     -11.718  15.010  64.556  1.00  0.00    -0.368 C  
HETATM    2  N   UNL     1     -12.123  14.456  65.858  1.00  0.00    -0.374 NA 
HETATM    3  C   UNL     1     -12.231  12.988  65.789  1.00  0.00    -0.453 C  
HETATM    4  C   UNL     1     -10.901  12.247  65.706  1.00  0.00    -0.313 C  
HETATM    5  C   UNL     1      -9.916  12.705  66.791  1.00  0.00    -0.234 C  
HETATM    6  C   UNL     1      -9.807  14.235  66.841  1.00  0.00    -0.264 C  
HETATM    7  C   UNL     1     -11.192  14.895  66.930  1.00  0.00    -0.343 C  
ENDROOT
BRANCH   5   8
HETATM    8  N   UNL     1      -8.614  12.052  66.637  1.00  0.00    -0.288 N  
HETATM    9  H   UNL     1      -7.899  12.483  66.051  1.00  0.00     0.000 HD 
BRANCH   8  10
HETATM   10  C   UNL     1      -8.348  10.865  67.273  1.00  0.00    -0.123 C  
HETATM   11  O   UNL     1      -8.364   9.778  66.705  1.00  0.00    -0.123 OA 
BRANCH  10  12
HETATM   12  N   UNL     1      -8.162  11.036  68.633  1.00  0.00    -0.145 N  
HETATM   13  H   UNL     1      -7.440  11.658  68.998  1.00  0.00     0.000 HD 
BRANCH  12  14
HETATM   14  C   UNL     1      -9.014  10.313  69.495  1.00  0.00    -0.157 A  
HETATM   15  C   UNL     1     -10.664   8.553  70.888  1.00  0.00    -0.268 A  
HETATM   16  C   UNL     1     -11.496   7.578  71.529  1.00  0.00    -0.265 C  
HETATM   17  N   UNL     1     -12.169   6.785  72.039  1.00  0.00    -0.316 NA 
HETATM   18  C   UNL     1     -10.391  10.355  69.286  1.00  0.00    -0.250 A  
HETATM   19  C   UNL     1      -9.293   8.575  71.155  1.00  0.00    -0.249 A  
HETATM   20  C   UNL     1      -8.471   9.457  70.459  1.00  0.00    -0.251 A  
HETATM   21  C   UNL     1     -11.213   9.454  69.967  1.00  0.00    -0.217 A  
ENDBRANCH  12  14
ENDBRANCH  10  12
ENDBRANCH   8  10
ENDBRANCH   5   8
BRANCH   7  22
HETATM   22  C   UNL     1     -11.776  14.691  68.309  1.00  0.00    -0.328 A  
HETATM   23  N   UNL     1     -12.247  15.627  69.111  1.00  0.00    -0.589 NA 
HETATM   24  N   UNL     1     -11.883  13.451  68.892  1.00  0.00    -0.321 NA 
HETATM   25  C   UNL     1     -12.663  14.974  70.240  1.00  0.00    -0.275 A  
HETATM   26  H   UNL     1     -12.293  16.630  68.928  1.00  0.00     0.000 HD 
HETATM   27  C   UNL     1     -12.436  13.606  70.137  1.00  0.00    -0.239 A  
HETATM   28  C   UNL     1     -13.246  15.493  71.403  1.00  0.00    -0.587 A  
HETATM   29  C   UNL     1     -12.754  12.702  71.152  1.00  0.00    -0.347 A  
HETATM   30  C   UNL     1     -13.340  13.238  72.306  1.00  0.00    -0.630 A  
HETATM   31  C   UNL     1     -13.585  14.608  72.432  1.00  0.00    -0.555 A  
ENDBRANCH   7  22
TORSDOF 5
ENDMDL
MODEL       35
REMARK 921   NORMALIZED FREE ENERGY PREDICTED BY IDOCK:   -6.69 KCAL/MOL
REMARK 922        TOTAL FREE ENERGY PREDICTED BY IDOCK:   -9.42 KCAL/MOL
REMARK 923 INTER-LIGAND FREE ENERGY PREDICTED BY IDOCK:   -8.53 KCAL/MOL
REMARK 924 INTRA-LIGAND FREE ENERGY PREDICTED BY IDOCK:   -0.89 KCAL/MOL
REMARK 927      BINDING AFFINITY PREDICTED BY RF-SCORE:    0.00 PKD
ROOT
HETATM    1  C   UNL     1      -7.375   7.591  65.788  1.00  0.00    -0.070 C  
HETATM    2  N   UNL     1      -8.016   8.424  66.816  1.00  0.00    -0.097 NA 
HETATM    3  C   UNL     1      -7.337   9.727  66.929  1.00  0.00    -0.091 C  
HETATM    4  C   UNL     1      -7.583  10.685  65.769  1.00  0.00    -0.120 C  
HETATM    5  C   UNL     1      -9.078  10.837  65.453  1.00  0.00    -0.194 C  
HETATM    6  C   UNL     1      -9.767   9.471  65.328  1.00  0.00    -0.268 C  
HETATM    7  C   UNL     1      -9.468   8.576  66.541  1.00  0.00    -0.218 C  
ENDROOT
BRANCH   5   8
HETATM    8  N   UNL     1      -9.289  11.685  64.278  1.00  0.00    -0.435 N  
HETATM    9  H   UNL     1      -8.597  11.693  63.530  1.00  0.00     0.000 HD 
BRANCH   8  10
HETATM   10  C   UNL     1     -10.411  12.469  64.174  1.00  0.00    -0.403 C  
HETATM   11  O   UNL     1     -11.491  12.049  63.771  1.00  0.00    -0.392 OA 
BRANCH  10  12
HETATM   12  N   UNL     1     -10.150  13.792  64.480  1.00  0.00    -0.665 N  
HETATM   13  H   UNL     1      -9.566  14.373  63.877  1.00  0.00     0.000 HD 
BRANCH  12  14
HETATM   14  C   UNL     1     -10.725  14.305  65.663  1.00  0.00    -0.316 A  
HETATM   15  C   UNL     1     -11.494  15.149  68.205  1.00  0.00    -0.356 A  
HETATM   16  C   UNL     1     -11.799  15.542  69.547  1.00  0.00    -0.372 C  
HETATM   17  N   UNL     1     -12.040  15.855  70.637  1.00  0.00    -0.375 NA 
HETATM   18  C   UNL     1     -11.529  13.477  66.445  1.00  0.00    -0.356 A  
HETATM   19  C   UNL     1     -10.761  16.007  67.381  1.00  0.00    -0.306 A  
HETATM   20  C   UNL     1     -10.379  15.584  66.111  1.00  0.00    -0.327 A  
HETATM   21  C   UNL     1     -11.891  13.892  67.729  1.00  0.00    -0.415 A  
ENDBRANCH  12  14
ENDBRANCH  10  12
ENDBRANCH   8  10
ENDBRANCH   5   8
BRANCH   7  22
HETATM   22  C   UNL     1     -10.227   9.073  67.750  1.00  0.00    -0.230 A  
HETATM   23  N   UNL     1     -11.068  10.089  67.790  1.00  0.00    -0.452 NA 
HETATM   24  N   UNL     1     -10.114   8.486  68.988  1.00  0.00    -0.195 NA 
HETATM   25  C   UNL     1     -11.503  10.160  69.086  1.00  0.00    -0.095 A  
HETATM   26  H   UNL     1     -11.338  10.695  67.016  1.00  0.00     0.000 HD 
HETATM   27  C   UNL     1     -10.912   9.173  69.866  1.00  0.00    -0.204 A  
HETATM   28  C   UNL     1     -12.409  11.055  69.672  1.00  0.00    -0.303 A  
HETATM   29  C   UNL     1     -11.167   9.025  71.231  1.00  0.00    -0.385 A  
HETATM   30  C   UNL     1     -12.078   9.925  71.798  1.00  0.00    -0.382 A  
HETATM   31  C   UNL     1     -12.692  10.922  71.035  1.00  0.00    -0.505 A  
ENDBRANCH   7  22
TORSDOF 5
ENDMDL
MODEL       36
REMARK 921   NORMALIZED FREE ENERGY PREDICTED BY IDOCK:   -6.67 KCAL/MOL
REMARK 922        TOTAL FREE ENERGY PREDICTED BY IDOCK:   -9.39 KCAL/MOL
REMARK 923 INTER-LIGAND FREE ENERGY PREDICTED BY IDOCK:   -9.08 KCAL/MOL
REMARK 924 INTRA-LIGAND FREE ENERGY PREDICTED BY IDOCK:   -0.31 KCAL/MOL
REMARK 927      BINDING AFFINITY PREDICTED BY RF-SCORE:    0.00 PKD
ROOT
HETATM    1  C   UNL     1      -9.243   9.489  65.607  1.00  0.00    -0.223 C  
HETATM    2  N   UNL     1      -9.602  10.218  66.833  1.00  0.00    -0.168 NA 
HETATM    3  C   UNL     1      -8.590  11.241  67.147  1.00  0.00    -0.147 C  
HETATM    4  C   UNL     1      -8.598  12.459  66.229  1.00  0.00     0.170 C  
HETATM    5  C   UNL     1     -10.002  13.060  66.079  1.00  0.00    -0.276 C  
HETATM    6  C   UNL     1     -11.041  11.982  65.741  1.00  0.00    -0.371 C  
HETATM    7  C   UNL     1     -10.965  10.800  66.720  1.00  0.00    -0.148 C  
ENDROOT
BRANCH   5   8
HETATM    8  N   UNL     1     -10.007  14.167  65.121  1.00  0.00    -0.577 N  
HETATM    9  H   UNL     1      -9.369  14.150  64.325  1.00  0.00     0.000 HD 
BRANCH   8  10
HETATM   10  C   UNL     1     -10.860  15.230  65.285  1.00  0.00    -0.403 C  
HETATM   11  O   UNL     1     -11.459  15.762  64.356  1.00  0.00    -0.410 OA 
BRANCH  10  12
HETATM   12  N   UNL     1     -10.881  15.682  66.592  1.00  0.00    -0.299 N  
HETATM   13  H   UNL     1     -11.512  15.277  67.285  1.00  0.00     0.000 HD 
BRANCH  12  14
HETATM   14  C   UNL     1      -9.994  16.726  66.927  1.00  0.00    -0.273 A  
HETATM   15  C   UNL     1      -8.435  19.014  67.243  1.00  0.00    -0.297 A  
HETATM   16  C   UNL     1      -7.687  20.232  67.327  1.00  0.00    -0.321 C  
HETATM   17  N   UNL     1      -7.085  21.221  67.386  1.00  0.00    -0.522 NA 
HETATM   18  C   UNL     1      -8.766  16.814  66.272  1.00  0.00    -0.342 A  
HETATM   19  C   UNL     1      -9.625  18.881  67.962  1.00  0.00    -0.368 A  
HETATM   20  C   UNL     1     -10.401  17.737  67.804  1.00  0.00    -0.382 A  
HETATM   21  C   UNL     1      -7.999  17.973  66.413  1.00  0.00    -0.296 A  
ENDBRANCH  12  14
ENDBRANCH  10  12
ENDBRANCH   8  10
ENDBRANCH   5   8
BRANCH   7  22
HETATM   22  C   UNL     1     -11.525  11.202  68.065  1.00  0.00    -0.293 A  
HETATM   23  N   UNL     1     -12.051  10.400  68.971  1.00  0.00    -0.688 NA 
HETATM   24  N   UNL     1     -11.541  12.506  68.500  1.00  0.00    -0.299 NA 
HETATM   25  C   UNL     1     -12.418  11.208  70.013  1.00  0.00    -0.223 A  
HETATM   26  H   UNL     1     -12.161   9.388  68.908  1.00  0.00     0.000 HD 
HETATM   27  C   UNL     1     -12.120  12.539  69.742  1.00  0.00    -0.224 A  
HETATM   28  C   UNL     1     -13.019  10.868  71.232  1.00  0.00    -0.492 A  
HETATM   29  C   UNL     1     -12.402  13.579  70.629  1.00  0.00    -0.432 A  
HETATM   30  C   UNL     1     -12.999  13.220  71.845  1.00  0.00    -0.409 A  
HETATM   31  C   UNL     1     -13.302  11.889  72.145  1.00  0.00    -0.361 A  
ENDBRANCH   7  22
TORSDOF 5
ENDMDL
MODEL       37
REMARK 921   NORMALIZED FREE ENERGY PREDICTED BY IDOCK:   -6.66 KCAL/MOL
REMARK 922        TOTAL FREE ENERGY PREDICTED BY IDOCK:   -9.38 KCAL/MOL
REMARK 923 INTER-LIGAND FREE ENERGY PREDICTED BY IDOCK:   -8.49 KCAL/MOL
REMARK 924 INTRA-LIGAND FREE ENERGY PREDICTED BY IDOCK:   -0.89 KCAL/MOL
REMARK 927      BINDING AFFINITY PREDICTED BY RF-SCORE:    0.00 PKD
ROOT
HETATM    1  C   UNL     1     -10.575  14.783  65.300  1.00  0.00    -0.395 C  
HETATM    2  N   UNL     1     -10.020  13.496  65.746  1.00  0.00    -0.276 NA 
HETATM    3  C   UNL     1      -9.053  13.696  66.839  1.00  0.00    -0.240 C  
HETATM    4  C   UNL     1      -9.666  14.079  68.181  1.00  0.00    -0.220 C  
HETATM    5  C   UNL     1     -10.809  13.136  68.584  1.00  0.00    -0.259 C  
HETATM    6  C   UNL     1     -11.813  12.948  67.438  1.00  0.00    -0.418 C  
HETATM    7  C   UNL     1     -11.107  12.557  66.130  1.00  0.00    -0.298 C  
ENDROOT
BRANCH   5   8
HETATM    8  N   UNL     1     -11.448  13.575  69.827  1.00  0.00    -0.455 N  
HETATM    9  H   UNL     1     -11.296  14.525  70.164  1.00  0.00     0.000 HD 
BRANCH   8  10
HETATM   10  C   UNL     1     -12.249  12.720  70.541  1.00  0.00    -0.307 C  
HETATM   11  O   UNL     1     -12.813  13.037  71.583  1.00  0.00    -0.338 OA 
BRANCH  10  12
HETATM   12  N   UNL     1     -12.258  11.445  70.002  1.00  0.00    -0.311 N  
HETATM   13  H   UNL     1     -12.510  11.282  69.027  1.00  0.00     0.000 HD 
BRANCH  12  14
HETATM   14  C   UNL     1     -11.905  10.382  70.859  1.00  0.00    -0.377 A  
HETATM   15  C   UNL     1     -11.377   8.012  72.228  1.00  0.00    -0.413 A  
HETATM   16  C   UNL     1     -11.145   6.743  72.849  1.00  0.00    -0.243 C  
HETATM   17  N   UNL     1     -10.963   5.711  73.345  1.00  0.00    -0.274 NA 
HETATM   18  C   UNL     1     -12.852   9.881  71.752  1.00  0.00    -0.540 A  
HETATM   19  C   UNL     1     -10.399   8.566  71.397  1.00  0.00    -0.307 A  
HETATM   20  C   UNL     1     -10.665   9.750  70.716  1.00  0.00    -0.393 A  
HETATM   21  C   UNL     1     -12.594   8.680  72.417  1.00  0.00    -0.426 A  
ENDBRANCH  12  14
ENDBRANCH  10  12
ENDBRANCH   8  10
ENDBRANCH   5   8
BRANCH   7  22
HETATM   22  C   UNL     1     -10.623  11.128  66.208  1.00  0.00    -0.253 A  
HETATM   23  N   UNL     1      -9.698  10.567  65.452  1.00  0.00    -0.237 NA 
HETATM   24  N   UNL     1     -11.119  10.226  67.120  1.00  0.00    -0.188 NA 
HETATM   25  C   UNL     1      -9.601   9.272  65.885  1.00  0.00    -0.275 A  
HETATM   26  H   UNL     1      -9.166  11.007  64.701  1.00  0.00     0.000 HD 
HETATM   27  C   UNL     1     -10.489   9.025  66.925  1.00  0.00    -0.223 A  
HETATM   28  C   UNL     1      -8.767   8.242  65.428  1.00  0.00    -0.147 A  
HETATM   29  C   UNL     1     -10.609   7.780  67.546  1.00  0.00    -0.319 A  
HETATM   30  C   UNL     1      -9.765   6.764  67.079  1.00  0.00    -0.200 A  
HETATM   31  C   UNL     1      -8.858   6.988  66.039  1.00  0.00    -0.155 A  
ENDBRANCH   7  22
TORSDOF 5
ENDMDL
MODEL       38
REMARK 921   NORMALIZED FREE ENERGY PREDICTED BY IDOCK:   -6.63 KCAL/MOL
REMARK 922        TOTAL FREE ENERGY PREDICTED BY IDOCK:   -9.34 KCAL/MOL
REMARK 923 INTER-LIGAND FREE ENERGY PREDICTED BY IDOCK:   -9.17 KCAL/MOL
REMARK 924 INTRA-LIGAND FREE ENERGY PREDICTED BY IDOCK:   -0.17 KCAL/MOL
REMARK 927      BINDING AFFINITY PREDICTED BY RF-SCORE:    0.00 PKD
ROOT
HETATM    1  C   UNL     1     -12.121  13.321  63.308  1.00  0.00    -0.337 C  
HETATM    2  N   UNL     1     -12.054  14.290  64.413  1.00  0.00    -0.479 NA 
HETATM    3  C   UNL     1     -12.840  13.820  65.567  1.00  0.00    -0.419 C  
HETATM    4  C   UNL     1     -12.224  12.656  66.336  1.00  0.00    -0.174 C  
HETATM    5  C   UNL     1     -10.756  12.919  66.703  1.00  0.00    -0.265 C  
HETATM    6  C   UNL     1      -9.950  13.396  65.487  1.00  0.00    -0.226 C  
HETATM    7  C   UNL     1     -10.642  14.573  64.780  1.00  0.00    -0.377 C  
ENDROOT
BRANCH   5   8
HETATM    8  N   UNL     1     -10.155  11.754  67.356  1.00  0.00    -0.194 N  
HETATM    9  H   UNL     1      -9.683  11.046  66.793  1.00  0.00     0.000 HD 
BRANCH   8  10
HETATM   10  C   UNL     1     -10.221  11.604  68.719  1.00  0.00    -0.177 C  
HETATM   11  O   UNL     1     -11.053  12.173  69.419  1.00  0.00    -0.207 OA 
BRANCH  10  12
HETATM   12  N   UNL     1      -9.187  10.826  69.207  1.00  0.00    -0.382 N  
HETATM   13  H   UNL     1      -8.212  11.105  69.094  1.00  0.00     0.000 HD 
BRANCH  12  14
HETATM   14  C   UNL     1      -9.539   9.629  69.866  1.00  0.00    -0.230 A  
HETATM   15  C   UNL     1     -10.455   7.534  71.459  1.00  0.00    -0.226 A  
HETATM   16  C   UNL     1     -10.975   6.529  72.336  1.00  0.00    -0.246 C  
HETATM   17  N   UNL     1     -11.399   5.722  73.052  1.00  0.00    -0.247 NA 
HETATM   18  C   UNL     1      -8.747   9.172  70.919  1.00  0.00    -0.277 A  
HETATM   19  C   UNL     1     -11.202   7.940  70.351  1.00  0.00    -0.240 A  
HETATM   20  C   UNL     1     -10.741   8.986  69.555  1.00  0.00    -0.215 A  
HETATM   21  C   UNL     1      -9.221   8.139  71.731  1.00  0.00    -0.232 A  
ENDBRANCH  12  14
ENDBRANCH  10  12
ENDBRANCH   8  10
ENDBRANCH   5   8
BRANCH   7  22
HETATM   22  C   UNL     1     -10.511  15.827  65.612  1.00  0.00    -0.383 A  
HETATM   23  N   UNL     1     -10.296  15.891  66.913  1.00  0.00    -0.286 NA 
HETATM   24  N   UNL     1     -10.604  17.088  65.072  1.00  0.00    -0.655 NA 
HETATM   25  C   UNL     1     -10.255  17.225  67.217  1.00  0.00    -0.320 A  
HETATM   26  H   UNL     1     -10.183  15.109  67.558  1.00  0.00     0.000 HD 
HETATM   27  C   UNL     1     -10.457  18.002  66.082  1.00  0.00    -0.331 A  
HETATM   28  C   UNL     1     -10.049  17.848  68.455  1.00  0.00    -0.392 A  
HETATM   29  C   UNL     1     -10.478  19.398  66.109  1.00  0.00    -0.600 A  
HETATM   30  C   UNL     1     -10.267  20.004  67.354  1.00  0.00    -0.546 A  
HETATM   31  C   UNL     1     -10.054  19.246  68.508  1.00  0.00    -0.513 A  
ENDBRANCH   7  22
TORSDOF 5
ENDMDL
MODEL       39
REMARK 921   NORMALIZED FREE ENERGY PREDICTED BY IDOCK:   -6.62 KCAL/MOL
REMARK 922        TOTAL FREE ENERGY PREDICTED BY IDOCK:   -9.33 KCAL/MOL
REMARK 923 INTER-LIGAND FREE ENERGY PREDICTED BY IDOCK:   -8.34 KCAL/MOL
REMARK 924 INTRA-LIGAND FREE ENERGY PREDICTED BY IDOCK:   -0.99 KCAL/MOL
REMARK 927      BINDING AFFINITY PREDICTED BY RF-SCORE:    0.00 PKD
ROOT
HETATM    1  C   UNL     1      -5.751   8.443  66.124  1.00  0.00    -0.043 C  
HETATM    2  N   UNL     1      -7.100   8.824  65.677  1.00  0.00    -0.082 NA 
HETATM    3  C   UNL     1      -7.938   7.630  65.476  1.00  0.00    -0.120 C  
HETATM    4  C   UNL     1      -8.385   6.931  66.755  1.00  0.00    -0.116 C  
HETATM    5  C   UNL     1      -9.005   7.911  67.762  1.00  0.00    -0.128 C  
HETATM    6  C   UNL     1      -8.113   9.143  67.968  1.00  0.00    -0.105 C  
HETATM    7  C   UNL     1      -7.719   9.784  66.628  1.00  0.00    -0.102 C  
ENDROOT
BRANCH   5   8
HETATM    8  N   UNL     1      -9.340   7.240  69.020  1.00  0.00    -0.148 N  
HETATM    9  H   UNL     1      -8.594   6.946  69.649  1.00  0.00     0.000 HD 
BRANCH   8  10
HETATM   10  C   UNL     1     -10.648   7.002  69.358  1.00  0.00    -0.230 C  
HETATM   11  O   UNL     1     -11.486   6.592  68.562  1.00  0.00    -0.193 OA 
BRANCH  10  12
HETATM   12  N   UNL     1     -10.922   7.373  70.662  1.00  0.00    -0.251 N  
HETATM   13  H   UNL     1     -10.600   6.815  71.454  1.00  0.00     0.000 HD 
BRANCH  12  14
HETATM   14  C   UNL     1     -11.666   8.557  70.852  1.00  0.00    -0.245 A  
HETATM   15  C   UNL     1     -12.847  10.978  71.566  1.00  0.00    -0.555 A  
HETATM   16  C   UNL     1     -13.380  12.232  72.007  1.00  0.00    -0.386 C  
HETATM   17  N   UNL     1     -13.806  13.246  72.371  1.00  0.00    -0.663 NA 
HETATM   18  C   UNL     1     -12.719   8.562  71.766  1.00  0.00    -0.385 A  
HETATM   19  C   UNL     1     -11.850  10.955  70.588  1.00  0.00    -0.453 A  
HETATM   20  C   UNL     1     -11.263   9.744  70.231  1.00  0.00    -0.347 A  
HETATM   21  C   UNL     1     -13.291   9.780  72.141  1.00  0.00    -0.527 A  
ENDBRANCH  12  14
ENDBRANCH  10  12
ENDBRANCH   8  10
ENDBRANCH   5   8
BRANCH   7  22
HETATM   22  C   UNL     1      -8.907  10.496  66.025  1.00  0.00    -0.165 A  
HETATM   23  N   UNL     1      -9.232  10.542  64.747  1.00  0.00    -0.209 NA 
HETATM   24  N   UNL     1      -9.813  11.199  66.783  1.00  0.00    -0.196 NA 
HETATM   25  C   UNL     1     -10.372  11.297  64.680  1.00  0.00    -0.315 A  
HETATM   26  H   UNL     1      -8.737  10.105  63.969  1.00  0.00     0.000 HD 
HETATM   27  C   UNL     1     -10.755  11.734  65.943  1.00  0.00    -0.282 A  
HETATM   28  C   UNL     1     -11.138  11.653  63.562  1.00  0.00    -0.476 A  
HETATM   29  C   UNL     1     -11.877  12.534  66.164  1.00  0.00    -0.459 A  
HETATM   30  C   UNL     1     -12.634  12.878  65.036  1.00  0.00    -0.538 A  
HETATM   31  C   UNL     1     -12.274  12.445  63.757  1.00  0.00    -0.626 A  
ENDBRANCH   7  22
TORSDOF 5
ENDMDL
MODEL       40
REMARK 921   NORMALIZED FREE ENERGY PREDICTED BY IDOCK:   -6.61 KCAL/MOL
REMARK 922        TOTAL FREE ENERGY PREDICTED BY IDOCK:   -9.32 KCAL/MOL
REMARK 923 INTER-LIGAND FREE ENERGY PREDICTED BY IDOCK:   -8.90 KCAL/MOL
REMARK 924 INTRA-LIGAND FREE ENERGY PREDICTED BY IDOCK:   -0.41 KCAL/MOL
REMARK 927      BINDING AFFINITY PREDICTED BY RF-SCORE:    0.00 PKD
ROOT
HETATM    1  C   UNL     1      -8.697   8.661  67.505  1.00  0.00    -0.135 C  
HETATM    2  N   UNL     1      -9.274   9.783  68.260  1.00  0.00    -0.129 NA 
HETATM    3  C   UNL     1      -8.574  11.040  67.942  1.00  0.00    -0.133 C  
HETATM    4  C   UNL     1      -8.868  11.610  66.559  1.00  0.00    -0.188 C  
HETATM    5  C   UNL     1     -10.374  11.699  66.279  1.00  0.00    -0.235 C  
HETATM    6  C   UNL     1     -11.085  10.379  66.604  1.00  0.00     0.039 C  
HETATM    7  C   UNL     1     -10.737   9.885  68.017  1.00  0.00    -0.248 C  
ENDROOT
BRANCH   5   8
HETATM    8  N   UNL     1     -10.635  12.159  64.913  1.00  0.00    -0.281 N  
HETATM    9  H   UNL     1     -10.072  11.798  64.143  1.00  0.00     0.000 HD 
BRANCH   8  10
HETATM   10  C   UNL     1     -11.629  13.071  64.659  1.00  0.00    -0.346 C  
HETATM   11  O   UNL     1     -12.822  12.787  64.667  1.00  0.00    -0.705 OA 
BRANCH  10  12
HETATM   12  N   UNL     1     -11.120  14.306  64.301  1.00  0.00    -0.605 N  
HETATM   13  H   UNL     1     -10.803  14.496  63.350  1.00  0.00     0.000 HD 
BRANCH  12  14
HETATM   14  C   UNL     1     -11.058  15.293  65.308  1.00  0.00    -0.376 A  
HETATM   15  C   UNL     1     -10.496  17.129  67.327  1.00  0.00    -0.313 A  
HETATM   16  C   UNL     1     -10.108  18.041  68.361  1.00  0.00    -0.387 C  
HETATM   17  N   UNL     1      -9.786  18.774  69.200  1.00  0.00    -0.260 NA 
HETATM   18  C   UNL     1     -11.232  14.921  66.640  1.00  0.00    -0.340 A  
HETATM   19  C   UNL     1     -10.406  17.521  65.989  1.00  0.00    -0.309 A  
HETATM   20  C   UNL     1     -10.689  16.603  64.982  1.00  0.00    -0.171 A  
HETATM   21  C   UNL     1     -10.925  15.836  67.650  1.00  0.00    -0.302 A  
ENDBRANCH  12  14
ENDBRANCH  10  12
ENDBRANCH   8  10
ENDBRANCH   5   8
BRANCH   7  22
HETATM   22  C   UNL     1     -11.427  10.743  69.052  1.00  0.00    -0.298 A  
HETATM   23  N   UNL     1     -12.069  10.321  70.124  1.00  0.00    -0.428 NA 
HETATM   24  N   UNL     1     -11.454  12.116  68.977  1.00  0.00    -0.274 NA 
HETATM   25  C   UNL     1     -12.524  11.448  70.752  1.00  0.00    -0.365 A  
HETATM   26  H   UNL     1     -12.199   9.354  70.424  1.00  0.00     0.000 HD 
HETATM   27  C   UNL     1     -12.163  12.592  70.049  1.00  0.00    -0.197 A  
HETATM   28  C   UNL     1     -13.262  11.569  71.938  1.00  0.00    -0.479 A  
HETATM   29  C   UNL     1     -12.510  13.880  70.459  1.00  0.00    -0.422 A  
HETATM   30  C   UNL     1     -13.244  13.983  71.648  1.00  0.00    -0.442 A  
HETATM   31  C   UNL     1     -13.613  12.850  72.378  1.00  0.00    -0.577 A  
ENDBRANCH   7  22
TORSDOF 5
ENDMDL
MODEL       41
REMARK 921   NORMALIZED FREE ENERGY PREDICTED BY IDOCK:   -6.58 KCAL/MOL
REMARK 922        TOTAL FREE ENERGY PREDICTED BY IDOCK:   -9.27 KCAL/MOL
REMARK 923 INTER-LIGAND FREE ENERGY PREDICTED BY IDOCK:   -8.08 KCAL/MOL
REMARK 924 INTRA-LIGAND FREE ENERGY PREDICTED BY IDOCK:   -1.19 KCAL/MOL
REMARK 927      BINDING AFFINITY PREDICTED BY RF-SCORE:    0.00 PKD
ROOT
HETATM    1  C   UNL     1     -11.032  16.036  67.238  1.00  0.00    -0.207 C  
HETATM    2  N   UNL     1     -11.519  14.728  67.704  1.00  0.00    -0.336 NA 
HETATM    3  C   UNL     1     -12.341  14.079  66.669  1.00  0.00    -0.371 C  
HETATM    4  C   UNL     1     -11.565  13.543  65.470  1.00  0.00    -0.337 C  
HETATM    5  C   UNL     1     -10.376  12.671  65.896  1.00  0.00    -0.276 C  
HETATM    6  C   UNL     1      -9.524  13.368  66.967  1.00  0.00    -0.247 C  
HETATM    7  C   UNL     1     -10.387  13.867  68.136  1.00  0.00    -0.247 C  
ENDROOT
BRANCH   5   8
HETATM    8  N   UNL     1      -9.587  12.245  64.738  1.00  0.00    -0.461 N  
HETATM    9  H   UNL     1      -9.140  12.945  64.146  1.00  0.00     0.000 HD 
BRANCH   8  10
HETATM   10  C   UNL     1      -9.446  10.913  64.440  1.00  0.00    -0.247 C  
HETATM   11  O   UNL     1     -10.003  10.372  63.491  1.00  0.00    -0.277 OA 
BRANCH  10  12
HETATM   12  N   UNL     1      -8.690  10.247  65.388  1.00  0.00    -0.161 N  
HETATM   13  H   UNL     1      -7.905  10.700  65.857  1.00  0.00     0.000 HD 
BRANCH  12  14
HETATM   14  C   UNL     1      -9.051   8.914  65.679  1.00  0.00    -0.212 A  
HETATM   15  C   UNL     1      -9.476   6.320  66.603  1.00  0.00    -0.178 A  
HETATM   16  C   UNL     1      -9.628   5.008  67.156  1.00  0.00    -0.152 C  
HETATM   17  N   UNL     1      -9.743   3.947  67.609  1.00  0.00    -0.150 NA 
HETATM   18  C   UNL     1      -8.278   7.871  65.171  1.00  0.00    -0.143 A  
HETATM   19  C   UNL     1     -10.303   7.357  67.043  1.00  0.00    -0.384 A  
HETATM   20  C   UNL     1     -10.090   8.651  66.579  1.00  0.00    -0.339 A  
HETATM   21  C   UNL     1      -8.477   6.576  65.656  1.00  0.00    -0.146 A  
ENDBRANCH  12  14
ENDBRANCH  10  12
ENDBRANCH   8  10
ENDBRANCH   5   8
BRANCH   7  22
HETATM   22  C   UNL     1     -10.849  12.699  68.976  1.00  0.00    -0.146 A  
HETATM   23  N   UNL     1     -10.315  11.493  69.009  1.00  0.00    -0.364 NA 
HETATM   24  N   UNL     1     -11.920  12.781  69.833  1.00  0.00    -0.325 NA 
HETATM   25  C   UNL     1     -11.065  10.780  69.905  1.00  0.00    -0.271 A  
HETATM   26  H   UNL     1      -9.511  11.160  68.477  1.00  0.00     0.000 HD 
HETATM   27  C   UNL     1     -12.088  11.559  70.432  1.00  0.00    -0.382 A  
HETATM   28  C   UNL     1     -10.926   9.448  70.319  1.00  0.00    -0.305 A  
HETATM   29  C   UNL     1     -13.013  11.078  71.360  1.00  0.00    -0.517 A  
HETATM   30  C   UNL     1     -12.857   9.746  71.766  1.00  0.00    -0.530 A  
HETATM   31  C   UNL     1     -11.832   8.943  71.258  1.00  0.00    -0.371 A  
ENDBRANCH   7  22
TORSDOF 5
ENDMDL
MODEL       42
REMARK 921   NORMALIZED FREE ENERGY PREDICTED BY IDOCK:   -6.56 KCAL/MOL
REMARK 922        TOTAL FREE ENERGY PREDICTED BY IDOCK:   -9.25 KCAL/MOL
REMARK 923 INTER-LIGAND FREE ENERGY PREDICTED BY IDOCK:   -8.51 KCAL/MOL
REMARK 924 INTRA-LIGAND FREE ENERGY PREDICTED BY IDOCK:   -0.74 KCAL/MOL
REMARK 927      BINDING AFFINITY PREDICTED BY RF-SCORE:    0.00 PKD
ROOT
HETATM    1  C   UNL     1     -12.454  13.171  65.562  1.00  0.00    -0.458 C  
HETATM    2  N   UNL     1     -12.036  12.107  66.488  1.00  0.00    -0.631 NA 
HETATM    3  C   UNL     1     -11.001  11.258  65.873  1.00  0.00    -0.157 C  
HETATM    4  C   UNL     1      -9.627  11.907  65.744  1.00  0.00    -0.241 C  
HETATM    5  C   UNL     1      -9.156  12.529  67.066  1.00  0.00    -0.213 C  
HETATM    6  C   UNL     1     -10.241  13.420  67.686  1.00  0.00    -0.228 C  
HETATM    7  C   UNL     1     -11.586  12.682  67.783  1.00  0.00    -0.348 C  
ENDROOT
BRANCH   5   8
HETATM    8  N   UNL     1      -7.880  13.229  66.898  1.00  0.00    -0.384 N  
HETATM    9  H   UNL     1      -7.550  13.461  65.962  1.00  0.00     0.000 HD 
BRANCH   8  10
HETATM   10  C   UNL     1      -7.125  13.577  67.991  1.00  0.00    -0.127 C  
HETATM   11  O   UNL     1      -7.054  12.893  69.006  1.00  0.00    -0.093 OA 
BRANCH  10  12
HETATM   12  N   UNL     1      -6.545  14.824  67.845  1.00  0.00    -0.147 N  
HETATM   13  H   UNL     1      -5.531  14.946  67.864  1.00  0.00     0.000 HD 
BRANCH  12  14
HETATM   14  C   UNL     1      -7.414  15.922  67.667  1.00  0.00    -0.152 A  
HETATM   15  C   UNL     1      -8.780  18.341  67.459  1.00  0.00    -0.256 A  
HETATM   16  C   UNL     1      -9.394  19.632  67.383  1.00  0.00    -0.326 C  
HETATM   17  N   UNL     1      -9.885  20.681  67.326  1.00  0.00    -0.460 NA 
HETATM   18  C   UNL     1      -8.164  16.380  68.749  1.00  0.00    -0.234 A  
HETATM   19  C   UNL     1      -8.096  17.833  66.351  1.00  0.00    -0.296 A  
HETATM   20  C   UNL     1      -7.416  16.623  66.457  1.00  0.00    -0.306 A  
HETATM   21  C   UNL     1      -8.826  17.606  68.650  1.00  0.00    -0.259 A  
ENDBRANCH  12  14
ENDBRANCH  10  12
ENDBRANCH   8  10
ENDBRANCH   5   8
BRANCH   7  22
HETATM   22  C   UNL     1     -11.530  11.642  68.878  1.00  0.00    -0.287 A  
HETATM   23  N   UNL     1     -10.451  11.037  69.335  1.00  0.00    -0.386 NA 
HETATM   24  N   UNL     1     -12.652  11.204  69.542  1.00  0.00    -0.225 NA 
HETATM   25  C   UNL     1     -10.888  10.185  70.312  1.00  0.00    -0.310 A  
HETATM   26  H   UNL     1      -9.489  11.175  69.024  1.00  0.00     0.000 HD 
HETATM   27  C   UNL     1     -12.269  10.259  70.458  1.00  0.00    -0.301 A  
HETATM   28  C   UNL     1     -10.153   9.309  71.123  1.00  0.00    -0.374 A  
HETATM   29  C   UNL     1     -12.981   9.486  71.376  1.00  0.00    -0.450 A  
HETATM   30  C   UNL     1     -12.231   8.619  72.181  1.00  0.00    -0.453 A  
HETATM   31  C   UNL     1     -10.841   8.531  72.060  1.00  0.00    -0.405 A  
ENDBRANCH   7  22
TORSDOF 5
ENDMDL
MODEL       43
REMARK 921   NORMALIZED FREE ENERGY PREDICTED BY IDOCK:   -6.56 KCAL/MOL
REMARK 922        TOTAL FREE ENERGY PREDICTED BY IDOCK:   -9.25 KCAL/MOL
REMARK 923 INTER-LIGAND FREE ENERGY PREDICTED BY IDOCK:   -9.34 KCAL/MOL
REMARK 924 INTRA-LIGAND FREE ENERGY PREDICTED BY IDOCK:    0.10 KCAL/MOL
REMARK 927      BINDING AFFINITY PREDICTED BY RF-SCORE:    0.00 PKD
ROOT
HETATM    1  C   UNL     1     -12.094  13.002  63.477  1.00  0.00    -0.542 C  
HETATM    2  N   UNL     1     -12.047  14.113  64.439  1.00  0.00    -0.479 NA 
HETATM    3  C   UNL     1     -12.891  13.824  65.611  1.00  0.00    -0.408 C  
HETATM    4  C   UNL     1     -12.338  12.767  66.560  1.00  0.00    -0.001 C  
HETATM    5  C   UNL     1     -10.880  13.048  66.951  1.00  0.00    -0.264 C  
HETATM    6  C   UNL     1     -10.013  13.335  65.718  1.00  0.00    -0.261 C  
HETATM    7  C   UNL     1     -10.644  14.416  64.826  1.00  0.00    -0.393 C  
ENDROOT
BRANCH   5   8
HETATM    8  N   UNL     1     -10.337  11.974  67.785  1.00  0.00    -0.194 N  
HETATM    9  H   UNL     1      -9.717  12.201  68.562  1.00  0.00     0.000 HD 
BRANCH   8  10
HETATM   10  C   UNL     1     -10.655  10.663  67.531  1.00  0.00    -0.252 C  
HETATM   11  O   UNL     1     -10.393  10.099  66.473  1.00  0.00    -0.231 OA 
BRANCH  10  12
HETATM   12  N   UNL     1     -11.384  10.097  68.561  1.00  0.00    -0.491 N  
HETATM   13  H   UNL     1     -12.396   9.977  68.494  1.00  0.00     0.000 HD 
BRANCH  12  14
HETATM   14  C   UNL     1     -10.670   9.690  69.708  1.00  0.00    -0.245 A  
HETATM   15  C   UNL     1      -9.196   8.498  71.750  1.00  0.00    -0.316 A  
HETATM   16  C   UNL     1      -8.427   7.802  72.737  1.00  0.00    -0.146 C  
HETATM   17  N   UNL     1      -7.806   7.231  73.532  1.00  0.00    -0.099 NA 
HETATM   18  C   UNL     1     -11.335   8.986  70.711  1.00  0.00    -0.329 A  
HETATM   19  C   UNL     1      -8.546   9.278  70.789  1.00  0.00    -0.254 A  
HETATM   20  C   UNL     1      -9.285   9.874  69.771  1.00  0.00    -0.252 A  
HETATM   21  C   UNL     1     -10.590   8.368  71.718  1.00  0.00    -0.352 A  
ENDBRANCH  12  14
ENDBRANCH  10  12
ENDBRANCH   8  10
ENDBRANCH   5   8
BRANCH   7  22
HETATM   22  C   UNL     1     -10.514  15.771  65.481  1.00  0.00    -0.403 A  
HETATM   23  N   UNL     1     -10.793  16.940  64.936  1.00  0.00    -0.728 NA 
HETATM   24  N   UNL     1     -10.073  15.930  66.773  1.00  0.00    -0.263 NA 
HETATM   25  C   UNL     1     -10.522  17.873  65.899  1.00  0.00    -0.253 A  
HETATM   26  H   UNL     1     -11.140  17.112  63.992  1.00  0.00     0.000 HD 
HETATM   27  C   UNL     1     -10.056  17.270  67.062  1.00  0.00    -0.303 A  
HETATM   28  C   UNL     1     -10.649  19.268  65.846  1.00  0.00    -0.521 A  
HETATM   29  C   UNL     1      -9.690  17.990  68.200  1.00  0.00    -0.323 A  
HETATM   30  C   UNL     1      -9.828  19.383  68.131  1.00  0.00    -0.485 A  
HETATM   31  C   UNL     1     -10.300  20.014  66.977  1.00  0.00    -0.555 A  
ENDBRANCH   7  22
TORSDOF 5
ENDMDL
MODEL       44
REMARK 921   NORMALIZED FREE ENERGY PREDICTED BY IDOCK:   -6.53 KCAL/MOL
REMARK 922        TOTAL FREE ENERGY PREDICTED BY IDOCK:   -9.21 KCAL/MOL
REMARK 923 INTER-LIGAND FREE ENERGY PREDICTED BY IDOCK:   -8.07 KCAL/MOL
REMARK 924 INTRA-LIGAND FREE ENERGY PREDICTED BY IDOCK:   -1.14 KCAL/MOL
REMARK 927      BINDING AFFINITY PREDICTED BY RF-SCORE:    0.00 PKD
ROOT
HETATM    1  C   UNL     1      -9.739  16.446  67.386  1.00  0.00    -0.238 C  
HETATM    2  N   UNL     1     -10.535  15.293  67.835  1.00  0.00    -0.249 NA 
HETATM    3  C   UNL     1     -11.751  15.150  67.017  1.00  0.00    -0.110 C  
HETATM    4  C   UNL     1     -11.519  14.641  65.599  1.00  0.00    -0.340 C  
HETATM    5  C   UNL     1     -10.652  13.375  65.574  1.00  0.00    -0.290 C  
HETATM    6  C   UNL     1      -9.383  13.546  66.421  1.00  0.00    -0.191 C  
HETATM    7  C   UNL     1      -9.714  14.054  67.833  1.00  0.00    -0.229 C  
ENDROOT
BRANCH   5   8
HETATM    8  N   UNL     1     -10.361  12.957  64.201  1.00  0.00    -0.513 N  
HETATM    9  H   UNL     1      -9.599  13.401  63.688  1.00  0.00     0.000 HD 
BRANCH   8  10
HETATM   10  C   UNL     1     -11.103  11.972  63.598  1.00  0.00    -0.452 C  
HETATM   11  O   UNL     1     -12.328  11.983  63.556  1.00  0.00    -0.544 OA 
BRANCH  10  12
HETATM   12  N   UNL     1     -10.312  10.933  63.140  1.00  0.00    -0.709 N  
HETATM   13  H   UNL     1     -10.293  10.674  62.153  1.00  0.00     0.000 HD 
BRANCH  12  14
HETATM   14  C   UNL     1      -9.533  10.247  64.096  1.00  0.00    -0.301 A  
HETATM   15  C   UNL     1      -8.154   8.515  65.787  1.00  0.00    -0.116 A  
HETATM   16  C   UNL     1      -7.485   7.545  66.601  1.00  0.00    -0.092 C  
HETATM   17  N   UNL     1      -6.950   6.754  67.257  1.00  0.00    -0.072 NA 
HETATM   18  C   UNL     1     -10.121   9.850  65.296  1.00  0.00    -0.227 A  
HETATM   19  C   UNL     1      -7.538   8.986  64.624  1.00  0.00    -0.107 A  
HETATM   20  C   UNL     1      -8.229   9.853  63.782  1.00  0.00    -0.158 A  
HETATM   21  C   UNL     1      -9.437   8.961  66.129  1.00  0.00    -0.318 A  
ENDBRANCH  12  14
ENDBRANCH  10  12
ENDBRANCH   8  10
ENDBRANCH   5   8
BRANCH   7  22
HETATM   22  C   UNL     1     -10.350  12.950  68.646  1.00  0.00    -0.188 A  
HETATM   23  N   UNL     1     -11.385  13.065  69.456  1.00  0.00    -0.443 NA 
HETATM   24  N   UNL     1      -9.893  11.654  68.621  1.00  0.00    -0.193 NA 
HETATM   25  C   UNL     1     -11.597  11.813  69.967  1.00  0.00    -0.236 A  
HETATM   26  H   UNL     1     -11.918  13.911  69.659  1.00  0.00     0.000 HD 
HETATM   27  C   UNL     1     -10.667  10.907  69.469  1.00  0.00    -0.206 A  
HETATM   28  C   UNL     1     -12.574  11.376  70.872  1.00  0.00    -0.453 A  
HETATM   29  C   UNL     1     -10.644   9.560  69.836  1.00  0.00    -0.269 A  
HETATM   30  C   UNL     1     -11.630   9.140  70.738  1.00  0.00    -0.329 A  
HETATM   31  C   UNL     1     -12.581  10.029  71.248  1.00  0.00    -0.495 A  
ENDBRANCH   7  22
TORSDOF 5
ENDMDL
MODEL       45
REMARK 921   NORMALIZED FREE ENERGY PREDICTED BY IDOCK:   -6.51 KCAL/MOL
REMARK 922        TOTAL FREE ENERGY PREDICTED BY IDOCK:   -9.18 KCAL/MOL
REMARK 923 INTER-LIGAND FREE ENERGY PREDICTED BY IDOCK:   -7.77 KCAL/MOL
REMARK 924 INTRA-LIGAND FREE ENERGY PREDICTED BY IDOCK:   -1.42 KCAL/MOL
REMARK 927      BINDING AFFINITY PREDICTED BY RF-SCORE:    0.00 PKD
ROOT
HETATM    1  C   UNL     1     -11.367  15.070  65.641  1.00  0.00    -0.297 C  
HETATM    2  N   UNL     1     -11.700  13.868  66.421  1.00  0.00    -0.363 NA 
HETATM    3  C   UNL     1     -12.320  12.844  65.563  1.00  0.00    -0.461 C  
HETATM    4  C   UNL     1     -11.368  12.148  64.597  1.00  0.00    -0.382 C  
HETATM    5  C   UNL     1     -10.109  11.627  65.303  1.00  0.00    -0.264 C  
HETATM    6  C   UNL     1      -9.469  12.709  66.183  1.00  0.00    -0.177 C  
HETATM    7  C   UNL     1     -10.499  13.349  67.127  1.00  0.00    -0.249 C  
ENDROOT
BRANCH   5   8
HETATM    8  N   UNL     1      -9.164  11.047  64.345  1.00  0.00    -0.307 N  
HETATM    9  H   UNL     1      -9.133  11.401  63.390  1.00  0.00     0.000 HD 
BRANCH   8  10
HETATM   10  C   UNL     1      -8.320  10.033  64.723  1.00  0.00    -0.163 C  
HETATM   11  O   UNL     1      -7.125  10.198  64.946  1.00  0.00    -0.133 OA 
BRANCH  10  12
HETATM   12  N   UNL     1      -8.953   8.803  64.721  1.00  0.00    -0.419 N  
HETATM   13  H   UNL     1      -9.283   8.375  63.855  1.00  0.00     0.000 HD 
BRANCH  12  14
HETATM   14  C   UNL     1      -9.124   8.166  65.968  1.00  0.00    -0.167 A  
HETATM   15  C   UNL     1      -9.598   6.548  68.187  1.00  0.00    -0.123 A  
HETATM   16  C   UNL     1      -9.868   5.641  69.262  1.00  0.00    -0.174 C  
HETATM   17  N   UNL     1     -10.092   4.901  70.125  1.00  0.00    -0.260 NA 
HETATM   18  C   UNL     1     -10.373   8.201  66.587  1.00  0.00    -0.284 A  
HETATM   19  C   UNL     1      -8.324   6.583  67.614  1.00  0.00    -0.121 A  
HETATM   20  C   UNL     1      -8.090   7.393  66.507  1.00  0.00    -0.117 A  
HETATM   21  C   UNL     1     -10.615   7.370  67.684  1.00  0.00    -0.309 A  
ENDBRANCH  12  14
ENDBRANCH  10  12
ENDBRANCH   8  10
ENDBRANCH   5   8
BRANCH   7  22
HETATM   22  C   UNL     1     -10.862  12.382  68.231  1.00  0.00    -0.237 A  
HETATM   23  N   UNL     1     -11.987  12.359  68.919  1.00  0.00    -0.285 NA 
HETATM   24  N   UNL     1     -10.016  11.381  68.647  1.00  0.00    -0.207 NA 
HETATM   25  C   UNL     1     -11.861  11.321  69.802  1.00  0.00    -0.364 A  
HETATM   26  H   UNL     1     -12.787  12.985  68.815  1.00  0.00     0.000 HD 
HETATM   27  C   UNL     1     -10.628  10.694  69.663  1.00  0.00    -0.217 A  
HETATM   28  C   UNL     1     -12.770  10.855  70.762  1.00  0.00    -0.431 A  
HETATM   29  C   UNL     1     -10.230   9.612  70.449  1.00  0.00    -0.348 A  
HETATM   30  C   UNL     1     -11.152   9.157  71.401  1.00  0.00    -0.415 A  
HETATM   31  C   UNL     1     -12.401   9.765  71.556  1.00  0.00    -0.495 A  
ENDBRANCH   7  22
TORSDOF 5
ENDMDL
MODEL       46
REMARK 921   NORMALIZED FREE ENERGY PREDICTED BY IDOCK:   -6.49 KCAL/MOL
REMARK 922        TOTAL FREE ENERGY PREDICTED BY IDOCK:   -9.17 KCAL/MOL
REMARK 923 INTER-LIGAND FREE ENERGY PREDICTED BY IDOCK:   -9.13 KCAL/MOL
REMARK 924 INTRA-LIGAND FREE ENERGY PREDICTED BY IDOCK:   -0.04 KCAL/MOL
REMARK 927      BINDING AFFINITY PREDICTED BY RF-SCORE:    0.00 PKD
ROOT
HETATM    1  C   UNL     1     -11.997  13.263  63.530  1.00  0.00    -0.474 C  
HETATM    2  N   UNL     1     -11.960  14.302  64.571  1.00  0.00    -0.444 NA 
HETATM    3  C   UNL     1     -12.767  13.902  65.736  1.00  0.00    -0.461 C  
HETATM    4  C   UNL     1     -12.160  12.796  66.593  1.00  0.00    -0.316 C  
HETATM    5  C   UNL     1     -10.703  13.094  66.972  1.00  0.00    -0.262 C  
HETATM    6  C   UNL     1      -9.874  13.498  65.745  1.00  0.00    -0.218 C  
HETATM    7  C   UNL     1     -10.558  14.620  64.948  1.00  0.00    -0.422 C  
ENDROOT
BRANCH   5   8
HETATM    8  N   UNL     1     -10.108  11.979  67.712  1.00  0.00    -0.190 N  
HETATM    9  H   UNL     1      -9.303  11.488  67.325  1.00  0.00     0.000 HD 
BRANCH   8  10
HETATM   10  C   UNL     1     -10.624  11.589  68.923  1.00  0.00    -0.204 C  
HETATM   11  O   UNL     1     -11.576  12.146  69.460  1.00  0.00    -0.295 OA 
BRANCH  10  12
HETATM   12  N   UNL     1      -9.885  10.572  69.499  1.00  0.00    -0.383 N  
HETATM   13  H   UNL     1      -9.566  10.627  70.467  1.00  0.00     0.000 HD 
BRANCH  12  14
HETATM   14  C   UNL     1      -9.590   9.454  68.691  1.00  0.00    -0.147 A  
HETATM   15  C   UNL     1      -8.967   7.546  66.757  1.00  0.00    -0.164 A  
HETATM   16  C   UNL     1      -8.637   6.645  65.695  1.00  0.00    -0.123 C  
HETATM   17  N   UNL     1      -8.371   5.922  64.829  1.00  0.00    -0.130 NA 
HETATM   18  C   UNL     1     -10.620   8.830  67.987  1.00  0.00    -0.218 A  
HETATM   19  C   UNL     1      -7.947   8.113  67.526  1.00  0.00    -0.122 A  
HETATM   20  C   UNL     1      -8.261   9.064  68.493  1.00  0.00    -0.112 A  
HETATM   21  C   UNL     1     -10.302   7.893  67.001  1.00  0.00    -0.411 A  
ENDBRANCH  12  14
ENDBRANCH  10  12
ENDBRANCH   8  10
ENDBRANCH   5   8
BRANCH   7  22
HETATM   22  C   UNL     1     -10.454  15.927  65.699  1.00  0.00    -0.392 A  
HETATM   23  N   UNL     1     -10.164  16.081  66.977  1.00  0.00    -0.276 NA 
HETATM   24  N   UNL     1     -10.657  17.146  65.096  1.00  0.00    -0.682 NA 
HETATM   25  C   UNL     1     -10.187  17.430  67.203  1.00  0.00    -0.323 A  
HETATM   26  H   UNL     1      -9.965  15.346  67.656  1.00  0.00     0.000 HD 
HETATM   27  C   UNL     1     -10.504  18.126  66.042  1.00  0.00    -0.335 A  
HETATM   28  C   UNL     1      -9.944  18.137  68.389  1.00  0.00    -0.392 A  
HETATM   29  C   UNL     1     -10.609  19.517  65.992  1.00  0.00    -0.589 A  
HETATM   30  C   UNL     1     -10.360  20.208  67.185  1.00  0.00    -0.501 A  
HETATM   31  C   UNL     1     -10.032  19.533  68.364  1.00  0.00    -0.540 A  
ENDBRANCH   7  22
TORSDOF 5
ENDMDL
MODEL       47
REMARK 921   NORMALIZED FREE ENERGY PREDICTED BY IDOCK:   -6.48 KCAL/MOL
REMARK 922        TOTAL FREE ENERGY PREDICTED BY IDOCK:   -9.14 KCAL/MOL
REMARK 923 INTER-LIGAND FREE ENERGY PREDICTED BY IDOCK:   -8.30 KCAL/MOL
REMARK 924 INTRA-LIGAND FREE ENERGY PREDICTED BY IDOCK:   -0.85 KCAL/MOL
REMARK 927      BINDING AFFINITY PREDICTED BY RF-SCORE:    0.00 PKD
ROOT
HETATM    1  C   UNL     1      -9.819  17.062  66.295  1.00  0.00    -0.294 C  
HETATM    2  N   UNL     1     -10.748  16.196  67.037  1.00  0.00    -0.293 NA 
HETATM    3  C   UNL     1     -11.405  15.238  66.130  1.00  0.00    -0.160 C  
HETATM    4  C   UNL     1     -10.510  14.114  65.621  1.00  0.00    -0.333 C  
HETATM    5  C   UNL     1      -9.760  13.411  66.762  1.00  0.00    -0.262 C  
HETATM    6  C   UNL     1      -9.073  14.423  67.690  1.00  0.00    -0.194 C  
HETATM    7  C   UNL     1     -10.051  15.512  68.157  1.00  0.00    -0.218 C  
ENDROOT
BRANCH   5   8
HETATM    8  N   UNL     1      -8.835  12.400  66.247  1.00  0.00    -0.422 N  
HETATM    9  H   UNL     1      -7.844  12.622  66.155  1.00  0.00     0.000 HD 
BRANCH   8  10
HETATM   10  C   UNL     1      -9.289  11.156  65.885  1.00  0.00    -0.212 C  
HETATM   11  O   UNL     1      -8.899  10.560  64.887  1.00  0.00    -0.180 OA 
BRANCH  10  12
HETATM   12  N   UNL     1     -10.300  10.710  66.718  1.00  0.00    -0.236 N  
HETATM   13  H   UNL     1     -11.193  11.200  66.780  1.00  0.00     0.000 HD 
BRANCH  12  14
HETATM   14  C   UNL     1     -10.042   9.550  67.478  1.00  0.00    -0.204 A  
HETATM   15  C   UNL     1      -9.908   7.371  69.210  1.00  0.00    -0.168 A  
HETATM   16  C   UNL     1      -9.928   6.285  70.143  1.00  0.00    -0.172 C  
HETATM   17  N   UNL     1      -9.951   5.411  70.904  1.00  0.00    -0.191 NA 
HETATM   18  C   UNL     1      -9.303   9.655  68.656  1.00  0.00    -0.143 A  
HETATM   19  C   UNL     1     -10.575   7.245  67.988  1.00  0.00    -0.247 A  
HETATM   20  C   UNL     1     -10.638   8.335  67.124  1.00  0.00    -0.340 A  
HETATM   21  C   UNL     1      -9.260   8.569  69.533  1.00  0.00    -0.150 A  
ENDBRANCH  12  14
ENDBRANCH  10  12
ENDBRANCH   8  10
ENDBRANCH   5   8
BRANCH   7  22
HETATM   22  C   UNL     1     -11.020  14.941  69.167  1.00  0.00    -0.260 A  
HETATM   23  N   UNL     1     -11.060  13.697  69.604  1.00  0.00    -0.457 NA 
HETATM   24  N   UNL     1     -12.001  15.698  69.761  1.00  0.00    -0.361 NA 
HETATM   25  C   UNL     1     -12.095  13.650  70.497  1.00  0.00    -0.339 A  
HETATM   26  H   UNL     1     -10.446  12.928  69.332  1.00  0.00     0.000 HD 
HETATM   27  C   UNL     1     -12.714  14.890  70.610  1.00  0.00    -0.367 A  
HETATM   28  C   UNL     1     -12.568  12.570  71.255  1.00  0.00    -0.332 A  
HETATM   29  C   UNL     1     -13.809  15.123  71.443  1.00  0.00    -0.587 A  
HETATM   30  C   UNL     1     -14.266  14.033  72.196  1.00  0.00    -0.628 A  
HETATM   31  C   UNL     1     -13.657  12.778  72.107  1.00  0.00    -0.547 A  
ENDBRANCH   7  22
TORSDOF 5
ENDMDL
MODEL       48
REMARK 921   NORMALIZED FREE ENERGY PREDICTED BY IDOCK:   -6.47 KCAL/MOL
REMARK 922        TOTAL FREE ENERGY PREDICTED BY IDOCK:   -9.13 KCAL/MOL
REMARK 923 INTER-LIGAND FREE ENERGY PREDICTED BY IDOCK:   -7.97 KCAL/MOL
REMARK 924 INTRA-LIGAND FREE ENERGY PREDICTED BY IDOCK:   -1.16 KCAL/MOL
REMARK 927      BINDING AFFINITY PREDICTED BY RF-SCORE:    0.00 PKD
ROOT
HETATM    1  C   UNL     1     -10.905  16.866  67.657  1.00  0.00    -0.244 C  
HETATM    2  N   UNL     1     -10.522  15.461  67.865  1.00  0.00    -0.251 NA 
HETATM    3  C   UNL     1     -11.708  14.588  67.839  1.00  0.00    -0.351 C  
HETATM    4  C   UNL     1     -12.329  14.384  66.461  1.00  0.00    -0.272 C  
HETATM    5  C   UNL     1     -11.285  13.973  65.413  1.00  0.00    -0.319 C  
HETATM    6  C   UNL     1     -10.062  14.900  65.446  1.00  0.00    -0.400 C  
HETATM    7  C   UNL     1      -9.501  15.041  66.870  1.00  0.00    -0.238 C  
ENDROOT
BRANCH   5   8
HETATM    8  N   UNL     1     -11.882  13.875  64.079  1.00  0.00    -0.624 N  
HETATM    9  H   UNL     1     -12.243  14.713  63.624  1.00  0.00     0.000 HD 
BRANCH   8  10
HETATM   10  C   UNL     1     -11.959  12.665  63.435  1.00  0.00    -0.528 C  
HETATM   11  O   UNL     1     -12.986  11.999  63.374  1.00  0.00    -0.772 OA 
BRANCH  10  12
HETATM   12  N   UNL     1     -10.727  12.251  62.960  1.00  0.00    -0.581 N  
HETATM   13  H   UNL     1     -10.248  12.755  62.213  1.00  0.00     0.000 HD 
BRANCH  12  14
HETATM   14  C   UNL     1     -10.162  11.102  63.552  1.00  0.00    -0.390 A  
HETATM   15  C   UNL     1      -8.681   9.095  64.794  1.00  0.00    -0.208 A  
HETATM   16  C   UNL     1      -7.844   8.133  65.446  1.00  0.00    -0.115 C  
HETATM   17  N   UNL     1      -7.158   7.361  65.972  1.00  0.00    -0.065 NA 
HETATM   18  C   UNL     1      -9.377  10.250  62.776  1.00  0.00    -0.340 A  
HETATM   19  C   UNL     1      -9.535   9.897  65.554  1.00  0.00    -0.313 A  
HETATM   20  C   UNL     1     -10.276  10.898  64.931  1.00  0.00    -0.381 A  
HETATM   21  C   UNL     1      -8.617   9.261  63.405  1.00  0.00    -0.206 A  
ENDBRANCH  12  14
ENDBRANCH  10  12
ENDBRANCH   8  10
ENDBRANCH   5   8
BRANCH   7  22
HETATM   22  C   UNL     1      -8.798  13.767  67.279  1.00  0.00    -0.220 A  
HETATM   23  N   UNL     1      -7.595  13.376  66.905  1.00  0.00    -0.303 NA 
HETATM   24  N   UNL     1      -9.369  12.845  68.124  1.00  0.00    -0.211 NA 
HETATM   25  C   UNL     1      -7.388  12.172  67.521  1.00  0.00    -0.135 A  
HETATM   26  H   UNL     1      -6.951  13.869  66.286  1.00  0.00     0.000 HD 
HETATM   27  C   UNL     1      -8.490  11.806  68.285  1.00  0.00    -0.161 A  
HETATM   28  C   UNL     1      -6.270  11.327  67.469  1.00  0.00    -0.064 A  
HETATM   29  C   UNL     1      -8.553  10.614  69.010  1.00  0.00    -0.150 A  
HETATM   30  C   UNL     1      -7.426   9.784  68.949  1.00  0.00    -0.075 A  
HETATM   31  C   UNL     1      -6.303  10.132  68.194  1.00  0.00    -0.053 A  
ENDBRANCH   7  22
TORSDOF 5
ENDMDL
MODEL       49
REMARK 921   NORMALIZED FREE ENERGY PREDICTED BY IDOCK:   -6.43 KCAL/MOL
REMARK 922        TOTAL FREE ENERGY PREDICTED BY IDOCK:   -9.09 KCAL/MOL
REMARK 923 INTER-LIGAND FREE ENERGY PREDICTED BY IDOCK:   -8.81 KCAL/MOL
REMARK 924 INTRA-LIGAND FREE ENERGY PREDICTED BY IDOCK:   -0.28 KCAL/MOL
REMARK 927      BINDING AFFINITY PREDICTED BY RF-SCORE:    0.00 PKD
ROOT
HETATM    1  C   UNL     1     -10.731   7.426  73.630  1.00  0.00    -0.190 C  
HETATM    2  N   UNL     1     -11.034   6.974  72.263  1.00  0.00    -0.236 NA 
HETATM    3  C   UNL     1     -12.364   7.444  71.842  1.00  0.00    -0.310 C  
HETATM    4  C   UNL     1     -12.456   8.936  71.542  1.00  0.00    -0.380 C  
HETATM    5  C   UNL     1     -11.348   9.402  70.587  1.00  0.00    -0.292 C  
HETATM    6  C   UNL     1      -9.968   8.914  71.047  1.00  0.00    -0.324 C  
HETATM    7  C   UNL     1      -9.968   7.401  71.319  1.00  0.00    -0.187 C  
ENDROOT
BRANCH   5   8
HETATM    8  N   UNL     1     -11.395  10.853  70.386  1.00  0.00    -0.446 N  
HETATM    9  H   UNL     1     -11.428  11.474  71.194  1.00  0.00     0.000 HD 
BRANCH   8  10
HETATM   10  C   UNL     1     -11.395  11.383  69.120  1.00  0.00    -0.288 C  
HETATM   11  O   UNL     1     -12.280  11.168  68.300  1.00  0.00    -0.613 OA 
BRANCH  10  12
HETATM   12  N   UNL     1     -10.240  12.097  68.857  1.00  0.00    -0.413 N  
HETATM   13  H   UNL     1      -9.365  11.893  69.343  1.00  0.00     0.000 HD 
BRANCH  12  14
HETATM   14  C   UNL     1     -10.321  13.120  67.888  1.00  0.00    -0.231 A  
HETATM   15  C   UNL     1     -10.892  14.965  65.880  1.00  0.00    -0.336 A  
HETATM   16  C   UNL     1     -11.278  15.867  64.837  1.00  0.00    -0.337 C  
HETATM   17  N   UNL     1     -11.597  16.591  63.990  1.00  0.00    -1.124 NA 
HETATM   18  C   UNL     1      -9.921  12.853  66.579  1.00  0.00    -0.259 A  
HETATM   19  C   UNL     1     -11.213  15.263  67.207  1.00  0.00    -0.306 A  
HETATM   20  C   UNL     1     -10.925  14.340  68.208  1.00  0.00    -0.261 A  
HETATM   21  C   UNL     1     -10.232  13.769  65.571  1.00  0.00    -0.332 A  
ENDBRANCH  12  14
ENDBRANCH  10  12
ENDBRANCH   8  10
ENDBRANCH   5   8
BRANCH   7  22
HETATM   22  C   UNL     1     -10.025   6.640  70.015  1.00  0.00    -0.172 A  
HETATM   23  N   UNL     1     -10.687   6.988  68.928  1.00  0.00    -0.292 NA 
HETATM   24  N   UNL     1      -9.360   5.452  69.820  1.00  0.00    -0.137 NA 
HETATM   25  C   UNL     1     -10.446   5.999  68.013  1.00  0.00    -0.233 A  
HETATM   26  H   UNL     1     -11.260   7.822  68.795  1.00  0.00     0.000 HD 
HETATM   27  C   UNL     1      -9.624   5.014  68.549  1.00  0.00    -0.146 A  
HETATM   28  C   UNL     1     -10.903   5.877  66.694  1.00  0.00    -0.292 A  
HETATM   29  C   UNL     1      -9.229   3.880  67.836  1.00  0.00    -0.209 A  
HETATM   30  C   UNL     1      -9.692   3.776  66.518  1.00  0.00    -0.147 A  
HETATM   31  C   UNL     1     -10.513   4.756  65.953  1.00  0.00    -0.313 A  
ENDBRANCH   7  22
TORSDOF 5
ENDMDL
MODEL       50
REMARK 921   NORMALIZED FREE ENERGY PREDICTED BY IDOCK:   -6.38 KCAL/MOL
REMARK 922        TOTAL FREE ENERGY PREDICTED BY IDOCK:   -9.02 KCAL/MOL
REMARK 923 INTER-LIGAND FREE ENERGY PREDICTED BY IDOCK:   -8.52 KCAL/MOL
REMARK 924 INTRA-LIGAND FREE ENERGY PREDICTED BY IDOCK:   -0.50 KCAL/MOL
REMARK 927      BINDING AFFINITY PREDICTED BY RF-SCORE:    0.00 PKD
ROOT
HETATM    1  C   UNL     1     -11.743  16.072  69.305  1.00  0.00    -0.298 C  
HETATM    2  N   UNL     1     -10.457  16.691  68.949  1.00  0.00    -0.300 NA 
HETATM    3  C   UNL     1      -9.339  15.780  69.247  1.00  0.00    -0.261 C  
HETATM    4  C   UNL     1      -9.209  14.588  68.305  1.00  0.00    -0.201 C  
HETATM    5  C   UNL     1      -9.232  15.013  66.830  1.00  0.00    -0.246 C  
HETATM    6  C   UNL     1     -10.410  15.952  66.535  1.00  0.00    -0.304 C  
HETATM    7  C   UNL     1     -10.457  17.125  67.527  1.00  0.00    -0.348 C  
ENDROOT
BRANCH   5   8
HETATM    8  N   UNL     1      -9.203  13.849  65.941  1.00  0.00    -0.489 N  
HETATM    9  H   UNL     1      -8.332  13.335  65.811  1.00  0.00     0.000 HD 
BRANCH   8  10
HETATM   10  C   UNL     1     -10.337  13.444  65.282  1.00  0.00    -0.319 C  
HETATM   11  O   UNL     1     -10.604  13.779  64.133  1.00  0.00    -0.264 OA 
BRANCH  10  12
HETATM   12  N   UNL     1     -11.175  12.706  66.097  1.00  0.00    -0.295 N  
HETATM   13  H   UNL     1     -12.064  13.083  66.428  1.00  0.00     0.000 HD 
BRANCH  12  14
HETATM   14  C   UNL     1     -10.749  11.408  66.453  1.00  0.00    -0.275 A  
HETATM   15  C   UNL     1     -10.309   8.710  66.990  1.00  0.00    -0.368 A  
HETATM   16  C   UNL     1     -10.176   7.303  67.224  1.00  0.00    -0.253 C  
HETATM   17  N   UNL     1     -10.077   6.164  67.411  1.00  0.00    -0.139 NA 
HETATM   18  C   UNL     1     -11.101  10.892  67.699  1.00  0.00    -0.376 A  
HETATM   19  C   UNL     1      -9.881   9.254  65.776  1.00  0.00    -0.302 A  
HETATM   20  C   UNL     1     -10.101  10.602  65.511  1.00  0.00    -0.343 A  
HETATM   21  C   UNL     1     -10.902   9.533  67.956  1.00  0.00    -0.225 A  
ENDBRANCH  12  14
ENDBRANCH  10  12
ENDBRANCH   8  10
ENDBRANCH   5   8
BRANCH   7  22
HETATM   22  C   UNL     1      -9.342  18.101  67.231  1.00  0.00    -0.252 A  
HETATM   23  N   UNL     1      -8.807  18.351  66.051  1.00  0.00    -0.498 NA 
HETATM   24  N   UNL     1      -8.748  18.866  68.206  1.00  0.00    -0.321 NA 
HETATM   25  C   UNL     1      -7.842  19.295  66.273  1.00  0.00    -0.299 A  
HETATM   26  H   UNL     1      -9.060  17.928  65.157  1.00  0.00     0.000 HD 
HETATM   27  C   UNL     1      -7.773  19.631  67.621  1.00  0.00    -0.275 A  
HETATM   28  C   UNL     1      -6.977  19.914  65.360  1.00  0.00    -0.323 A  
HETATM   29  C   UNL     1      -6.864  20.560  68.129  1.00  0.00    -0.280 A  
HETATM   30  C   UNL     1      -6.010  21.173  67.202  1.00  0.00    -0.380 A  
HETATM   31  C   UNL     1      -6.064  20.858  65.841  1.00  0.00    -0.289 A  
ENDBRANCH   7  22
TORSDOF 5
ENDMDL
MODEL       51
REMARK 921   NORMALIZED FREE ENERGY PREDICTED BY IDOCK:   -6.38 KCAL/MOL
REMARK 922        TOTAL FREE ENERGY PREDICTED BY IDOCK:   -9.02 KCAL/MOL
REMARK 923 INTER-LIGAND FREE ENERGY PREDICTED BY IDOCK:   -8.81 KCAL/MOL
REMARK 924 INTRA-LIGAND FREE ENERGY PREDICTED BY IDOCK:   -0.21 KCAL/MOL
REMARK 927      BINDING AFFINITY PREDICTED BY RF-SCORE:    0.00 PKD
ROOT
HETATM    1  C   UNL     1      -8.969  11.043  64.764  1.00  0.00    -0.087 C  
HETATM    2  N   UNL     1      -9.279  11.031  66.202  1.00  0.00    -0.183 NA 
HETATM    3  C   UNL     1      -8.713  12.217  66.867  1.00  0.00    -0.194 C  
HETATM    4  C   UNL     1      -9.424  13.530  66.562  1.00  0.00    -0.265 C  
HETATM    5  C   UNL     1     -10.943  13.423  66.761  1.00  0.00    -0.288 C  
HETATM    6  C   UNL     1     -11.517  12.189  66.052  1.00  0.00    -0.427 C  
HETATM    7  C   UNL     1     -10.744  10.915  66.424  1.00  0.00    -0.194 C  
ENDROOT
BRANCH   5   8
HETATM    8  N   UNL     1     -11.618  14.663  66.371  1.00  0.00    -0.359 N  
HETATM    9  H   UNL     1     -12.637  14.711  66.389  1.00  0.00     0.000 HD 
BRANCH   8  10
HETATM   10  C   UNL     1     -10.893  15.762  65.982  1.00  0.00    -0.255 C  
HETATM   11  O   UNL     1     -10.616  16.006  64.812  1.00  0.00    -0.600 OA 
BRANCH  10  12
HETATM   12  N   UNL     1     -10.436  16.492  67.064  1.00  0.00    -0.304 N  
HETATM   13  H   UNL     1     -10.806  16.341  68.003  1.00  0.00     0.000 HD 
BRANCH  12  14
HETATM   14  C   UNL     1      -9.434  17.454  66.815  1.00  0.00    -0.273 A  
HETATM   15  C   UNL     1      -7.553  19.287  65.883  1.00  0.00    -0.266 A  
HETATM   16  C   UNL     1      -6.620  20.207  65.307  1.00  0.00    -0.295 C  
HETATM   17  N   UNL     1      -5.866  20.949  64.833  1.00  0.00    -0.244 NA 
HETATM   18  C   UNL     1      -8.127  17.031  66.572  1.00  0.00    -0.320 A  
HETATM   19  C   UNL     1      -8.841  19.720  66.210  1.00  0.00    -0.417 A  
HETATM   20  C   UNL     1      -9.778  18.802  66.677  1.00  0.00    -0.370 A  
HETATM   21  C   UNL     1      -7.194  17.947  66.081  1.00  0.00    -0.339 A  
ENDBRANCH  12  14
ENDBRANCH  10  12
ENDBRANCH   8  10
ENDBRANCH   5   8
BRANCH   7  22
HETATM   22  C   UNL     1     -11.073  10.503  67.840  1.00  0.00    -0.304 A  
HETATM   23  N   UNL     1     -10.478   9.561  68.545  1.00  0.00    -0.211 NA 
HETATM   24  N   UNL     1     -12.073  11.100  68.572  1.00  0.00    -0.594 NA 
HETATM   25  C   UNL     1     -11.112   9.547  69.758  1.00  0.00    -0.191 A  
HETATM   26  H   UNL     1      -9.704   8.965  68.249  1.00  0.00     0.000 HD 
HETATM   27  C   UNL     1     -12.127  10.496  69.801  1.00  0.00    -0.214 A  
HETATM   28  C   UNL     1     -10.871   8.740  70.878  1.00  0.00    -0.293 A  
HETATM   29  C   UNL     1     -12.945  10.687  70.916  1.00  0.00    -0.429 A  
HETATM   30  C   UNL     1     -12.687   9.875  72.028  1.00  0.00    -0.456 A  
HETATM   31  C   UNL     1     -11.668   8.918  72.014  1.00  0.00    -0.438 A  
ENDBRANCH   7  22
TORSDOF 5
ENDMDL
MODEL       52
REMARK 921   NORMALIZED FREE ENERGY PREDICTED BY IDOCK:   -6.37 KCAL/MOL
REMARK 922        TOTAL FREE ENERGY PREDICTED BY IDOCK:   -9.01 KCAL/MOL
REMARK 923 INTER-LIGAND FREE ENERGY PREDICTED BY IDOCK:   -9.22 KCAL/MOL
REMARK 924 INTRA-LIGAND FREE ENERGY PREDICTED BY IDOCK:    0.22 KCAL/MOL
REMARK 927      BINDING AFFINITY PREDICTED BY RF-SCORE:    0.00 PKD
ROOT
HETATM    1  C   UNL     1     -12.255  12.949  63.354  1.00  0.00    -0.490 C  
HETATM    2  N   UNL     1     -11.596  12.450  64.571  1.00  0.00    -0.333 NA 
HETATM    3  C   UNL     1     -10.207  12.933  64.648  1.00  0.00    -0.298 C  
HETATM    4  C   UNL     1     -10.056  14.413  64.980  1.00  0.00    -0.322 C  
HETATM    5  C   UNL     1     -10.877  14.815  66.213  1.00  0.00    -0.322 C  
HETATM    6  C   UNL     1     -12.324  14.314  66.111  1.00  0.00    -0.411 C  
HETATM    7  C   UNL     1     -12.379  12.814  65.781  1.00  0.00    -0.323 C  
ENDROOT
BRANCH   5   8
HETATM    8  N   UNL     1     -10.796  16.256  66.459  1.00  0.00    -0.180 N  
HETATM    9  H   UNL     1     -10.605  16.598  67.401  1.00  0.00     0.000 HD 
BRANCH   8  10
HETATM   10  C   UNL     1     -10.974  17.152  65.434  1.00  0.00     0.035 C  
HETATM   11  O   UNL     1     -11.252  16.817  64.288  1.00  0.00    -1.163 OA 
BRANCH  10  12
HETATM   12  N   UNL     1     -10.707  18.451  65.828  1.00  0.00    -0.300 N  
HETATM   13  H   UNL     1     -11.236  19.240  65.455  1.00  0.00     0.000 HD 
BRANCH  12  14
HETATM   14  C   UNL     1      -9.671  18.638  66.768  1.00  0.00    -0.329 A  
HETATM   15  C   UNL     1      -7.610  19.434  68.466  1.00  0.00    -0.369 A  
HETATM   16  C   UNL     1      -6.559  19.939  69.296  1.00  0.00    -0.342 C  
HETATM   17  N   UNL     1      -5.707  20.355  69.964  1.00  0.00    -0.328 NA 
HETATM   18  C   UNL     1      -8.347  18.460  66.368  1.00  0.00    -0.272 A  
HETATM   19  C   UNL     1      -8.937  19.530  68.893  1.00  0.00    -0.316 A  
HETATM   20  C   UNL     1      -9.965  19.130  68.044  1.00  0.00    -0.458 A  
HETATM   21  C   UNL     1      -7.317  18.884  67.211  1.00  0.00    -0.234 A  
ENDBRANCH  12  14
ENDBRANCH  10  12
ENDBRANCH   8  10
ENDBRANCH   5   8
BRANCH   7  22
HETATM   22  C   UNL     1     -11.970  12.002  66.989  1.00  0.00    -0.023 A  
HETATM   23  N   UNL     1     -12.281  12.250  68.247  1.00  0.00    -0.238 NA 
HETATM   24  N   UNL     1     -11.200  10.867  66.892  1.00  0.00    -0.301 NA 
HETATM   25  C   UNL     1     -11.692  11.255  68.978  1.00  0.00    -0.342 A  
HETATM   26  H   UNL     1     -12.843  13.024  68.601  1.00  0.00     0.000 HD 
HETATM   27  C   UNL     1     -10.996  10.376  68.155  1.00  0.00    -0.281 A  
HETATM   28  C   UNL     1     -11.710  11.039  70.363  1.00  0.00    -0.437 A  
HETATM   29  C   UNL     1     -10.289   9.275  68.642  1.00  0.00    -0.229 A  
HETATM   30  C   UNL     1     -10.321   9.072  70.028  1.00  0.00    -0.226 A  
HETATM   31  C   UNL     1     -11.019   9.936  70.876  1.00  0.00    -0.392 A  
ENDBRANCH   7  22
TORSDOF 5
ENDMDL
MODEL       53
REMARK 921   NORMALIZED FREE ENERGY PREDICTED BY IDOCK:   -6.31 KCAL/MOL
REMARK 922        TOTAL FREE ENERGY PREDICTED BY IDOCK:   -8.92 KCAL/MOL
REMARK 923 INTER-LIGAND FREE ENERGY PREDICTED BY IDOCK:   -8.63 KCAL/MOL
REMARK 924 INTRA-LIGAND FREE ENERGY PREDICTED BY IDOCK:   -0.29 KCAL/MOL
REMARK 927      BINDING AFFINITY PREDICTED BY RF-SCORE:    0.00 PKD
ROOT
HETATM    1  C   UNL     1     -12.879  13.040  64.806  1.00  0.00    -0.265 C  
HETATM    2  N   UNL     1     -12.370  14.062  65.734  1.00  0.00    -0.457 NA 
HETATM    3  C   UNL     1     -12.156  13.490  67.074  1.00  0.00    -0.354 C  
HETATM    4  C   UNL     1     -10.958  12.556  67.193  1.00  0.00    -0.302 C  
HETATM    5  C   UNL     1      -9.679  13.182  66.619  1.00  0.00    -0.261 C  
HETATM    6  C   UNL     1      -9.916  13.762  65.218  1.00  0.00    -0.245 C  
HETATM    7  C   UNL     1     -11.137  14.695  65.196  1.00  0.00    -0.377 C  
ENDROOT
BRANCH   5   8
HETATM    8  N   UNL     1      -8.561  12.235  66.655  1.00  0.00    -0.351 N  
HETATM    9  H   UNL     1      -8.279  11.754  65.801  1.00  0.00     0.000 HD 
BRANCH   8  10
HETATM   10  C   UNL     1      -7.891  11.989  67.827  1.00  0.00    -0.145 C  
HETATM   11  O   UNL     1      -7.606  12.864  68.637  1.00  0.00    -0.126 OA 
BRANCH  10  12
HETATM   12  N   UNL     1      -7.495  10.667  67.930  1.00  0.00    -0.089 N  
HETATM   13  H   UNL     1      -6.625  10.338  67.511  1.00  0.00     0.000 HD 
BRANCH  12  14
HETATM   14  C   UNL     1      -8.346   9.794  68.641  1.00  0.00    -0.111 A  
HETATM   15  C   UNL     1     -10.304   8.427  70.076  1.00  0.00    -0.211 A  
HETATM   16  C   UNL     1     -11.368   7.812  70.812  1.00  0.00    -0.279 C  
HETATM   17  N   UNL     1     -12.232   7.323  71.409  1.00  0.00    -0.330 NA 
HETATM   18  C   UNL     1      -8.269   9.749  70.032  1.00  0.00    -0.207 A  
HETATM   19  C   UNL     1     -10.326   8.405  68.679  1.00  0.00    -0.222 A  
HETATM   20  C   UNL     1      -9.345   9.087  67.964  1.00  0.00    -0.153 A  
HETATM   21  C   UNL     1      -9.267   9.084  70.749  1.00  0.00    -0.299 A  
ENDBRANCH  12  14
ENDBRANCH  10  12
ENDBRANCH   8  10
ENDBRANCH   5   8
BRANCH   7  22
HETATM   22  C   UNL     1     -10.812  15.993  65.898  1.00  0.00    -0.207 A  
HETATM   23  N   UNL     1     -10.721  17.187  65.344  1.00  0.00    -0.560 NA 
HETATM   24  N   UNL     1     -10.568  16.064  67.249  1.00  0.00    -0.313 NA 
HETATM   25  C   UNL     1     -10.407  18.046  66.361  1.00  0.00    -0.379 A  
HETATM   26  H   UNL     1     -10.857  17.422  64.360  1.00  0.00     0.000 HD 
HETATM   27  C   UNL     1     -10.293  17.368  67.570  1.00  0.00    -0.351 A  
HETATM   28  C   UNL     1     -10.200  19.432  66.324  1.00  0.00    -0.566 A  
HETATM   29  C   UNL     1      -9.967  18.000  68.771  1.00  0.00    -0.380 A  
HETATM   30  C   UNL     1      -9.768  19.386  68.715  1.00  0.00    -0.516 A  
HETATM   31  C   UNL     1      -9.883  20.092  67.515  1.00  0.00    -0.574 A  
ENDBRANCH   7  22
TORSDOF 5
ENDMDL
MODEL       54
REMARK 921   NORMALIZED FREE ENERGY PREDICTED BY IDOCK:   -6.28 KCAL/MOL
REMARK 922        TOTAL FREE ENERGY PREDICTED BY IDOCK:   -8.89 KCAL/MOL
REMARK 923 INTER-LIGAND FREE ENERGY PREDICTED BY IDOCK:   -7.87 KCAL/MOL
REMARK 924 INTRA-LIGAND FREE ENERGY PREDICTED BY IDOCK:   -1.02 KCAL/MOL
REMARK 927      BINDING AFFINITY PREDICTED BY RF-SCORE:    0.00 PKD
ROOT
HETATM    1  C   UNL     1     -11.426   6.855  71.818  1.00  0.00    -0.275 C  
HETATM    2  N   UNL     1     -11.415   8.318  71.965  1.00  0.00    -0.309 NA 
HETATM    3  C   UNL     1     -10.095   8.786  72.421  1.00  0.00    -0.152 C  
HETATM    4  C   UNL     1      -8.990   8.722  71.373  1.00  0.00    -0.307 C  
HETATM    5  C   UNL     1      -9.411   9.377  70.050  1.00  0.00    -0.228 C  
HETATM    6  C   UNL     1     -10.782   8.870  69.583  1.00  0.00    -0.222 C  
HETATM    7  C   UNL     1     -11.832   8.978  70.700  1.00  0.00    -0.154 C  
ENDROOT
BRANCH   5   8
HETATM    8  N   UNL     1      -8.375   9.222  69.027  1.00  0.00    -0.120 N  
HETATM    9  H   UNL     1      -7.964   8.304  68.859  1.00  0.00     0.000 HD 
BRANCH   8  10
HETATM   10  C   UNL     1      -7.951  10.301  68.291  1.00  0.00    -0.106 C  
HETATM   11  O   UNL     1      -7.870  10.292  67.068  1.00  0.00    -0.105 OA 
BRANCH  10  12
HETATM   12  N   UNL     1      -7.538  11.347  69.096  1.00  0.00    -0.300 N  
HETATM   13  H   UNL     1      -7.081  11.181  69.993  1.00  0.00     0.000 HD 
BRANCH  12  14
HETATM   14  C   UNL     1      -7.776  12.656  68.624  1.00  0.00    -0.066 A  
HETATM   15  C   UNL     1      -8.192  15.059  67.277  1.00  0.00    -0.236 A  
HETATM   16  C   UNL     1      -8.393  16.242  66.495  1.00  0.00    -0.308 C  
HETATM   17  N   UNL     1      -8.554  17.195  65.855  1.00  0.00    -0.529 NA 
HETATM   18  C   UNL     1      -6.694  13.501  68.382  1.00  0.00    -0.097 A  
HETATM   19  C   UNL     1      -9.282  14.247  67.598  1.00  0.00    -0.194 A  
HETATM   20  C   UNL     1      -9.072  13.048  68.273  1.00  0.00    -0.179 A  
HETATM   21  C   UNL     1      -6.903  14.693  67.685  1.00  0.00    -0.204 A  
ENDBRANCH  12  14
ENDBRANCH  10  12
ENDBRANCH   8  10
ENDBRANCH   5   8
BRANCH   7  22
HETATM   22  C   UNL     1     -12.216  10.424  70.913  1.00  0.00    -0.383 A  
HETATM   23  N   UNL     1     -13.009  10.898  71.855  1.00  0.00    -0.451 NA 
HETATM   24  N   UNL     1     -11.753  11.440  70.111  1.00  0.00    -0.331 NA 
HETATM   25  C   UNL     1     -13.061  12.251  71.651  1.00  0.00    -0.306 A  
HETATM   26  H   UNL     1     -13.485  10.368  72.585  1.00  0.00     0.000 HD 
HETATM   27  C   UNL     1     -12.291  12.620  70.554  1.00  0.00    -0.268 A  
HETATM   28  C   UNL     1     -13.756  13.232  72.370  1.00  0.00    -0.678 A  
HETATM   29  C   UNL     1     -12.176  13.939  70.113  1.00  0.00    -0.425 A  
HETATM   30  C   UNL     1     -12.874  14.908  70.846  1.00  0.00    -0.432 A  
HETATM   31  C   UNL     1     -13.650  14.564  71.956  1.00  0.00    -0.509 A  
ENDBRANCH   7  22
TORSDOF 5
ENDMDL
MODEL       55
REMARK 921   NORMALIZED FREE ENERGY PREDICTED BY IDOCK:   -6.22 KCAL/MOL
REMARK 922        TOTAL FREE ENERGY PREDICTED BY IDOCK:   -8.82 KCAL/MOL
REMARK 923 INTER-LIGAND FREE ENERGY PREDICTED BY IDOCK:   -7.63 KCAL/MOL
REMARK 924 INTRA-LIGAND FREE ENERGY PREDICTED BY IDOCK:   -1.18 KCAL/MOL
REMARK 927      BINDING AFFINITY PREDICTED BY RF-SCORE:    0.00 PKD
ROOT
HETATM    1  C   UNL     1      -7.263   5.519  66.442  1.00  0.00    -0.077 C  
HETATM    2  N   UNL     1      -8.355   6.470  66.182  1.00  0.00    -0.123 NA 
HETATM    3  C   UNL     1      -9.665   5.827  66.379  1.00  0.00    -0.147 C  
HETATM    4  C   UNL     1     -10.037   5.551  67.831  1.00  0.00    -0.218 C  
HETATM    5  C   UNL     1      -9.861   6.792  68.718  1.00  0.00    -0.143 C  
HETATM    6  C   UNL     1      -8.487   7.443  68.508  1.00  0.00    -0.125 C  
HETATM    7  C   UNL     1      -8.202   7.689  67.018  1.00  0.00    -0.117 C  
ENDROOT
BRANCH   5   8
HETATM    8  N   UNL     1     -10.131   6.484  70.124  1.00  0.00    -0.173 N  
HETATM    9  H   UNL     1      -9.448   5.954  70.664  1.00  0.00     0.000 HD 
BRANCH   8  10
HETATM   10  C   UNL     1     -11.294   6.901  70.721  1.00  0.00    -0.310 C  
HETATM   11  O   UNL     1     -12.400   6.468  70.417  1.00  0.00    -0.222 OA 
BRANCH  10  12
HETATM   12  N   UNL     1     -11.075   7.928  71.622  1.00  0.00    -0.239 N  
HETATM   13  H   UNL     1     -10.539   7.780  72.477  1.00  0.00     0.000 HD 
BRANCH  12  14
HETATM   14  C   UNL     1     -11.626   9.188  71.308  1.00  0.00    -0.331 A  
HETATM   15  C   UNL     1     -12.429  11.839  71.003  1.00  0.00    -0.411 A  
HETATM   16  C   UNL     1     -12.770  13.227  70.918  1.00  0.00    -0.254 C  
HETATM   17  N   UNL     1     -13.042  14.352  70.857  1.00  0.00    -0.352 NA 
HETATM   18  C   UNL     1     -12.700   9.669  72.057  1.00  0.00    -0.470 A  
HETATM   19  C   UNL     1     -11.411  11.325  70.195  1.00  0.00    -0.336 A  
HETATM   20  C   UNL     1     -11.013  10.000  70.348  1.00  0.00    -0.384 A  
HETATM   21  C   UNL     1     -13.083  11.005  71.920  1.00  0.00    -0.525 A  
ENDBRANCH  12  14
ENDBRANCH  10  12
ENDBRANCH   8  10
ENDBRANCH   5   8
BRANCH   7  22
HETATM   22  C   UNL     1      -9.046   8.836  66.511  1.00  0.00    -0.162 A  
HETATM   23  N   UNL     1      -9.779   9.656  67.239  1.00  0.00    -0.160 NA 
HETATM   24  N   UNL     1      -9.136   9.157  65.177  1.00  0.00    -0.204 NA 
HETATM   25  C   UNL     1     -10.359  10.522  66.352  1.00  0.00    -0.221 A  
HETATM   26  H   UNL     1      -9.891   9.647  68.253  1.00  0.00     0.000 HD 
HETATM   27  C   UNL     1      -9.983  10.226  65.047  1.00  0.00    -0.323 A  
HETATM   28  C   UNL     1     -11.228  11.595  66.596  1.00  0.00    -0.362 A  
HETATM   29  C   UNL     1     -10.440  10.945  63.941  1.00  0.00    -0.359 A  
HETATM   30  C   UNL     1     -11.304  12.015  64.203  1.00  0.00    -0.455 A  
HETATM   31  C   UNL     1     -11.692  12.338  65.506  1.00  0.00    -0.433 A  
ENDBRANCH   7  22
TORSDOF 5
ENDMDL
MODEL       56
REMARK 921   NORMALIZED FREE ENERGY PREDICTED BY IDOCK:   -6.22 KCAL/MOL
REMARK 922        TOTAL FREE ENERGY PREDICTED BY IDOCK:   -8.81 KCAL/MOL
REMARK 923 INTER-LIGAND FREE ENERGY PREDICTED BY IDOCK:   -8.34 KCAL/MOL
REMARK 924 INTRA-LIGAND FREE ENERGY PREDICTED BY IDOCK:   -0.47 KCAL/MOL
REMARK 927      BINDING AFFINITY PREDICTED BY RF-SCORE:    0.00 PKD
ROOT
HETATM    1  C   UNL     1     -11.690  15.791  69.458  1.00  0.00    -0.360 C  
HETATM    2  N   UNL     1     -10.409  16.356  69.007  1.00  0.00    -0.259 NA 
HETATM    3  C   UNL     1      -9.315  15.389  69.203  1.00  0.00    -0.246 C  
HETATM    4  C   UNL     1      -9.318  14.208  68.238  1.00  0.00    -0.203 C  
HETATM    5  C   UNL     1      -9.439  14.658  66.775  1.00  0.00    -0.260 C  
HETATM    6  C   UNL     1     -10.590  15.656  66.588  1.00  0.00    -0.307 C  
HETATM    7  C   UNL     1     -10.502  16.813  67.595  1.00  0.00    -0.328 C  
ENDROOT
BRANCH   5   8
HETATM    8  N   UNL     1      -9.536  13.509  65.872  1.00  0.00    -0.499 N  
HETATM    9  H   UNL     1      -9.654  13.661  64.871  1.00  0.00     0.000 HD 
BRANCH   8  10
HETATM   10  C   UNL     1      -9.468  12.228  66.361  1.00  0.00    -0.237 C  
HETATM   11  O   UNL     1      -8.415  11.679  66.668  1.00  0.00    -0.170 OA 
BRANCH  10  12
HETATM   12  N   UNL     1     -10.706  11.610  66.369  1.00  0.00    -0.262 N  
HETATM   13  H   UNL     1     -11.336  11.671  65.569  1.00  0.00     0.000 HD 
BRANCH  12  14
HETATM   14  C   UNL     1     -11.058  10.890  67.531  1.00  0.00    -0.310 A  
HETATM   15  C   UNL     1     -11.362   9.622  69.993  1.00  0.00    -0.239 A  
HETATM   16  C   UNL     1     -11.428   9.014  71.288  1.00  0.00    -0.320 C  
HETATM   17  N   UNL     1     -11.472   8.523  72.337  1.00  0.00    -0.370 NA 
HETATM   18  C   UNL     1     -10.600   9.583  67.689  1.00  0.00    -0.329 A  
HETATM   19  C   UNL     1     -11.895  10.899  69.800  1.00  0.00    -0.419 A  
HETATM   20  C   UNL     1     -11.744  11.530  68.569  1.00  0.00    -0.379 A  
HETATM   21  C   UNL     1     -10.731   8.960  68.932  1.00  0.00    -0.132 A  
ENDBRANCH  12  14
ENDBRANCH  10  12
ENDBRANCH   8  10
ENDBRANCH   5   8
BRANCH   7  22
HETATM   22  C   UNL     1      -9.369  17.741  67.222  1.00  0.00    -0.254 A  
HETATM   23  N   UNL     1      -8.606  17.660  66.149  1.00  0.00    -0.491 NA 
HETATM   24  N   UNL     1      -9.005  18.815  67.998  1.00  0.00    -0.292 NA 
HETATM   25  C   UNL     1      -7.727  18.705  66.239  1.00  0.00    -0.264 A  
HETATM   26  H   UNL     1      -8.660  16.964  65.405  1.00  0.00     0.000 HD 
HETATM   27  C   UNL     1      -7.946  19.443  67.398  1.00  0.00    -0.268 A  
HETATM   28  C   UNL     1      -6.704  19.085  65.360  1.00  0.00    -0.263 A  
HETATM   29  C   UNL     1      -7.181  20.557  67.747  1.00  0.00    -0.321 A  
HETATM   30  C   UNL     1      -6.165  20.925  66.855  1.00  0.00    -0.341 A  
HETATM   31  C   UNL     1      -5.929  20.205  65.680  1.00  0.00    -0.218 A  
ENDBRANCH   7  22
TORSDOF 5
ENDMDL
MODEL       57
REMARK 921   NORMALIZED FREE ENERGY PREDICTED BY IDOCK:   -6.19 KCAL/MOL
REMARK 922        TOTAL FREE ENERGY PREDICTED BY IDOCK:   -8.77 KCAL/MOL
REMARK 923 INTER-LIGAND FREE ENERGY PREDICTED BY IDOCK:   -7.53 KCAL/MOL
REMARK 924 INTRA-LIGAND FREE ENERGY PREDICTED BY IDOCK:   -1.25 KCAL/MOL
REMARK 927      BINDING AFFINITY PREDICTED BY RF-SCORE:    0.00 PKD
ROOT
HETATM    1  C   UNL     1     -11.699   6.275  72.061  1.00  0.00    -0.322 C  
HETATM    2  N   UNL     1     -11.672   7.742  72.163  1.00  0.00    -0.303 NA 
HETATM    3  C   UNL     1     -10.511   8.189  72.952  1.00  0.00    -0.268 C  
HETATM    4  C   UNL     1      -9.164   8.053  72.251  1.00  0.00    -0.243 C  
HETATM    5  C   UNL     1      -9.180   8.668  70.844  1.00  0.00    -0.190 C  
HETATM    6  C   UNL     1     -10.389   8.183  70.033  1.00  0.00    -0.215 C  
HETATM    7  C   UNL     1     -11.700   8.365  70.813  1.00  0.00    -0.202 C  
ENDROOT
BRANCH   5   8
HETATM    8  N   UNL     1      -7.909   8.443  70.152  1.00  0.00    -0.099 N  
HETATM    9  H   UNL     1      -7.594   7.490  69.970  1.00  0.00     0.000 HD 
BRANCH   8  10
HETATM   10  C   UNL     1      -7.138   9.503  69.744  1.00  0.00    -0.075 C  
HETATM   11  O   UNL     1      -6.801  10.416  70.490  1.00  0.00    -0.289 OA 
BRANCH  10  12
HETATM   12  N   UNL     1      -6.879   9.465  68.386  1.00  0.00    -0.062 N  
HETATM   13  H   UNL     1      -5.953   9.231  68.027  1.00  0.00     0.000 HD 
BRANCH  12  14
HETATM   14  C   UNL     1      -7.951   9.762  67.518  1.00  0.00    -0.106 A  
HETATM   15  C   UNL     1      -9.752  10.546  65.541  1.00  0.00    -0.298 A  
HETATM   16  C   UNL     1     -10.596  10.988  64.472  1.00  0.00    -0.313 C  
HETATM   17  N   UNL     1     -11.272  11.351  63.604  1.00  0.00    -0.368 NA 
HETATM   18  C   UNL     1      -8.598  10.992  67.629  1.00  0.00    -0.125 A  
HETATM   19  C   UNL     1      -9.164   9.280  65.481  1.00  0.00    -0.292 A  
HETATM   20  C   UNL     1      -8.266   8.890  66.471  1.00  0.00    -0.114 A  
HETATM   21  C   UNL     1      -9.480  11.392  66.623  1.00  0.00    -0.206 A  
ENDBRANCH  12  14
ENDBRANCH  10  12
ENDBRANCH   8  10
ENDBRANCH   5   8
BRANCH   7  22
HETATM   22  C   UNL     1     -12.072   9.829  70.870  1.00  0.00    -0.321 A  
HETATM   23  N   UNL     1     -11.662  10.778  70.050  1.00  0.00    -0.305 NA 
HETATM   24  N   UNL     1     -12.915  10.343  71.826  1.00  0.00    -0.454 NA 
HETATM   25  C   UNL     1     -12.252  11.931  70.492  1.00  0.00    -0.336 A  
HETATM   26  H   UNL     1     -11.035  10.674  69.252  1.00  0.00     0.000 HD 
HETATM   27  C   UNL     1     -13.038  11.691  71.614  1.00  0.00    -0.351 A  
HETATM   28  C   UNL     1     -12.158  13.231  69.977  1.00  0.00    -0.385 A  
HETATM   29  C   UNL     1     -13.744  12.696  72.278  1.00  0.00    -0.429 A  
HETATM   30  C   UNL     1     -13.642  13.988  71.748  1.00  0.00    -0.476 A  
HETATM   31  C   UNL     1     -12.865  14.254  70.617  1.00  0.00    -0.378 A  
ENDBRANCH   7  22
TORSDOF 5
ENDMDL
MODEL       58
REMARK 921   NORMALIZED FREE ENERGY PREDICTED BY IDOCK:   -6.19 KCAL/MOL
REMARK 922        TOTAL FREE ENERGY PREDICTED BY IDOCK:   -8.77 KCAL/MOL
REMARK 923 INTER-LIGAND FREE ENERGY PREDICTED BY IDOCK:   -8.15 KCAL/MOL
REMARK 924 INTRA-LIGAND FREE ENERGY PREDICTED BY IDOCK:   -0.62 KCAL/MOL
REMARK 927      BINDING AFFINITY PREDICTED BY RF-SCORE:    0.00 PKD
ROOT
HETATM    1  C   UNL     1     -11.011  15.894  65.010  1.00  0.00    -0.412 C  
HETATM    2  N   UNL     1     -11.421  15.342  66.310  1.00  0.00    -0.163 NA 
HETATM    3  C   UNL     1     -11.213  13.884  66.346  1.00  0.00    -0.315 C  
HETATM    4  C   UNL     1      -9.757  13.442  66.437  1.00  0.00    -0.282 C  
HETATM    5  C   UNL     1      -9.004  14.163  67.564  1.00  0.00    -0.198 C  
HETATM    6  C   UNL     1      -9.222  15.681  67.504  1.00  0.00    -0.203 C  
HETATM    7  C   UNL     1     -10.716  16.032  67.422  1.00  0.00    -0.306 C  
ENDROOT
BRANCH   5   8
HETATM    8  N   UNL     1      -7.586  13.797  67.574  1.00  0.00    -0.190 N  
HETATM    9  H   UNL     1      -6.881  14.497  67.344  1.00  0.00     0.000 HD 
BRANCH   8  10
HETATM   10  C   UNL     1      -7.196  12.519  67.890  1.00  0.00    -0.115 C  
HETATM   11  O   UNL     1      -6.330  11.907  67.274  1.00  0.00    -0.112 OA 
BRANCH  10  12
HETATM   12  N   UNL     1      -7.959  11.981  68.910  1.00  0.00    -0.343 N  
HETATM   13  H   UNL     1      -8.097  12.477  69.791  1.00  0.00     0.000 HD 
BRANCH  12  14
HETATM   14  C   UNL     1      -8.541  10.716  68.680  1.00  0.00    -0.144 A  
HETATM   15  C   UNL     1      -9.834   8.248  68.655  1.00  0.00    -0.186 A  
HETATM   16  C   UNL     1     -10.529   6.999  68.741  1.00  0.00    -0.206 C  
HETATM   17  N   UNL     1     -11.093   5.989  68.819  1.00  0.00    -0.322 NA 
HETATM   18  C   UNL     1      -7.829   9.566  69.021  1.00  0.00    -0.077 A  
HETATM   19  C   UNL     1     -10.516   9.392  68.234  1.00  0.00    -0.260 A  
HETATM   20  C   UNL     1      -9.867  10.624  68.245  1.00  0.00    -0.174 A  
HETATM   21  C   UNL     1      -8.488   8.334  69.032  1.00  0.00    -0.131 A  
ENDBRANCH  12  14
ENDBRANCH  10  12
ENDBRANCH   8  10
ENDBRANCH   5   8
BRANCH   7  22
HETATM   22  C   UNL     1     -11.381  15.787  68.756  1.00  0.00    -0.362 A  
HETATM   23  N   UNL     1     -12.503  15.126  68.968  1.00  0.00    -0.575 NA 
HETATM   24  N   UNL     1     -10.857  16.248  69.941  1.00  0.00    -0.351 NA 
HETATM   25  C   UNL     1     -12.709  15.167  70.320  1.00  0.00    -0.299 A  
HETATM   26  H   UNL     1     -13.095  14.677  68.268  1.00  0.00     0.000 HD 
HETATM   27  C   UNL     1     -11.697  15.875  70.958  1.00  0.00    -0.432 A  
HETATM   28  C   UNL     1     -13.751  14.616  71.077  1.00  0.00    -0.281 A  
HETATM   29  C   UNL     1     -11.665  16.083  72.338  1.00  0.00    -0.573 A  
HETATM   30  C   UNL     1     -12.713  15.522  73.080  1.00  0.00    -0.563 A  
HETATM   31  C   UNL     1     -13.738  14.799  72.464  1.00  0.00    -0.572 A  
ENDBRANCH   7  22
TORSDOF 5
ENDMDL
MODEL       59
REMARK 921   NORMALIZED FREE ENERGY PREDICTED BY IDOCK:   -6.19 KCAL/MOL
REMARK 922        TOTAL FREE ENERGY PREDICTED BY IDOCK:   -8.77 KCAL/MOL
REMARK 923 INTER-LIGAND FREE ENERGY PREDICTED BY IDOCK:   -8.24 KCAL/MOL
REMARK 924 INTRA-LIGAND FREE ENERGY PREDICTED BY IDOCK:   -0.53 KCAL/MOL
REMARK 927      BINDING AFFINITY PREDICTED BY RF-SCORE:    0.00 PKD
ROOT
HETATM    1  C   UNL     1     -10.682  12.942  63.992  1.00  0.00    -0.399 C  
HETATM    2  N   UNL     1     -10.997  14.189  64.706  1.00  0.00    -0.391 NA 
HETATM    3  C   UNL     1     -12.377  14.162  65.219  1.00  0.00    -0.460 C  
HETATM    4  C   UNL     1     -12.607  13.235  66.407  1.00  0.00    -0.066 C  
HETATM    5  C   UNL     1     -11.579  13.462  67.524  1.00  0.00    -0.344 C  
HETATM    6  C   UNL     1     -10.146  13.475  66.974  1.00  0.00    -0.244 C  
HETATM    7  C   UNL     1     -10.007  14.441  65.787  1.00  0.00    -0.329 C  
ENDROOT
BRANCH   5   8
HETATM    8  N   UNL     1     -11.756  12.500  68.614  1.00  0.00    -0.311 N  
HETATM    9  H   UNL     1     -12.523  12.621  69.275  1.00  0.00     0.000 HD 
BRANCH   8  10
HETATM   10  C   UNL     1     -10.900  11.436  68.753  1.00  0.00    -0.208 C  
HETATM   11  O   UNL     1      -9.891  11.470  69.449  1.00  0.00     0.121 OA 
BRANCH  10  12
HETATM   12  N   UNL     1     -11.258  10.373  67.944  1.00  0.00    -0.416 N  
HETATM   13  H   UNL     1     -12.237  10.156  67.751  1.00  0.00     0.000 HD 
BRANCH  12  14
HETATM   14  C   UNL     1     -10.212   9.600  67.396  1.00  0.00    -0.227 A  
HETATM   15  C   UNL     1      -8.452   7.950  66.002  1.00  0.00    -0.145 A  
HETATM   16  C   UNL     1      -7.625   7.082  65.218  1.00  0.00    -0.099 C  
HETATM   17  N   UNL     1      -6.963   6.377  64.580  1.00  0.00    -0.046 NA 
HETATM   18  C   UNL     1     -10.079   8.265  67.776  1.00  0.00    -0.262 A  
HETATM   19  C   UNL     1      -8.529   9.308  65.683  1.00  0.00    -0.149 A  
HETATM   20  C   UNL     1      -9.407  10.131  66.382  1.00  0.00    -0.209 A  
HETATM   21  C   UNL     1      -9.214   7.435  67.059  1.00  0.00    -0.169 A  
ENDBRANCH  12  14
ENDBRANCH  10  12
ENDBRANCH   8  10
ENDBRANCH   5   8
BRANCH   7  22
HETATM   22  C   UNL     1     -10.048  15.871  66.273  1.00  0.00    -0.301 A  
HETATM   23  N   UNL     1     -10.059  16.957  65.524  1.00  0.00    -0.598 NA 
HETATM   24  N   UNL     1     -10.081  16.199  67.607  1.00  0.00    -0.243 NA 
HETATM   25  C   UNL     1     -10.096  18.010  66.398  1.00  0.00    -0.384 A  
HETATM   26  H   UNL     1     -10.044  17.003  64.505  1.00  0.00     0.000 HD 
HETATM   27  C   UNL     1     -10.099  17.565  67.715  1.00  0.00    -0.330 A  
HETATM   28  C   UNL     1     -10.126  19.386  66.131  1.00  0.00    -0.533 A  
HETATM   29  C   UNL     1     -10.120  18.430  68.811  1.00  0.00    -0.393 A  
HETATM   30  C   UNL     1     -10.155  19.801  68.526  1.00  0.00    -0.555 A  
HETATM   31  C   UNL     1     -10.159  20.274  67.211  1.00  0.00    -0.545 A  
ENDBRANCH   7  22
TORSDOF 5
ENDMDL
MODEL       60
REMARK 921   NORMALIZED FREE ENERGY PREDICTED BY IDOCK:   -6.12 KCAL/MOL
REMARK 922        TOTAL FREE ENERGY PREDICTED BY IDOCK:   -8.68 KCAL/MOL
REMARK 923 INTER-LIGAND FREE ENERGY PREDICTED BY IDOCK:   -8.39 KCAL/MOL
REMARK 924 INTRA-LIGAND FREE ENERGY PREDICTED BY IDOCK:   -0.29 KCAL/MOL
REMARK 927      BINDING AFFINITY PREDICTED BY RF-SCORE:    0.00 PKD
ROOT
HETATM    1  C   UNL     1     -11.460  14.632  69.417  1.00  0.00    -0.296 C  
HETATM    2  N   UNL     1     -10.353  15.479  68.948  1.00  0.00    -0.213 NA 
HETATM    3  C   UNL     1      -9.225  14.654  68.483  1.00  0.00    -0.193 C  
HETATM    4  C   UNL     1      -9.452  13.938  67.156  1.00  0.00    -0.246 C  
HETATM    5  C   UNL     1      -9.960  14.892  66.066  1.00  0.00    -0.313 C  
HETATM    6  C   UNL     1     -11.142  15.736  66.562  1.00  0.00    -0.079 C  
HETATM    7  C   UNL     1     -10.820  16.423  67.899  1.00  0.00    -0.328 C  
ENDROOT
BRANCH   5   8
HETATM    8  N   UNL     1     -10.263  14.170  64.828  1.00  0.00    -0.579 N  
HETATM    9  H   UNL     1      -9.568  14.131  64.083  1.00  0.00     0.000 HD 
BRANCH   8  10
HETATM   10  C   UNL     1     -11.474  13.546  64.661  1.00  0.00    -0.358 C  
HETATM   11  O   UNL     1     -12.440  14.083  64.129  1.00  0.00    -0.665 OA 
BRANCH  10  12
HETATM   12  N   UNL     1     -11.498  12.294  65.248  1.00  0.00    -0.342 N  
HETATM   13  H   UNL     1     -12.078  12.100  66.065  1.00  0.00     0.000 HD 
BRANCH  12  14
HETATM   14  C   UNL     1     -10.686  11.296  64.670  1.00  0.00    -0.303 A  
HETATM   15  C   UNL     1      -8.734   9.595  63.640  1.00  0.00    -0.240 A  
HETATM   16  C   UNL     1      -7.659   8.789  63.144  1.00  0.00    -0.109 C  
HETATM   17  N   UNL     1      -6.783   8.144  62.744  1.00  0.00    -0.086 NA 
HETATM   18  C   UNL     1     -10.316  11.409  63.330  1.00  0.00    -0.422 A  
HETATM   19  C   UNL     1      -9.171   9.432  64.957  1.00  0.00    -0.280 A  
HETATM   20  C   UNL     1     -10.147  10.282  65.469  1.00  0.00    -0.351 A  
HETATM   21  C   UNL     1      -9.320  10.571  62.824  1.00  0.00    -0.342 A  
ENDBRANCH  12  14
ENDBRANCH  10  12
ENDBRANCH   8  10
ENDBRANCH   5   8
BRANCH   7  22
HETATM   22  C   UNL     1      -9.844  17.556  67.678  1.00  0.00    -0.291 A  
HETATM   23  N   UNL     1      -9.666  18.236  66.561  1.00  0.00    -0.329 NA 
HETATM   24  N   UNL     1      -9.007  18.016  68.666  1.00  0.00    -0.295 NA 
HETATM   25  C   UNL     1      -8.687  19.151  66.835  1.00  0.00    -0.301 A  
HETATM   26  H   UNL     1     -10.157  18.106  65.676  1.00  0.00     0.000 HD 
HETATM   27  C   UNL     1      -8.244  19.030  68.148  1.00  0.00    -0.314 A  
HETATM   28  C   UNL     1      -8.121  20.125  66.001  1.00  0.00    -0.218 A  
HETATM   29  C   UNL     1      -7.239  19.833  68.690  1.00  0.00    -0.358 A  
HETATM   30  C   UNL     1      -6.687  20.803  67.844  1.00  0.00    -0.347 A  
HETATM   31  C   UNL     1      -7.119  20.950  66.523  1.00  0.00    -0.193 A  
ENDBRANCH   7  22
TORSDOF 5
ENDMDL
MODEL       61
REMARK 921   NORMALIZED FREE ENERGY PREDICTED BY IDOCK:   -6.08 KCAL/MOL
REMARK 922        TOTAL FREE ENERGY PREDICTED BY IDOCK:   -8.63 KCAL/MOL
REMARK 923 INTER-LIGAND FREE ENERGY PREDICTED BY IDOCK:   -7.33 KCAL/MOL
REMARK 924 INTRA-LIGAND FREE ENERGY PREDICTED BY IDOCK:   -1.30 KCAL/MOL
REMARK 927      BINDING AFFINITY PREDICTED BY RF-SCORE:    0.00 PKD
ROOT
HETATM    1  C   UNL     1     -10.384   6.984  73.744  1.00  0.00    -0.369 C  
HETATM    2  N   UNL     1     -10.608   6.702  72.318  1.00  0.00    -0.210 NA 
HETATM    3  C   UNL     1     -12.035   6.841  71.977  1.00  0.00    -0.317 C  
HETATM    4  C   UNL     1     -12.553   8.274  71.940  1.00  0.00    -0.379 C  
HETATM    5  C   UNL     1     -11.662   9.189  71.088  1.00  0.00    -0.313 C  
HETATM    6  C   UNL     1     -10.181   9.040  71.464  1.00  0.00    -0.414 C  
HETATM    7  C   UNL     1      -9.747   7.565  71.468  1.00  0.00    -0.165 C  
ENDROOT
BRANCH   5   8
HETATM    8  N   UNL     1     -12.120  10.579  71.142  1.00  0.00    -0.370 N  
HETATM    9  H   UNL     1     -12.562  10.932  71.991  1.00  0.00     0.000 HD 
BRANCH   8  10
HETATM   10  C   UNL     1     -11.961  11.410  70.062  1.00  0.00    -0.363 C  
HETATM   11  O   UNL     1     -11.562  12.566  70.155  1.00  0.00    -0.216 OA 
BRANCH  10  12
HETATM   12  N   UNL     1     -12.394  10.823  68.887  1.00  0.00    -0.368 N  
HETATM   13  H   UNL     1     -13.298  10.353  68.829  1.00  0.00     0.000 HD 
BRANCH  12  14
HETATM   14  C   UNL     1     -11.534  10.903  67.771  1.00  0.00    -0.243 A  
HETATM   15  C   UNL     1     -10.154  10.822  65.352  1.00  0.00    -0.347 A  
HETATM   16  C   UNL     1      -9.526  10.728  64.069  1.00  0.00    -0.272 C  
HETATM   17  N   UNL     1      -9.023  10.645  63.027  1.00  0.00    -0.222 NA 
HETATM   18  C   UNL     1     -10.625   9.873  67.536  1.00  0.00    -0.333 A  
HETATM   19  C   UNL     1     -11.002  11.897  65.631  1.00  0.00    -0.353 A  
HETATM   20  C   UNL     1     -11.689  11.936  66.841  1.00  0.00    -0.291 A  
HETATM   21  C   UNL     1      -9.954   9.822  66.312  1.00  0.00    -0.331 A  
ENDBRANCH  12  14
ENDBRANCH  10  12
ENDBRANCH   8  10
ENDBRANCH   5   8
BRANCH   7  22
HETATM   22  C   UNL     1      -9.646   7.050  70.051  1.00  0.00    -0.164 A  
HETATM   23  N   UNL     1     -10.548   6.332  69.408  1.00  0.00    -0.239 NA 
HETATM   24  N   UNL     1      -8.555   7.291  69.251  1.00  0.00    -0.136 NA 
HETATM   25  C   UNL     1     -10.022   6.102  68.166  1.00  0.00    -0.142 A  
HETATM   26  H   UNL     1     -11.450   6.015  69.763  1.00  0.00     0.000 HD 
HETATM   27  C   UNL     1      -8.764   6.682  68.041  1.00  0.00    -0.117 A  
HETATM   28  C   UNL     1     -10.568   5.395  67.086  1.00  0.00    -0.274 A  
HETATM   29  C   UNL     1      -7.995   6.589  66.880  1.00  0.00    -0.112 A  
HETATM   30  C   UNL     1      -8.558   5.883  65.809  1.00  0.00    -0.154 A  
HETATM   31  C   UNL     1      -9.823   5.297  65.907  1.00  0.00    -0.112 A  
ENDBRANCH   7  22
TORSDOF 5
ENDMDL
MODEL       62
REMARK 921   NORMALIZED FREE ENERGY PREDICTED BY IDOCK:   -6.06 KCAL/MOL
REMARK 922        TOTAL FREE ENERGY PREDICTED BY IDOCK:   -8.61 KCAL/MOL
REMARK 923 INTER-LIGAND FREE ENERGY PREDICTED BY IDOCK:   -7.96 KCAL/MOL
REMARK 924 INTRA-LIGAND FREE ENERGY PREDICTED BY IDOCK:   -0.64 KCAL/MOL
REMARK 927      BINDING AFFINITY PREDICTED BY RF-SCORE:    0.00 PKD
ROOT
HETATM    1  C   UNL     1      -9.184   9.192  65.398  1.00  0.00    -0.202 C  
HETATM    2  N   UNL     1      -9.174   8.756  66.803  1.00  0.00    -0.160 NA 
HETATM    3  C   UNL     1      -8.125   9.459  67.560  1.00  0.00    -0.110 C  
HETATM    4  C   UNL     1      -8.412  10.928  67.850  1.00  0.00    -0.129 C  
HETATM    5  C   UNL     1      -9.805  11.133  68.464  1.00  0.00    -0.198 C  
HETATM    6  C   UNL     1     -10.887  10.404  67.656  1.00  0.00    -0.361 C  
HETATM    7  C   UNL     1     -10.516   8.932  67.419  1.00  0.00    -0.277 C  
ENDROOT
BRANCH   5   8
HETATM    8  N   UNL     1     -10.101  12.556  68.646  1.00  0.00    -0.378 N  
HETATM    9  H   UNL     1      -9.358  13.245  68.532  1.00  0.00     0.000 HD 
BRANCH   8  10
HETATM   10  C   UNL     1     -11.368  12.971  68.971  1.00  0.00    -0.289 C  
HETATM   11  O   UNL     1     -11.958  12.606  69.983  1.00  0.00    -0.339 OA 
BRANCH  10  12
HETATM   12  N   UNL     1     -11.927  13.757  67.980  1.00  0.00    -0.371 N  
HETATM   13  H   UNL     1     -12.801  13.497  67.522  1.00  0.00     0.000 HD 
BRANCH  12  14
HETATM   14  C   UNL     1     -11.236  14.936  67.628  1.00  0.00    -0.323 A  
HETATM   15  C   UNL     1     -10.282  17.431  66.832  1.00  0.00    -0.322 A  
HETATM   16  C   UNL     1      -9.891  18.741  66.407  1.00  0.00    -0.373 C  
HETATM   17  N   UNL     1      -9.582  19.802  66.058  1.00  0.00    -0.382 NA 
HETATM   18  C   UNL     1     -10.848  15.130  66.303  1.00  0.00    -0.333 A  
HETATM   19  C   UNL     1     -10.591  17.203  68.176  1.00  0.00    -0.380 A  
HETATM   20  C   UNL     1     -11.065  15.955  68.571  1.00  0.00    -0.340 A  
HETATM   21  C   UNL     1     -10.395  16.389  65.902  1.00  0.00    -0.378 A  
ENDBRANCH  12  14
ENDBRANCH  10  12
ENDBRANCH   8  10
ENDBRANCH   5   8
BRANCH   7  22
HETATM   22  C   UNL     1     -10.660   8.147  68.702  1.00  0.00    -0.109 A  
HETATM   23  N   UNL     1     -11.421   8.457  69.734  1.00  0.00    -0.431 NA 
HETATM   24  N   UNL     1      -9.982   6.973  68.933  1.00  0.00    -0.157 NA 
HETATM   25  C   UNL     1     -11.225   7.462  70.653  1.00  0.00    -0.270 A  
HETATM   26  H   UNL     1     -12.030   9.270  69.828  1.00  0.00     0.000 HD 
HETATM   27  C   UNL     1     -10.316   6.520  70.182  1.00  0.00    -0.201 A  
HETATM   28  C   UNL     1     -11.794   7.299  71.923  1.00  0.00    -0.333 A  
HETATM   29  C   UNL     1      -9.923   5.405  70.923  1.00  0.00    -0.265 A  
HETATM   30  C   UNL     1     -10.505   5.256  72.189  1.00  0.00    -0.278 A  
HETATM   31  C   UNL     1     -11.426   6.184  72.682  1.00  0.00    -0.277 A  
ENDBRANCH   7  22
TORSDOF 5
ENDMDL
MODEL       63
REMARK 921   NORMALIZED FREE ENERGY PREDICTED BY IDOCK:   -6.05 KCAL/MOL
REMARK 922        TOTAL FREE ENERGY PREDICTED BY IDOCK:   -8.60 KCAL/MOL
REMARK 923 INTER-LIGAND FREE ENERGY PREDICTED BY IDOCK:   -8.11 KCAL/MOL
REMARK 924 INTRA-LIGAND FREE ENERGY PREDICTED BY IDOCK:   -0.48 KCAL/MOL
REMARK 927      BINDING AFFINITY PREDICTED BY RF-SCORE:    0.00 PKD
ROOT
HETATM    1  C   UNL     1     -10.983   6.520  72.953  1.00  0.00    -0.250 C  
HETATM    2  N   UNL     1     -10.989   6.833  71.516  1.00  0.00    -0.234 NA 
HETATM    3  C   UNL     1     -12.367   7.013  71.028  1.00  0.00    -0.356 C  
HETATM    4  C   UNL     1     -13.046   8.303  71.474  1.00  0.00    -0.313 C  
HETATM    5  C   UNL     1     -12.172   9.537  71.211  1.00  0.00    -0.348 C  
HETATM    6  C   UNL     1     -10.744   9.336  71.736  1.00  0.00    -0.324 C  
HETATM    7  C   UNL     1     -10.138   8.017  71.230  1.00  0.00    -0.185 C  
ENDROOT
BRANCH   5   8
HETATM    8  N   UNL     1     -12.799  10.754  71.733  1.00  0.00    -0.447 N  
HETATM    9  H   UNL     1     -13.464  10.689  72.503  1.00  0.00     0.000 HD 
BRANCH   8  10
HETATM   10  C   UNL     1     -12.500  11.980  71.194  1.00  0.00    -0.249 C  
HETATM   11  O   UNL     1     -13.147  12.995  71.430  1.00  0.00    -0.331 OA 
BRANCH  10  12
HETATM   12  N   UNL     1     -11.458  11.909  70.287  1.00  0.00    -0.506 N  
HETATM   13  H   UNL     1     -10.698  11.237  70.401  1.00  0.00     0.000 HD 
BRANCH  12  14
HETATM   14  C   UNL     1     -11.490  12.805  69.198  1.00  0.00    -0.306 A  
HETATM   15  C   UNL     1     -11.109  14.486  67.009  1.00  0.00    -0.324 A  
HETATM   16  C   UNL     1     -10.814  15.320  65.883  1.00  0.00    -0.342 C  
HETATM   17  N   UNL     1     -10.565  15.994  64.973  1.00  0.00    -0.606 NA 
HETATM   18  C   UNL     1     -11.186  14.149  69.411  1.00  0.00    -0.298 A  
HETATM   19  C   UNL     1     -11.498  13.160  66.805  1.00  0.00    -0.386 A  
HETATM   20  C   UNL     1     -11.689  12.322  67.900  1.00  0.00    -0.410 A  
HETATM   21  C   UNL     1     -10.971  14.983  68.311  1.00  0.00    -0.274 A  
ENDBRANCH  12  14
ENDBRANCH  10  12
ENDBRANCH   8  10
ENDBRANCH   5   8
BRANCH   7  22
HETATM   22  C   UNL     1      -9.797   8.132  69.763  1.00  0.00    -0.187 A  
HETATM   23  N   UNL     1      -9.134   7.253  69.037  1.00  0.00    -0.134 NA 
HETATM   24  N   UNL     1     -10.163   9.215  69.000  1.00  0.00    -0.202 NA 
HETATM   25  C   UNL     1      -9.067   7.784  67.778  1.00  0.00    -0.134 A  
HETATM   26  H   UNL     1      -8.750   6.360  69.349  1.00  0.00     0.000 HD 
HETATM   27  C   UNL     1      -9.696   9.023  67.726  1.00  0.00    -0.156 A  
HETATM   28  C   UNL     1      -8.477   7.258  66.621  1.00  0.00    -0.124 A  
HETATM   29  C   UNL     1      -9.764   9.795  66.564  1.00  0.00    -0.267 A  
HETATM   30  C   UNL     1      -9.173   9.252  65.416  1.00  0.00    -0.284 A  
HETATM   31  C   UNL     1      -8.541   8.005  65.440  1.00  0.00    -0.138 A  
ENDBRANCH   7  22
TORSDOF 5
ENDMDL
MODEL       64
REMARK 921   NORMALIZED FREE ENERGY PREDICTED BY IDOCK:   -6.03 KCAL/MOL
REMARK 922        TOTAL FREE ENERGY PREDICTED BY IDOCK:   -8.57 KCAL/MOL
REMARK 923 INTER-LIGAND FREE ENERGY PREDICTED BY IDOCK:   -7.17 KCAL/MOL
REMARK 924 INTRA-LIGAND FREE ENERGY PREDICTED BY IDOCK:   -1.39 KCAL/MOL
REMARK 927      BINDING AFFINITY PREDICTED BY RF-SCORE:    0.00 PKD
ROOT
HETATM    1  C   UNL     1      -7.246   9.258  63.991  1.00  0.00    -0.098 C  
HETATM    2  N   UNL     1      -7.526   8.976  65.407  1.00  0.00    -0.088 NA 
HETATM    3  C   UNL     1      -7.036  10.068  66.263  1.00  0.00    -0.105 C  
HETATM    4  C   UNL     1      -7.848  11.357  66.194  1.00  0.00     0.048 C  
HETATM    5  C   UNL     1      -9.351  11.103  66.381  1.00  0.00    -0.188 C  
HETATM    6  C   UNL     1      -9.846   9.970  65.472  1.00  0.00    -0.373 C  
HETATM    7  C   UNL     1      -8.974   8.713  65.614  1.00  0.00    -0.182 C  
ENDROOT
BRANCH   5   8
HETATM    8  N   UNL     1     -10.122  12.337  66.216  1.00  0.00    -0.229 N  
HETATM    9  H   UNL     1      -9.962  12.928  65.400  1.00  0.00     0.000 HD 
BRANCH   8  10
HETATM   10  C   UNL     1     -11.060  12.706  67.148  1.00  0.00    -0.280 C  
HETATM   11  O   UNL     1     -12.225  12.963  66.867  1.00  0.00    -0.407 OA 
BRANCH  10  12
HETATM   12  N   UNL     1     -10.509  12.846  68.410  1.00  0.00    -0.247 N  
HETATM   13  H   UNL     1      -9.733  13.485  68.584  1.00  0.00     0.000 HD 
BRANCH  12  14
HETATM   14  C   UNL     1     -11.068  12.068  69.446  1.00  0.00    -0.133 A  
HETATM   15  C   UNL     1     -12.505  10.445  71.197  1.00  0.00    -0.509 A  
HETATM   16  C   UNL     1     -13.312   9.596  72.020  1.00  0.00    -0.457 C  
HETATM   17  N   UNL     1     -13.973   8.910  72.680  1.00  0.00    -0.444 NA 
HETATM   18  C   UNL     1     -11.998  12.646  70.308  1.00  0.00    -0.363 A  
HETATM   19  C   UNL     1     -11.510   9.885  70.391  1.00  0.00    -0.372 A  
HETATM   20  C   UNL     1     -10.792  10.698  69.518  1.00  0.00    -0.303 A  
HETATM   21  C   UNL     1     -12.735  11.826  71.166  1.00  0.00    -0.405 A  
ENDBRANCH  12  14
ENDBRANCH  10  12
ENDBRANCH   8  10
ENDBRANCH   5   8
BRANCH   7  22
HETATM   22  C   UNL     1      -9.246   8.040  66.940  1.00  0.00    -0.154 A  
HETATM   23  N   UNL     1      -8.404   7.918  67.948  1.00  0.00    -0.125 NA 
HETATM   24  N   UNL     1     -10.456   7.462  67.244  1.00  0.00    -0.284 NA 
HETATM   25  C   UNL     1      -9.086   7.241  68.922  1.00  0.00    -0.132 A  
HETATM   26  H   UNL     1      -7.442   8.257  67.993  1.00  0.00     0.000 HD 
HETATM   27  C   UNL     1     -10.376   6.931  68.505  1.00  0.00    -0.186 A  
HETATM   28  C   UNL     1      -8.661   6.853  70.200  1.00  0.00    -0.141 A  
HETATM   29  C   UNL     1     -11.286   6.230  69.298  1.00  0.00    -0.458 A  
HETATM   30  C   UNL     1     -10.845   5.854  70.573  1.00  0.00    -0.366 A  
HETATM   31  C   UNL     1      -9.556   6.159  71.020  1.00  0.00    -0.194 A  
ENDBRANCH   7  22
TORSDOF 5
ENDMDL
MODEL       65
REMARK 921   NORMALIZED FREE ENERGY PREDICTED BY IDOCK:   -6.03 KCAL/MOL
REMARK 922        TOTAL FREE ENERGY PREDICTED BY IDOCK:   -8.56 KCAL/MOL
REMARK 923 INTER-LIGAND FREE ENERGY PREDICTED BY IDOCK:   -7.57 KCAL/MOL
REMARK 924 INTRA-LIGAND FREE ENERGY PREDICTED BY IDOCK:   -1.00 KCAL/MOL
REMARK 927      BINDING AFFINITY PREDICTED BY RF-SCORE:    0.00 PKD
ROOT
HETATM    1  C   UNL     1      -8.788  18.082  68.371  1.00  0.00    -0.292 C  
HETATM    2  N   UNL     1      -8.743  16.621  68.538  1.00  0.00    -0.232 NA 
HETATM    3  C   UNL     1     -10.099  16.074  68.714  1.00  0.00    -0.225 C  
HETATM    4  C   UNL     1     -10.958  16.063  67.454  1.00  0.00    -0.237 C  
HETATM    5  C   UNL     1     -10.227  15.430  66.262  1.00  0.00    -0.290 C  
HETATM    6  C   UNL     1      -8.822  16.020  66.087  1.00  0.00    -0.366 C  
HETATM    7  C   UNL     1      -8.028  15.983  67.402  1.00  0.00    -0.159 C  
ENDROOT
BRANCH   5   8
HETATM    8  N   UNL     1     -11.031  15.515  65.040  1.00  0.00    -0.427 N  
HETATM    9  H   UNL     1     -11.004  16.364  64.476  1.00  0.00     0.000 HD 
BRANCH   8  10
HETATM   10  C   UNL     1     -11.820  14.463  64.648  1.00  0.00    -0.451 C  
HETATM   11  O   UNL     1     -13.005  14.362  64.948  1.00  0.00    -0.641 OA 
BRANCH  10  12
HETATM   12  N   UNL     1     -11.099  13.498  63.968  1.00  0.00    -0.568 N  
HETATM   13  H   UNL     1     -10.870  13.603  62.979  1.00  0.00     0.000 HD 
BRANCH  12  14
HETATM   14  C   UNL     1     -10.692  12.363  64.702  1.00  0.00    -0.305 A  
HETATM   15  C   UNL     1     -10.279   9.936  66.006  1.00  0.00    -0.269 A  
HETATM   16  C   UNL     1     -10.156   8.656  66.636  1.00  0.00    -0.294 C  
HETATM   17  N   UNL     1     -10.066   7.618  67.143  1.00  0.00    -0.225 NA 
HETATM   18  C   UNL     1     -11.124  12.212  66.019  1.00  0.00    -0.354 A  
HETATM   19  C   UNL     1      -9.774  10.125  64.717  1.00  0.00    -0.389 A  
HETATM   20  C   UNL     1      -9.980  11.339  64.068  1.00  0.00    -0.362 A  
HETATM   21  C   UNL     1     -10.937  10.985  66.661  1.00  0.00    -0.253 A  
ENDBRANCH  12  14
ENDBRANCH  10  12
ENDBRANCH   8  10
ENDBRANCH   5   8
BRANCH   7  22
HETATM   22  C   UNL     1      -7.612  14.565  67.717  1.00  0.00    -0.159 A  
HETATM   23  N   UNL     1      -7.813  13.499  66.965  1.00  0.00    -0.380 NA 
HETATM   24  N   UNL     1      -6.948  14.226  68.872  1.00  0.00    -0.102 NA 
HETATM   25  C   UNL     1      -7.270  12.450  67.655  1.00  0.00    -0.130 A  
HETATM   26  H   UNL     1      -8.277  13.465  66.057  1.00  0.00     0.000 HD 
HETATM   27  C   UNL     1      -6.728  12.873  68.864  1.00  0.00    -0.097 A  
HETATM   28  C   UNL     1      -7.206  11.094  67.305  1.00  0.00    -0.113 A  
HETATM   29  C   UNL     1      -6.122  12.005  69.773  1.00  0.00    -0.145 A  
HETATM   30  C   UNL     1      -6.063  10.655  69.405  1.00  0.00    -0.047 A  
HETATM   31  C   UNL     1      -6.593  10.204  68.193  1.00  0.00    -0.058 A  
ENDBRANCH   7  22
TORSDOF 5
ENDMDL
MODEL       66
REMARK 921   NORMALIZED FREE ENERGY PREDICTED BY IDOCK:   -6.03 KCAL/MOL
REMARK 922        TOTAL FREE ENERGY PREDICTED BY IDOCK:   -8.56 KCAL/MOL
REMARK 923 INTER-LIGAND FREE ENERGY PREDICTED BY IDOCK:   -7.35 KCAL/MOL
REMARK 924 INTRA-LIGAND FREE ENERGY PREDICTED BY IDOCK:   -1.21 KCAL/MOL
REMARK 927      BINDING AFFINITY PREDICTED BY RF-SCORE:    0.00 PKD
ROOT
HETATM    1  C   UNL     1      -9.284   8.102  65.859  1.00  0.00    -0.097 C  
HETATM    2  N   UNL     1      -8.600   9.357  66.205  1.00  0.00    -0.129 NA 
HETATM    3  C   UNL     1      -8.462  10.219  65.019  1.00  0.00    -0.172 C  
HETATM    4  C   UNL     1      -9.755  10.869  64.539  1.00  0.00    -0.334 C  
HETATM    5  C   UNL     1     -10.508  11.569  65.679  1.00  0.00    -0.266 C  
HETATM    6  C   UNL     1     -10.653  10.653  66.902  1.00  0.00    -0.311 C  
HETATM    7  C   UNL     1      -9.301  10.050  67.317  1.00  0.00    -0.148 C  
ENDROOT
BRANCH   5   8
HETATM    8  N   UNL     1     -11.791  12.103  65.219  1.00  0.00    -0.343 N  
HETATM    9  H   UNL     1     -12.387  11.537  64.616  1.00  0.00     0.000 HD 
BRANCH   8  10
HETATM   10  C   UNL     1     -12.200  13.359  65.591  1.00  0.00    -0.463 C  
HETATM   11  O   UNL     1     -13.265  13.854  65.238  1.00  0.00    -0.774 OA 
BRANCH  10  12
HETATM   12  N   UNL     1     -11.230  14.025  66.320  1.00  0.00    -0.315 N  
HETATM   13  H   UNL     1     -10.303  14.205  65.933  1.00  0.00     0.000 HD 
BRANCH  12  14
HETATM   14  C   UNL     1     -11.578  14.447  67.621  1.00  0.00    -0.370 A  
HETATM   15  C   UNL     1     -11.825  15.222  70.286  1.00  0.00    -0.353 A  
HETATM   16  C   UNL     1     -11.848  15.606  71.665  1.00  0.00    -0.429 C  
HETATM   17  N   UNL     1     -11.859  15.914  72.782  1.00  0.00    -0.478 NA 
HETATM   18  C   UNL     1     -11.894  13.491  68.585  1.00  0.00    -0.404 A  
HETATM   19  C   UNL     1     -11.593  16.186  69.302  1.00  0.00    -0.270 A  
HETATM   20  C   UNL     1     -11.472  15.797  67.971  1.00  0.00    -0.264 A  
HETATM   21  C   UNL     1     -11.992  13.879  69.924  1.00  0.00    -0.405 A  
ENDBRANCH  12  14
ENDBRANCH  10  12
ENDBRANCH   8  10
ENDBRANCH   5   8
BRANCH   7  22
HETATM   22  C   UNL     1      -8.438  11.110  67.962  1.00  0.00    -0.135 A  
HETATM   23  N   UNL     1      -7.269  10.925  68.546  1.00  0.00    -0.085 NA 
HETATM   24  N   UNL     1      -8.799  12.435  68.005  1.00  0.00    -0.181 NA 
HETATM   25  C   UNL     1      -6.871  12.160  68.979  1.00  0.00    -0.098 A  
HETATM   26  H   UNL     1      -6.766  10.043  68.653  1.00  0.00     0.000 HD 
HETATM   27  C   UNL     1      -7.817  13.129  68.664  1.00  0.00    -0.056 A  
HETATM   28  C   UNL     1      -5.701  12.530  69.658  1.00  0.00    -0.102 A  
HETATM   29  C   UNL     1      -7.671  14.475  69.001  1.00  0.00    -0.113 A  
HETATM   30  C   UNL     1      -6.495  14.828  69.675  1.00  0.00    -0.150 A  
HETATM   31  C   UNL     1      -5.524  13.875  69.998  1.00  0.00    -0.106 A  
ENDBRANCH   7  22
TORSDOF 5
ENDMDL
MODEL       67
REMARK 921   NORMALIZED FREE ENERGY PREDICTED BY IDOCK:   -6.02 KCAL/MOL
REMARK 922        TOTAL FREE ENERGY PREDICTED BY IDOCK:   -8.56 KCAL/MOL
REMARK 923 INTER-LIGAND FREE ENERGY PREDICTED BY IDOCK:   -8.14 KCAL/MOL
REMARK 924 INTRA-LIGAND FREE ENERGY PREDICTED BY IDOCK:   -0.41 KCAL/MOL
REMARK 927      BINDING AFFINITY PREDICTED BY RF-SCORE:    0.00 PKD
ROOT
HETATM    1  C   UNL     1     -10.564  16.932  66.621  1.00  0.00    -0.189 C  
HETATM    2  N   UNL     1     -10.013  15.596  66.350  1.00  0.00    -0.265 NA 
HETATM    3  C   UNL     1      -9.228  15.113  67.499  1.00  0.00    -0.186 C  
HETATM    4  C   UNL     1     -10.050  14.703  68.716  1.00  0.00    -0.235 C  
HETATM    5  C   UNL     1     -11.188  13.741  68.347  1.00  0.00    -0.272 C  
HETATM    6  C   UNL     1     -12.003  14.266  67.156  1.00  0.00    -0.449 C  
HETATM    7  C   UNL     1     -11.094  14.646  65.976  1.00  0.00    -0.332 C  
ENDROOT
BRANCH   5   8
HETATM    8  N   UNL     1     -12.024  13.435  69.510  1.00  0.00    -0.323 N  
HETATM    9  H   UNL     1     -12.685  14.131  69.855  1.00  0.00     0.000 HD 
BRANCH   8  10
HETATM   10  C   UNL     1     -11.925  12.220  70.141  1.00  0.00    -0.298 C  
HETATM   11  O   UNL     1     -12.729  11.830  70.981  1.00  0.00    -0.348 OA 
BRANCH  10  12
HETATM   12  N   UNL     1     -10.769  11.546  69.791  1.00  0.00    -0.433 N  
HETATM   13  H   UNL     1      -9.903  12.045  69.584  1.00  0.00     0.000 HD 
BRANCH  12  14
HETATM   14  C   UNL     1     -10.838  10.138  69.732  1.00  0.00    -0.279 A  
HETATM   15  C   UNL     1     -10.520   7.372  69.611  1.00  0.00    -0.237 A  
HETATM   16  C   UNL     1     -10.253   5.967  69.551  1.00  0.00    -0.225 C  
HETATM   17  N   UNL     1     -10.029   4.831  69.500  1.00  0.00    -0.222 NA 
HETATM   18  C   UNL     1     -10.815   9.505  68.490  1.00  0.00    -0.175 A  
HETATM   19  C   UNL     1     -10.630   8.004  70.853  1.00  0.00    -0.233 A  
HETATM   20  C   UNL     1     -10.791   9.385  70.911  1.00  0.00    -0.392 A  
HETATM   21  C   UNL     1     -10.630   8.121  68.433  1.00  0.00    -0.148 A  
ENDBRANCH  12  14
ENDBRANCH  10  12
ENDBRANCH   8  10
ENDBRANCH   5   8
BRANCH   7  22
HETATM   22  C   UNL     1     -10.553  13.400  65.315  1.00  0.00    -0.325 A  
HETATM   23  N   UNL     1     -10.236  13.258  64.042  1.00  0.00    -0.758 NA 
HETATM   24  N   UNL     1     -10.322  12.234  66.007  1.00  0.00    -0.240 NA 
HETATM   25  C   UNL     1      -9.796  11.968  63.911  1.00  0.00    -0.240 A  
HETATM   26  H   UNL     1     -10.305  13.962  63.308  1.00  0.00     0.000 HD 
HETATM   27  C   UNL     1      -9.849  11.296  65.127  1.00  0.00    -0.252 A  
HETATM   28  C   UNL     1      -9.334  11.299  62.770  1.00  0.00    -0.362 A  
HETATM   29  C   UNL     1      -9.471   9.961  65.277  1.00  0.00    -0.331 A  
HETATM   30  C   UNL     1      -9.007   9.309  64.127  1.00  0.00    -0.125 A  
HETATM   31  C   UNL     1      -8.937   9.963  62.894  1.00  0.00    -0.271 A  
ENDBRANCH   7  22
TORSDOF 5
ENDMDL
MODEL       68
REMARK 921   NORMALIZED FREE ENERGY PREDICTED BY IDOCK:   -6.01 KCAL/MOL
REMARK 922        TOTAL FREE ENERGY PREDICTED BY IDOCK:   -8.55 KCAL/MOL
REMARK 923 INTER-LIGAND FREE ENERGY PREDICTED BY IDOCK:   -7.83 KCAL/MOL
REMARK 924 INTRA-LIGAND FREE ENERGY PREDICTED BY IDOCK:   -0.71 KCAL/MOL
REMARK 927      BINDING AFFINITY PREDICTED BY RF-SCORE:    0.00 PKD
ROOT
HETATM    1  C   UNL     1      -8.583   7.883  74.041  1.00  0.00    -0.264 C  
HETATM    2  N   UNL     1      -9.116   7.041  72.959  1.00  0.00    -0.130 NA 
HETATM    3  C   UNL     1     -10.526   7.372  72.688  1.00  0.00    -0.255 C  
HETATM    4  C   UNL     1     -10.752   8.704  71.981  1.00  0.00    -0.427 C  
HETATM    5  C   UNL     1      -9.871   8.850  70.732  1.00  0.00    -0.223 C  
HETATM    6  C   UNL     1      -8.405   8.513  71.035  1.00  0.00    -0.173 C  
HETATM    7  C   UNL     1      -8.274   7.154  71.740  1.00  0.00    -0.105 C  
ENDROOT
BRANCH   5   8
HETATM    8  N   UNL     1     -10.032  10.172  70.121  1.00  0.00    -0.413 N  
HETATM    9  H   UNL     1      -9.587  10.984  70.549  1.00  0.00     0.000 HD 
BRANCH   8  10
HETATM   10  C   UNL     1     -10.775  10.328  68.978  1.00  0.00    -0.227 C  
HETATM   11  O   UNL     1     -10.306  10.224  67.849  1.00  0.00    -0.173 OA 
BRANCH  10  12
HETATM   12  N   UNL     1     -12.075  10.712  69.253  1.00  0.00    -0.536 N  
HETATM   13  H   UNL     1     -12.872  10.238  68.826  1.00  0.00     0.000 HD 
BRANCH  12  14
HETATM   14  C   UNL     1     -12.253  11.787  70.150  1.00  0.00    -0.263 A  
HETATM   15  C   UNL     1     -13.006  13.964  71.717  1.00  0.00    -0.442 A  
HETATM   16  C   UNL     1     -13.484  15.084  72.471  1.00  0.00    -0.444 C  
HETATM   17  N   UNL     1     -13.877  15.992  73.074  1.00  0.00    -0.503 NA 
HETATM   18  C   UNL     1     -11.894  13.074  69.752  1.00  0.00    -0.381 A  
HETATM   19  C   UNL     1     -13.287  12.666  72.152  1.00  0.00    -0.570 A  
HETATM   20  C   UNL     1     -12.908  11.580  71.368  1.00  0.00    -0.489 A  
HETATM   21  C   UNL     1     -12.295  14.165  70.527  1.00  0.00    -0.434 A  
ENDBRANCH  12  14
ENDBRANCH  10  12
ENDBRANCH   8  10
ENDBRANCH   5   8
BRANCH   7  22
HETATM   22  C   UNL     1      -8.539   6.034  70.760  1.00  0.00    -0.135 A  
HETATM   23  N   UNL     1      -8.778   4.770  71.055  1.00  0.00    -0.114 NA 
HETATM   24  N   UNL     1      -8.560   6.229  69.400  1.00  0.00    -0.124 NA 
HETATM   25  C   UNL     1      -8.952   4.136  69.855  1.00  0.00    -0.099 A  
HETATM   26  H   UNL     1      -8.823   4.352  71.985  1.00  0.00     0.000 HD 
HETATM   27  C   UNL     1      -8.811   5.025  68.795  1.00  0.00    -0.093 A  
HETATM   28  C   UNL     1      -9.236   2.788  69.595  1.00  0.00    -0.206 A  
HETATM   29  C   UNL     1      -8.926   4.641  67.458  1.00  0.00    -0.122 A  
HETATM   30  C   UNL     1      -9.213   3.291  67.217  1.00  0.00    -0.221 A  
HETATM   31  C   UNL     1      -9.368   2.379  68.264  1.00  0.00    -0.265 A  
ENDBRANCH   7  22
TORSDOF 5
ENDMDL
MODEL       69
REMARK 921   NORMALIZED FREE ENERGY PREDICTED BY IDOCK:   -6.01 KCAL/MOL
REMARK 922        TOTAL FREE ENERGY PREDICTED BY IDOCK:   -8.53 KCAL/MOL
REMARK 923 INTER-LIGAND FREE ENERGY PREDICTED BY IDOCK:   -7.43 KCAL/MOL
REMARK 924 INTRA-LIGAND FREE ENERGY PREDICTED BY IDOCK:   -1.11 KCAL/MOL
REMARK 927      BINDING AFFINITY PREDICTED BY RF-SCORE:    0.00 PKD
ROOT
HETATM    1  C   UNL     1      -8.223   9.002  63.736  1.00  0.00    -0.173 C  
HETATM    2  N   UNL     1      -8.428   8.748  65.170  1.00  0.00    -0.166 NA 
HETATM    3  C   UNL     1      -7.223   9.100  65.939  1.00  0.00    -0.093 C  
HETATM    4  C   UNL     1      -6.960  10.595  66.079  1.00  0.00    -0.128 C  
HETATM    5  C   UNL     1      -8.201  11.356  66.565  1.00  0.00    -0.152 C  
HETATM    6  C   UNL     1      -9.445  10.986  65.745  1.00  0.00    -0.242 C  
HETATM    7  C   UNL     1      -9.633   9.463  65.665  1.00  0.00    -0.274 C  
ENDROOT
BRANCH   5   8
HETATM    8  N   UNL     1      -7.959  12.800  66.601  1.00  0.00    -0.382 N  
HETATM    9  H   UNL     1      -7.446  13.246  65.841  1.00  0.00     0.000 HD 
BRANCH   8  10
HETATM   10  C   UNL     1      -8.415  13.560  67.650  1.00  0.00    -0.184 C  
HETATM   11  O   UNL     1      -7.877  13.579  68.752  1.00  0.00    -0.118 OA 
BRANCH  10  12
HETATM   12  N   UNL     1      -9.595  14.212  67.343  1.00  0.00    -0.224 N  
HETATM   13  H   UNL     1      -9.710  14.721  66.466  1.00  0.00     0.000 HD 
BRANCH  12  14
HETATM   14  C   UNL     1     -10.635  14.144  68.295  1.00  0.00    -0.251 A  
HETATM   15  C   UNL     1     -12.357  13.922  70.474  1.00  0.00    -0.439 A  
HETATM   16  C   UNL     1     -13.157  13.792  71.654  1.00  0.00    -0.375 C  
HETATM   17  N   UNL     1     -13.798  13.683  72.614  1.00  0.00    -0.754 NA 
HETATM   18  C   UNL     1     -11.206  12.907  68.593  1.00  0.00    -0.321 A  
HETATM   19  C   UNL     1     -11.847  15.173  70.117  1.00  0.00    -0.351 A  
HETATM   20  C   UNL     1     -10.989  15.282  69.027  1.00  0.00    -0.254 A  
HETATM   21  C   UNL     1     -12.049  12.795  69.702  1.00  0.00    -0.286 A  
ENDBRANCH  12  14
ENDBRANCH  10  12
ENDBRANCH   8  10
ENDBRANCH   5   8
BRANCH   7  22
HETATM   22  C   UNL     1     -10.106   8.928  66.997  1.00  0.00    -0.261 A  
HETATM   23  N   UNL     1     -10.423   9.637  68.063  1.00  0.00    -0.216 NA 
HETATM   24  N   UNL     1     -10.262   7.584  67.242  1.00  0.00    -0.237 NA 
HETATM   25  C   UNL     1     -10.788   8.728  69.019  1.00  0.00    -0.027 A  
HETATM   26  H   UNL     1     -10.402  10.653  68.156  1.00  0.00     0.000 HD 
HETATM   27  C   UNL     1     -10.686   7.428  68.536  1.00  0.00    -0.098 A  
HETATM   28  C   UNL     1     -11.219   8.946  70.334  1.00  0.00    -0.259 A  
HETATM   29  C   UNL     1     -10.984   6.304  69.307  1.00  0.00    -0.435 A  
HETATM   30  C   UNL     1     -11.417   6.540  70.618  1.00  0.00    -0.433 A  
HETATM   31  C   UNL     1     -11.535   7.837  71.125  1.00  0.00    -0.295 A  
ENDBRANCH   7  22
TORSDOF 5
ENDMDL
MODEL       70
REMARK 921   NORMALIZED FREE ENERGY PREDICTED BY IDOCK:   -6.00 KCAL/MOL
REMARK 922        TOTAL FREE ENERGY PREDICTED BY IDOCK:   -8.53 KCAL/MOL
REMARK 923 INTER-LIGAND FREE ENERGY PREDICTED BY IDOCK:   -7.94 KCAL/MOL
REMARK 924 INTRA-LIGAND FREE ENERGY PREDICTED BY IDOCK:   -0.59 KCAL/MOL
REMARK 927      BINDING AFFINITY PREDICTED BY RF-SCORE:    0.00 PKD
ROOT
HETATM    1  C   UNL     1     -10.392   7.018  73.808  1.00  0.00    -0.369 C  
HETATM    2  N   UNL     1     -10.579   6.593  72.412  1.00  0.00    -0.208 NA 
HETATM    3  C   UNL     1     -11.890   7.031  71.904  1.00  0.00    -0.305 C  
HETATM    4  C   UNL     1     -12.010   8.527  71.633  1.00  0.00    -0.372 C  
HETATM    5  C   UNL     1     -10.851   9.053  70.775  1.00  0.00    -0.251 C  
HETATM    6  C   UNL     1      -9.493   8.597  71.325  1.00  0.00    -0.289 C  
HETATM    7  C   UNL     1      -9.462   7.078  71.560  1.00  0.00    -0.154 C  
ENDROOT
BRANCH   5   8
HETATM    8  N   UNL     1     -10.932  10.506  70.606  1.00  0.00    -0.398 N  
HETATM    9  H   UNL     1     -10.743  11.118  71.399  1.00  0.00     0.000 HD 
BRANCH   8  10
HETATM   10  C   UNL     1     -11.259  11.051  69.389  1.00  0.00    -0.268 C  
HETATM   11  O   UNL     1     -12.290  10.776  68.784  1.00  0.00    -0.435 OA 
BRANCH  10  12
HETATM   12  N   UNL     1     -10.251  11.857  68.893  1.00  0.00    -0.391 N  
HETATM   13  H   UNL     1      -9.289  11.771  69.224  1.00  0.00     0.000 HD 
BRANCH  12  14
HETATM   14  C   UNL     1     -10.608  12.804  67.910  1.00  0.00    -0.221 A  
HETATM   15  C   UNL     1     -10.927  14.883  66.082  1.00  0.00    -0.334 A  
HETATM   16  C   UNL     1     -10.999  15.988  65.175  1.00  0.00    -0.348 C  
HETATM   17  N   UNL     1     -11.050  16.887  64.445  1.00  0.00    -1.060 NA 
HETATM   18  C   UNL     1     -11.315  13.945  68.287  1.00  0.00    -0.325 A  
HETATM   19  C   UNL     1     -10.295  13.701  65.686  1.00  0.00    -0.309 A  
HETATM   20  C   UNL     1     -10.139  12.663  66.600  1.00  0.00    -0.248 A  
HETATM   21  C   UNL     1     -11.451  14.995  67.376  1.00  0.00    -0.326 A  
ENDBRANCH  12  14
ENDBRANCH  10  12
ENDBRANCH   8  10
ENDBRANCH   5   8
BRANCH   7  22
HETATM   22  C   UNL     1      -9.398   6.350  70.237  1.00  0.00    -0.158 A  
HETATM   23  N   UNL     1      -9.797   5.115  69.998  1.00  0.00    -0.203 NA 
HETATM   24  N   UNL     1      -8.896   6.928  69.096  1.00  0.00    -0.135 NA 
HETATM   25  C   UNL     1      -9.541   4.892  68.672  1.00  0.00    -0.154 A  
HETATM   26  H   UNL     1     -10.211   4.461  70.663  1.00  0.00     0.000 HD 
HETATM   27  C   UNL     1      -8.964   6.010  68.081  1.00  0.00    -0.112 A  
HETATM   28  C   UNL     1      -9.777   3.746  67.901  1.00  0.00    -0.125 A  
HETATM   29  C   UNL     1      -8.587   6.053  66.737  1.00  0.00    -0.110 A  
HETATM   30  C   UNL     1      -8.834   4.900  65.981  1.00  0.00    -0.126 A  
HETATM   31  C   UNL     1      -9.420   3.765  66.549  1.00  0.00    -0.204 A  
ENDBRANCH   7  22
TORSDOF 5
ENDMDL
MODEL       71
REMARK 921   NORMALIZED FREE ENERGY PREDICTED BY IDOCK:   -5.97 KCAL/MOL
REMARK 922        TOTAL FREE ENERGY PREDICTED BY IDOCK:   -8.48 KCAL/MOL
REMARK 923 INTER-LIGAND FREE ENERGY PREDICTED BY IDOCK:   -7.51 KCAL/MOL
REMARK 924 INTRA-LIGAND FREE ENERGY PREDICTED BY IDOCK:   -0.97 KCAL/MOL
REMARK 927      BINDING AFFINITY PREDICTED BY RF-SCORE:    0.00 PKD
ROOT
HETATM    1  C   UNL     1      -6.981   8.158  67.167  1.00  0.00    -0.075 C  
HETATM    2  N   UNL     1      -7.994   9.221  67.077  1.00  0.00    -0.102 NA 
HETATM    3  C   UNL     1      -9.343   8.646  66.944  1.00  0.00    -0.170 C  
HETATM    4  C   UNL     1      -9.898   8.003  68.211  1.00  0.00    -0.190 C  
HETATM    5  C   UNL     1      -9.781   8.931  69.428  1.00  0.00    -0.169 C  
HETATM    6  C   UNL     1      -8.367   9.512  69.558  1.00  0.00    -0.145 C  
HETATM    7  C   UNL     1      -7.894  10.144  68.239  1.00  0.00    -0.093 C  
ENDROOT
BRANCH   5   8
HETATM    8  N   UNL     1     -10.231   8.262  70.651  1.00  0.00    -0.191 N  
HETATM    9  H   UNL     1      -9.559   7.753  71.224  1.00  0.00     0.000 HD 
BRANCH   8  10
HETATM   10  C   UNL     1     -11.548   8.314  71.033  1.00  0.00    -0.275 C  
HETATM   11  O   UNL     1     -12.027   7.592  71.900  1.00  0.00    -0.283 OA 
BRANCH  10  12
HETATM   12  N   UNL     1     -12.278   9.197  70.258  1.00  0.00    -0.381 N  
HETATM   13  H   UNL     1     -12.660   8.921  69.352  1.00  0.00     0.000 HD 
BRANCH  12  14
HETATM   14  C   UNL     1     -12.474  10.496  70.773  1.00  0.00    -0.378 A  
HETATM   15  C   UNL     1     -13.234  13.067  71.534  1.00  0.00    -0.360 A  
HETATM   16  C   UNL     1     -13.709  14.376  71.865  1.00  0.00    -0.431 C  
HETATM   17  N   UNL     1     -14.099  15.436  72.125  1.00  0.00    -0.533 NA 
HETATM   18  C   UNL     1     -11.988  11.592  70.062  1.00  0.00    -0.429 A  
HETATM   19  C   UNL     1     -13.647  11.968  72.293  1.00  0.00    -0.164 A  
HETATM   20  C   UNL     1     -13.264  10.685  71.912  1.00  0.00    -0.528 A  
HETATM   21  C   UNL     1     -12.392  12.878  70.431  1.00  0.00    -0.333 A  
ENDBRANCH  12  14
ENDBRANCH  10  12
ENDBRANCH   8  10
ENDBRANCH   5   8
BRANCH   7  22
HETATM   22  C   UNL     1      -8.624  11.445  67.996  1.00  0.00    -0.147 A  
HETATM   23  N   UNL     1      -8.541  12.542  68.724  1.00  0.00    -0.373 NA 
HETATM   24  N   UNL     1      -9.485  11.625  66.940  1.00  0.00    -0.182 NA 
HETATM   25  C   UNL     1      -9.373  13.448  68.126  1.00  0.00    -0.217 A  
HETATM   26  H   UNL     1      -7.974  12.685  69.560  1.00  0.00     0.000 HD 
HETATM   27  C   UNL     1      -9.990  12.898  67.008  1.00  0.00    -0.244 A  
HETATM   28  C   UNL     1      -9.653  14.773  68.489  1.00  0.00    -0.218 A  
HETATM   29  C   UNL     1     -10.900  13.600  66.216  1.00  0.00    -0.282 A  
HETATM   30  C   UNL     1     -11.166  14.924  66.591  1.00  0.00    -0.340 A  
HETATM   31  C   UNL     1     -10.554  15.503  67.706  1.00  0.00    -0.281 A  
ENDBRANCH   7  22
TORSDOF 5
ENDMDL
MODEL       72
REMARK 921   NORMALIZED FREE ENERGY PREDICTED BY IDOCK:   -5.95 KCAL/MOL
REMARK 922        TOTAL FREE ENERGY PREDICTED BY IDOCK:   -8.46 KCAL/MOL
REMARK 923 INTER-LIGAND FREE ENERGY PREDICTED BY IDOCK:   -8.02 KCAL/MOL
REMARK 924 INTRA-LIGAND FREE ENERGY PREDICTED BY IDOCK:   -0.44 KCAL/MOL
REMARK 927      BINDING AFFINITY PREDICTED BY RF-SCORE:    0.00 PKD
ROOT
HETATM    1  C   UNL     1     -12.820  13.629  65.260  1.00  0.00    -0.369 C  
HETATM    2  N   UNL     1     -12.033  12.587  65.937  1.00  0.00    -0.544 NA 
HETATM    3  C   UNL     1     -10.671  12.519  65.381  1.00  0.00    -0.280 C  
HETATM    4  C   UNL     1      -9.760  13.681  65.762  1.00  0.00    -0.162 C  
HETATM    5  C   UNL     1      -9.756  13.939  67.276  1.00  0.00    -0.245 C  
HETATM    6  C   UNL     1     -11.183  14.019  67.836  1.00  0.00    -0.295 C  
HETATM    7  C   UNL     1     -12.023  12.806  67.407  1.00  0.00    -0.272 C  
ENDROOT
BRANCH   5   8
HETATM    8  N   UNL     1      -8.952  15.117  67.612  1.00  0.00    -0.177 N  
HETATM    9  H   UNL     1      -9.333  15.827  68.236  1.00  0.00     0.000 HD 
BRANCH   8  10
HETATM   10  C   UNL     1      -7.690  15.273  67.094  1.00  0.00    -0.203 C  
HETATM   11  O   UNL     1      -6.814  14.420  67.186  1.00  0.00    -0.190 OA 
BRANCH  10  12
HETATM   12  N   UNL     1      -7.503  16.533  66.554  1.00  0.00    -0.261 N  
HETATM   13  H   UNL     1      -7.678  16.720  65.566  1.00  0.00     0.000 HD 
BRANCH  12  14
HETATM   14  C   UNL     1      -7.060  17.548  67.428  1.00  0.00    -0.168 A  
HETATM   15  C   UNL     1      -6.357  19.293  69.483  1.00  0.00    -0.339 A  
HETATM   16  C   UNL     1      -6.036  20.121  70.606  1.00  0.00    -0.335 C  
HETATM   17  N   UNL     1      -5.781  20.786  71.521  1.00  0.00    -0.597 NA 
HETATM   18  C   UNL     1      -7.940  18.566  67.793  1.00  0.00    -0.263 A  
HETATM   19  C   UNL     1      -5.445  18.325  69.053  1.00  0.00    -0.199 A  
HETATM   20  C   UNL     1      -5.798  17.456  68.025  1.00  0.00    -0.136 A  
HETATM   21  C   UNL     1      -7.595  19.423  68.841  1.00  0.00    -0.398 A  
ENDBRANCH  12  14
ENDBRANCH  10  12
ENDBRANCH   8  10
ENDBRANCH   5   8
BRANCH   7  22
HETATM   22  C   UNL     1     -11.580  11.574  68.163  1.00  0.00    -0.308 A  
HETATM   23  N   UNL     1     -11.214  10.419  67.640  1.00  0.00    -0.432 NA 
HETATM   24  N   UNL     1     -11.508  11.532  69.535  1.00  0.00    -0.290 NA 
HETATM   25  C   UNL     1     -10.903   9.613  68.702  1.00  0.00    -0.167 A  
HETATM   26  H   UNL     1     -11.171  10.176  66.650  1.00  0.00     0.000 HD 
HETATM   27  C   UNL     1     -11.089  10.282  69.907  1.00  0.00    -0.304 A  
HETATM   28  C   UNL     1     -10.453   8.286  68.709  1.00  0.00    -0.200 A  
HETATM   29  C   UNL     1     -10.859   9.689  71.150  1.00  0.00    -0.404 A  
HETATM   30  C   UNL     1     -10.406   8.364  71.138  1.00  0.00    -0.264 A  
HETATM   31  C   UNL     1     -10.204   7.672  69.941  1.00  0.00    -0.215 A  
ENDBRANCH   7  22
TORSDOF 5
ENDMDL
MODEL       73
REMARK 921   NORMALIZED FREE ENERGY PREDICTED BY IDOCK:   -5.93 KCAL/MOL
REMARK 922        TOTAL FREE ENERGY PREDICTED BY IDOCK:   -8.43 KCAL/MOL
REMARK 923 INTER-LIGAND FREE ENERGY PREDICTED BY IDOCK:   -7.43 KCAL/MOL
REMARK 924 INTRA-LIGAND FREE ENERGY PREDICTED BY IDOCK:   -1.01 KCAL/MOL
REMARK 927      BINDING AFFINITY PREDICTED BY RF-SCORE:    0.00 PKD
ROOT
HETATM    1  C   UNL     1     -12.780  14.014  65.412  1.00  0.00    -0.471 C  
HETATM    2  N   UNL     1     -11.606  13.250  64.964  1.00  0.00    -0.307 NA 
HETATM    3  C   UNL     1     -10.404  14.101  64.949  1.00  0.00    -0.408 C  
HETATM    4  C   UNL     1      -9.848  14.457  66.324  1.00  0.00    -0.321 C  
HETATM    5  C   UNL     1      -9.670  13.218  67.213  1.00  0.00    -0.231 C  
HETATM    6  C   UNL     1     -10.935  12.349  67.226  1.00  0.00    -0.302 C  
HETATM    7  C   UNL     1     -11.417  12.036  65.800  1.00  0.00    -0.320 C  
ENDROOT
BRANCH   5   8
HETATM    8  N   UNL     1      -9.227  13.589  68.558  1.00  0.00    -0.337 N  
HETATM    9  H   UNL     1      -9.813  13.367  69.362  1.00  0.00     0.000 HD 
BRANCH   8  10
HETATM   10  C   UNL     1      -8.029  14.232  68.748  1.00  0.00    -0.119 C  
HETATM   11  O   UNL     1      -6.953  13.773  68.381  1.00  0.00    -0.085 OA 
BRANCH  10  12
HETATM   12  N   UNL     1      -8.176  15.396  69.481  1.00  0.00    -0.253 N  
HETATM   13  H   UNL     1      -7.949  15.432  70.475  1.00  0.00     0.000 HD 
BRANCH  12  14
HETATM   14  C   UNL     1      -8.653  16.533  68.794  1.00  0.00    -0.262 A  
HETATM   15  C   UNL     1      -9.728  18.484  67.121  1.00  0.00    -0.315 A  
HETATM   16  C   UNL     1     -10.310  19.410  66.196  1.00  0.00    -0.504 C  
HETATM   17  N   UNL     1     -10.781  20.152  65.440  1.00  0.00    -0.198 NA 
HETATM   18  C   UNL     1      -7.833  17.156  67.853  1.00  0.00    -0.196 A  
HETATM   19  C   UNL     1     -10.520  17.917  68.123  1.00  0.00    -0.380 A  
HETATM   20  C   UNL     1      -9.980  16.944  68.959  1.00  0.00    -0.265 A  
HETATM   21  C   UNL     1      -8.383  18.115  66.999  1.00  0.00    -0.250 A  
ENDBRANCH  12  14
ENDBRANCH  10  12
ENDBRANCH   8  10
ENDBRANCH   5   8
BRANCH   7  22
HETATM   22  C   UNL     1     -10.493  11.034  65.148  1.00  0.00    -0.262 A  
HETATM   23  N   UNL     1     -10.107  11.024  63.886  1.00  0.00    -0.326 NA 
HETATM   24  N   UNL     1      -9.932   9.985  65.837  1.00  0.00    -0.265 NA 
HETATM   25  C   UNL     1      -9.282   9.939  63.759  1.00  0.00    -0.243 A  
HETATM   26  H   UNL     1     -10.369  11.687  63.156  1.00  0.00     0.000 HD 
HETATM   27  C   UNL     1      -9.162   9.259  64.966  1.00  0.00    -0.178 A  
HETATM   28  C   UNL     1      -8.598   9.470  62.630  1.00  0.00    -0.212 A  
HETATM   29  C   UNL     1      -8.391   8.105  65.117  1.00  0.00    -0.152 A  
HETATM   30  C   UNL     1      -7.710   7.653  63.979  1.00  0.00    -0.126 A  
HETATM   31  C   UNL     1      -7.808   8.322  62.756  1.00  0.00    -0.139 A  
ENDBRANCH   7  22
TORSDOF 5
ENDMDL
MODEL       74
REMARK 921   NORMALIZED FREE ENERGY PREDICTED BY IDOCK:   -5.92 KCAL/MOL
REMARK 922        TOTAL FREE ENERGY PREDICTED BY IDOCK:   -8.43 KCAL/MOL
REMARK 923 INTER-LIGAND FREE ENERGY PREDICTED BY IDOCK:   -7.36 KCAL/MOL
REMARK 924 INTRA-LIGAND FREE ENERGY PREDICTED BY IDOCK:   -1.07 KCAL/MOL
REMARK 927      BINDING AFFINITY PREDICTED BY RF-SCORE:    0.00 PKD
ROOT
HETATM    1  C   UNL     1      -9.566   9.119  65.596  1.00  0.00    -0.217 C  
HETATM    2  N   UNL     1      -9.942   9.476  66.973  1.00  0.00    -0.199 NA 
HETATM    3  C   UNL     1      -8.823   9.233  67.898  1.00  0.00    -0.124 C  
HETATM    4  C   UNL     1      -7.668  10.222  67.787  1.00  0.00    -0.090 C  
HETATM    5  C   UNL     1      -8.149  11.679  67.830  1.00  0.00    -0.139 C  
HETATM    6  C   UNL     1      -9.308  11.917  66.851  1.00  0.00    -0.198 C  
HETATM    7  C   UNL     1     -10.426  10.880  67.040  1.00  0.00    -0.244 C  
ENDROOT
BRANCH   5   8
HETATM    8  N   UNL     1      -7.039  12.612  67.626  1.00  0.00    -0.125 N  
HETATM    9  H   UNL     1      -6.580  12.661  66.716  1.00  0.00     0.000 HD 
BRANCH   8  10
HETATM   10  C   UNL     1      -6.608  13.421  68.648  1.00  0.00    -0.091 C  
HETATM   11  O   UNL     1      -5.427  13.554  68.950  1.00  0.00    -0.072 OA 
BRANCH  10  12
HETATM   12  N   UNL     1      -7.664  13.978  69.347  1.00  0.00    -0.338 N  
HETATM   13  H   UNL     1      -8.047  13.530  70.180  1.00  0.00     0.000 HD 
BRANCH  12  14
HETATM   14  C   UNL     1      -8.187  15.195  68.861  1.00  0.00    -0.181 A  
HETATM   15  C   UNL     1      -9.372  17.659  68.323  1.00  0.00    -0.290 A  
HETATM   16  C   UNL     1     -10.007  18.930  68.148  1.00  0.00    -0.376 C  
HETATM   17  N   UNL     1     -10.526  19.958  68.015  1.00  0.00    -0.399 NA 
HETATM   18  C   UNL     1      -9.504  15.237  68.405  1.00  0.00    -0.206 A  
HETATM   19  C   UNL     1      -8.027  17.603  68.698  1.00  0.00    -0.275 A  
HETATM   20  C   UNL     1      -7.437  16.371  68.964  1.00  0.00    -0.227 A  
HETATM   21  C   UNL     1     -10.102  16.476  68.161  1.00  0.00    -0.255 A  
ENDBRANCH  12  14
ENDBRANCH  10  12
ENDBRANCH   8  10
ENDBRANCH   5   8
BRANCH   7  22
HETATM   22  C   UNL     1     -11.183  11.160  68.318  1.00  0.00    -0.279 A  
HETATM   23  N   UNL     1     -11.747  10.268  69.110  1.00  0.00    -0.491 NA 
HETATM   24  N   UNL     1     -11.365  12.431  68.808  1.00  0.00    -0.270 NA 
HETATM   25  C   UNL     1     -12.311  10.984  70.131  1.00  0.00    -0.311 A  
HETATM   26  H   UNL     1     -11.761   9.256  68.987  1.00  0.00     0.000 HD 
HETATM   27  C   UNL     1     -12.097  12.347  69.963  1.00  0.00    -0.263 A  
HETATM   28  C   UNL     1     -13.029  10.528  71.246  1.00  0.00    -0.532 A  
HETATM   29  C   UNL     1     -12.577  13.310  70.854  1.00  0.00    -0.386 A  
HETATM   30  C   UNL     1     -13.288  12.836  71.964  1.00  0.00    -0.565 A  
HETATM   31  C   UNL     1     -13.511  11.471  72.160  1.00  0.00    -0.219 A  
ENDBRANCH   7  22
TORSDOF 5
ENDMDL
MODEL       75
REMARK 921   NORMALIZED FREE ENERGY PREDICTED BY IDOCK:   -5.89 KCAL/MOL
REMARK 922        TOTAL FREE ENERGY PREDICTED BY IDOCK:   -8.38 KCAL/MOL
REMARK 923 INTER-LIGAND FREE ENERGY PREDICTED BY IDOCK:   -8.42 KCAL/MOL
REMARK 924 INTRA-LIGAND FREE ENERGY PREDICTED BY IDOCK:    0.04 KCAL/MOL
REMARK 927      BINDING AFFINITY PREDICTED BY RF-SCORE:    0.00 PKD
ROOT
HETATM    1  C   UNL     1     -10.873  13.014  64.281  1.00  0.00    -0.405 C  
HETATM    2  N   UNL     1     -11.096  14.251  65.044  1.00  0.00    -0.353 NA 
HETATM    3  C   UNL     1     -12.368  14.185  65.784  1.00  0.00    -0.461 C  
HETATM    4  C   UNL     1     -12.366  13.252  66.990  1.00  0.00    -0.190 C  
HETATM    5  C   UNL     1     -11.169  13.509  67.916  1.00  0.00    -0.274 C  
HETATM    6  C   UNL     1      -9.851  13.563  67.131  1.00  0.00    -0.245 C  
HETATM    7  C   UNL     1      -9.945  14.532  65.942  1.00  0.00    -0.329 C  
ENDROOT
BRANCH   5   8
HETATM    8  N   UNL     1     -11.131  12.541  69.016  1.00  0.00    -0.319 N  
HETATM    9  H   UNL     1     -11.030  12.871  69.975  1.00  0.00     0.000 HD 
BRANCH   8  10
HETATM   10  C   UNL     1     -11.228  11.195  68.766  1.00  0.00    -0.253 C  
HETATM   11  O   UNL     1     -12.250  10.660  68.350  1.00  0.00    -0.372 OA 
BRANCH  10  12
HETATM   12  N   UNL     1     -10.081  10.515  69.132  1.00  0.00    -0.215 N  
HETATM   13  H   UNL     1      -9.300  10.993  69.583  1.00  0.00     0.000 HD 
BRANCH  12  14
HETATM   14  C   UNL     1     -10.037   9.132  68.857  1.00  0.00    -0.197 A  
HETATM   15  C   UNL     1      -9.645   6.381  68.648  1.00  0.00    -0.121 A  
HETATM   16  C   UNL     1      -9.377   4.974  68.622  1.00  0.00    -0.130 C  
HETATM   17  N   UNL     1      -9.153   3.837  68.606  1.00  0.00    -0.129 NA 
HETATM   18  C   UNL     1      -9.074   8.642  67.975  1.00  0.00    -0.144 A  
HETATM   19  C   UNL     1     -10.665   6.876  69.465  1.00  0.00    -0.276 A  
HETATM   20  C   UNL     1     -10.860   8.251  69.566  1.00  0.00    -0.124 A  
HETATM   21  C   UNL     1      -8.864   7.263  67.892  1.00  0.00    -0.128 A  
ENDBRANCH  12  14
ENDBRANCH  10  12
ENDBRANCH   8  10
ENDBRANCH   5   8
BRANCH   7  22
HETATM   22  C   UNL     1      -9.942  15.960  66.435  1.00  0.00    -0.287 A  
HETATM   23  N   UNL     1      -9.711  16.367  67.668  1.00  0.00    -0.236 NA 
HETATM   24  N   UNL     1     -10.190  17.030  65.608  1.00  0.00    -0.599 NA 
HETATM   25  C   UNL     1      -9.817  17.731  67.635  1.00  0.00    -0.299 A  
HETATM   26  H   UNL     1      -9.497  15.786  68.479  1.00  0.00     0.000 HD 
HETATM   27  C   UNL     1     -10.129  18.177  66.355  1.00  0.00    -0.389 A  
HETATM   28  C   UNL     1      -9.660  18.661  68.672  1.00  0.00    -0.407 A  
HETATM   29  C   UNL     1     -10.310  19.525  66.041  1.00  0.00    -0.604 A  
HETATM   30  C   UNL     1     -10.145  20.440  67.088  1.00  0.00    -0.502 A  
HETATM   31  C   UNL     1      -9.825  20.019  68.382  1.00  0.00    -0.436 A  
ENDBRANCH   7  22
TORSDOF 5
ENDMDL
MODEL       76
REMARK 921   NORMALIZED FREE ENERGY PREDICTED BY IDOCK:   -5.88 KCAL/MOL
REMARK 922        TOTAL FREE ENERGY PREDICTED BY IDOCK:   -8.38 KCAL/MOL
REMARK 923 INTER-LIGAND FREE ENERGY PREDICTED BY IDOCK:   -8.22 KCAL/MOL
REMARK 924 INTRA-LIGAND FREE ENERGY PREDICTED BY IDOCK:   -0.16 KCAL/MOL
REMARK 927      BINDING AFFINITY PREDICTED BY RF-SCORE:    0.00 PKD
ROOT
HETATM    1  C   UNL     1     -12.891  13.070  64.914  1.00  0.00    -0.297 C  
HETATM    2  N   UNL     1     -12.341  14.118  65.788  1.00  0.00    -0.458 NA 
HETATM    3  C   UNL     1     -12.027  13.574  67.120  1.00  0.00    -0.381 C  
HETATM    4  C   UNL     1     -10.806  12.663  67.174  1.00  0.00    -0.282 C  
HETATM    5  C   UNL     1      -9.580  13.301  66.505  1.00  0.00    -0.264 C  
HETATM    6  C   UNL     1      -9.922  13.851  65.114  1.00  0.00    -0.249 C  
HETATM    7  C   UNL     1     -11.159  14.762  65.157  1.00  0.00    -0.384 C  
ENDROOT
BRANCH   5   8
HETATM    8  N   UNL     1      -8.445  12.375  66.482  1.00  0.00    -0.400 N  
HETATM    9  H   UNL     1      -8.170  11.935  65.604  1.00  0.00     0.000 HD 
BRANCH   8  10
HETATM   10  C   UNL     1      -7.750  12.093  67.631  1.00  0.00    -0.148 C  
HETATM   11  O   UNL     1      -7.548  12.917  68.516  1.00  0.00    -0.126 OA 
BRANCH  10  12
HETATM   12  N   UNL     1      -7.226  10.812  67.619  1.00  0.00    -0.091 N  
HETATM   13  H   UNL     1      -6.254  10.632  67.871  1.00  0.00     0.000 HD 
BRANCH  12  14
HETATM   14  C   UNL     1      -8.095   9.765  67.244  1.00  0.00    -0.117 A  
HETATM   15  C   UNL     1      -9.491   7.422  66.675  1.00  0.00    -0.240 A  
HETATM   16  C   UNL     1     -10.131   6.166  66.427  1.00  0.00    -0.060 C  
HETATM   17  N   UNL     1     -10.641   5.144  66.228  1.00  0.00    -0.302 NA 
HETATM   18  C   UNL     1      -7.929   9.154  66.001  1.00  0.00    -0.103 A  
HETATM   19  C   UNL     1      -9.716   8.087  67.883  1.00  0.00    -0.189 A  
HETATM   20  C   UNL     1      -9.018   9.259  68.164  1.00  0.00    -0.128 A  
HETATM   21  C   UNL     1      -8.612   7.966  65.730  1.00  0.00    -0.167 A  
ENDBRANCH  12  14
ENDBRANCH  10  12
ENDBRANCH   8  10
ENDBRANCH   5   8
BRANCH   7  22
HETATM   22  C   UNL     1     -10.812  16.078  65.814  1.00  0.00    -0.230 A  
HETATM   23  N   UNL     1     -10.822  17.269  65.245  1.00  0.00    -0.546 NA 
HETATM   24  N   UNL     1     -10.434  16.172  67.132  1.00  0.00    -0.303 NA 
HETATM   25  C   UNL     1     -10.438  18.149  66.220  1.00  0.00    -0.361 A  
HETATM   26  H   UNL     1     -11.066  17.488  64.279  1.00  0.00     0.000 HD 
HETATM   27  C   UNL     1     -10.176  17.488  67.415  1.00  0.00    -0.337 A  
HETATM   28  C   UNL     1     -10.288  19.541  66.152  1.00  0.00    -0.614 A  
HETATM   29  C   UNL     1      -9.752  18.144  68.572  1.00  0.00    -0.372 A  
HETATM   30  C   UNL     1      -9.612  19.535  68.487  1.00  0.00    -0.476 A  
HETATM   31  C   UNL     1      -9.875  20.225  67.300  1.00  0.00    -0.593 A  
ENDBRANCH   7  22
TORSDOF 5
ENDMDL
MODEL       77
REMARK 921   NORMALIZED FREE ENERGY PREDICTED BY IDOCK:   -5.88 KCAL/MOL
REMARK 922        TOTAL FREE ENERGY PREDICTED BY IDOCK:   -8.37 KCAL/MOL
REMARK 923 INTER-LIGAND FREE ENERGY PREDICTED BY IDOCK:   -7.75 KCAL/MOL
REMARK 924 INTRA-LIGAND FREE ENERGY PREDICTED BY IDOCK:   -0.62 KCAL/MOL
REMARK 927      BINDING AFFINITY PREDICTED BY RF-SCORE:    0.00 PKD
ROOT
HETATM    1  C   UNL     1     -12.233  14.444  65.994  1.00  0.00    -0.336 C  
HETATM    2  N   UNL     1     -11.065  13.570  65.806  1.00  0.00    -0.286 NA 
HETATM    3  C   UNL     1      -9.979  13.946  66.727  1.00  0.00    -0.269 C  
HETATM    4  C   UNL     1     -10.217  13.581  68.188  1.00  0.00    -0.249 C  
HETATM    5  C   UNL     1     -10.637  12.115  68.356  1.00  0.00    -0.226 C  
HETATM    6  C   UNL     1     -11.777  11.744  67.398  1.00  0.00    -0.304 C  
HETATM    7  C   UNL     1     -11.447  12.141  65.950  1.00  0.00    -0.363 C  
ENDROOT
BRANCH   5   8
HETATM    8  N   UNL     1     -10.954  11.809  69.753  1.00  0.00    -0.462 N  
HETATM    9  H   UNL     1     -10.752  12.496  70.479  1.00  0.00     0.000 HD 
BRANCH   8  10
HETATM   10  C   UNL     1     -11.519  10.606  70.095  1.00  0.00    -0.329 C  
HETATM   11  O   UNL     1     -12.698  10.481  70.411  1.00  0.00    -0.331 OA 
BRANCH  10  12
HETATM   12  N   UNL     1     -10.586   9.586  70.135  1.00  0.00    -0.234 N  
HETATM   13  H   UNL     1      -9.702   9.654  69.629  1.00  0.00     0.000 HD 
BRANCH  12  14
HETATM   14  C   UNL     1     -10.907   8.449  70.906  1.00  0.00    -0.231 A  
HETATM   15  C   UNL     1     -11.100   6.105  72.400  1.00  0.00    -0.316 A  
HETATM   16  C   UNL     1     -11.095   4.890  73.157  1.00  0.00    -0.322 C  
HETATM   17  N   UNL     1     -11.083   3.904  73.768  1.00  0.00    -0.232 NA 
HETATM   18  C   UNL     1     -11.195   7.247  70.260  1.00  0.00    -0.287 A  
HETATM   19  C   UNL     1     -10.897   7.326  73.048  1.00  0.00    -0.399 A  
HETATM   20  C   UNL     1     -10.803   8.496  72.300  1.00  0.00    -0.418 A  
HETATM   21  C   UNL     1     -11.265   6.070  71.009  1.00  0.00    -0.332 A  
ENDBRANCH  12  14
ENDBRANCH  10  12
ENDBRANCH   8  10
ENDBRANCH   5   8
BRANCH   7  22
HETATM   22  C   UNL     1     -10.398  11.212  65.383  1.00  0.00    -0.271 A  
HETATM   23  N   UNL     1      -9.643  11.429  64.323  1.00  0.00    -0.339 NA 
HETATM   24  N   UNL     1     -10.110   9.990  65.944  1.00  0.00    -0.266 NA 
HETATM   25  C   UNL     1      -8.854  10.319  64.195  1.00  0.00    -0.222 A  
HETATM   26  H   UNL     1      -9.647  12.254  63.723  1.00  0.00     0.000 HD 
HETATM   27  C   UNL     1      -9.132   9.391  65.193  1.00  0.00    -0.225 A  
HETATM   28  C   UNL     1      -7.870  10.033  63.239  1.00  0.00    -0.150 A  
HETATM   29  C   UNL     1      -8.481   8.160  65.292  1.00  0.00    -0.157 A  
HETATM   30  C   UNL     1      -7.497   7.893  64.331  1.00  0.00    -0.098 A  
HETATM   31  C   UNL     1      -7.194   8.811  63.322  1.00  0.00    -0.094 A  
ENDBRANCH   7  22
TORSDOF 5
ENDMDL
MODEL       78
REMARK 921   NORMALIZED FREE ENERGY PREDICTED BY IDOCK:   -5.87 KCAL/MOL
REMARK 922        TOTAL FREE ENERGY PREDICTED BY IDOCK:   -8.36 KCAL/MOL
REMARK 923 INTER-LIGAND FREE ENERGY PREDICTED BY IDOCK:   -7.47 KCAL/MOL
REMARK 924 INTRA-LIGAND FREE ENERGY PREDICTED BY IDOCK:   -0.90 KCAL/MOL
REMARK 927      BINDING AFFINITY PREDICTED BY RF-SCORE:    0.00 PKD
ROOT
HETATM    1  C   UNL     1      -9.061   5.600  73.711  1.00  0.00    -0.127 C  
HETATM    2  N   UNL     1      -9.137   6.109  72.334  1.00  0.00    -0.137 NA 
HETATM    3  C   UNL     1     -10.298   5.538  71.630  1.00  0.00    -0.219 C  
HETATM    4  C   UNL     1     -11.652   6.078  72.076  1.00  0.00    -0.333 C  
HETATM    5  C   UNL     1     -11.684   7.613  72.094  1.00  0.00    -0.311 C  
HETATM    6  C   UNL     1     -10.474   8.191  72.841  1.00  0.00    -0.338 C  
HETATM    7  C   UNL     1      -9.156   7.596  72.322  1.00  0.00    -0.140 C  
ENDROOT
BRANCH   5   8
HETATM    8  N   UNL     1     -12.959   8.112  72.615  1.00  0.00    -0.580 N  
HETATM    9  H   UNL     1     -13.394   7.650  73.413  1.00  0.00     0.000 HD 
BRANCH   8  10
HETATM   10  C   UNL     1     -13.574   9.195  72.039  1.00  0.00    -0.459 C  
HETATM   11  O   UNL     1     -14.383   9.101  71.122  1.00  0.00    -0.141 OA 
BRANCH  10  12
HETATM   12  N   UNL     1     -13.099  10.391  72.545  1.00  0.00    -0.365 N  
HETATM   13  H   UNL     1     -12.933  10.519  73.544  1.00  0.00     0.000 HD 
BRANCH  12  14
HETATM   14  C   UNL     1     -12.852  11.429  71.620  1.00  0.00    -0.391 A  
HETATM   15  C   UNL     1     -12.003  13.570  70.052  1.00  0.00    -0.410 A  
HETATM   16  C   UNL     1     -11.485  14.680  69.311  1.00  0.00    -0.291 C  
HETATM   17  N   UNL     1     -11.060  15.581  68.719  1.00  0.00    -0.272 NA 
HETATM   18  C   UNL     1     -13.345  12.706  71.881  1.00  0.00    -0.485 A  
HETATM   19  C   UNL     1     -11.580  12.274  69.744  1.00  0.00    -0.314 A  
HETATM   20  C   UNL     1     -12.008  11.206  70.528  1.00  0.00    -0.475 A  
HETATM   21  C   UNL     1     -12.897  13.781  71.109  1.00  0.00    -0.409 A  
ENDBRANCH  12  14
ENDBRANCH  10  12
ENDBRANCH   8  10
ENDBRANCH   5   8
BRANCH   7  22
HETATM   22  C   UNL     1      -8.835   8.157  70.956  1.00  0.00    -0.143 A  
HETATM   23  N   UNL     1      -8.811   7.492  69.816  1.00  0.00    -0.141 NA 
HETATM   24  N   UNL     1      -8.524   9.481  70.753  1.00  0.00    -0.265 NA 
HETATM   25  C   UNL     1      -8.472   8.409  68.859  1.00  0.00    -0.124 A  
HETATM   26  H   UNL     1      -9.005   6.500  69.678  1.00  0.00     0.000 HD 
HETATM   27  C   UNL     1      -8.274   9.666  69.419  1.00  0.00    -0.132 A  
HETATM   28  C   UNL     1      -8.311   8.234  67.477  1.00  0.00    -0.130 A  
HETATM   29  C   UNL     1      -7.906  10.785  68.669  1.00  0.00    -0.122 A  
HETATM   30  C   UNL     1      -7.754  10.592  67.290  1.00  0.00    -0.108 A  
HETATM   31  C   UNL     1      -7.954   9.341  66.701  1.00  0.00    -0.108 A  
ENDBRANCH   7  22
TORSDOF 5
ENDMDL
MODEL       79
REMARK 921   NORMALIZED FREE ENERGY PREDICTED BY IDOCK:   -5.86 KCAL/MOL
REMARK 922        TOTAL FREE ENERGY PREDICTED BY IDOCK:   -8.35 KCAL/MOL
REMARK 923 INTER-LIGAND FREE ENERGY PREDICTED BY IDOCK:   -7.92 KCAL/MOL
REMARK 924 INTRA-LIGAND FREE ENERGY PREDICTED BY IDOCK:   -0.43 KCAL/MOL
REMARK 927      BINDING AFFINITY PREDICTED BY RF-SCORE:    0.00 PKD
ROOT
HETATM    1  C   UNL     1     -10.726   7.296  73.380  1.00  0.00    -0.369 C  
HETATM    2  N   UNL     1     -10.877   7.020  71.943  1.00  0.00    -0.222 NA 
HETATM    3  C   UNL     1     -12.175   7.510  71.452  1.00  0.00    -0.335 C  
HETATM    4  C   UNL     1     -12.290   9.026  71.335  1.00  0.00    -0.380 C  
HETATM    5  C   UNL     1     -11.111   9.637  70.566  1.00  0.00    -0.308 C  
HETATM    6  C   UNL     1      -9.766   9.124  71.099  1.00  0.00    -0.360 C  
HETATM    7  C   UNL     1      -9.739   7.590  71.175  1.00  0.00    -0.162 C  
ENDROOT
BRANCH   5   8
HETATM    8  N   UNL     1     -11.189  11.100  70.548  1.00  0.00    -0.372 N  
HETATM    9  H   UNL     1     -11.386  11.606  71.410  1.00  0.00     0.000 HD 
BRANCH   8  10
HETATM   10  C   UNL     1     -11.000  11.795  69.379  1.00  0.00    -0.125 C  
HETATM   11  O   UNL     1      -9.999  11.679  68.681  1.00  0.00    -0.209 OA 
BRANCH  10  12
HETATM   12  N   UNL     1     -12.017  12.704  69.146  1.00  0.00    -0.276 N  
HETATM   13  H   UNL     1     -12.574  12.671  68.291  1.00  0.00     0.000 HD 
BRANCH  12  14
HETATM   14  C   UNL     1     -12.252  13.676  70.141  1.00  0.00    -0.342 A  
HETATM   15  C   UNL     1     -12.459  15.334  72.370  1.00  0.00    -0.443 A  
HETATM   16  C   UNL     1     -12.502  16.120  73.567  1.00  0.00    -0.564 C  
HETATM   17  N   UNL     1     -12.534  16.749  74.540  1.00  0.00    -0.685 NA 
HETATM   18  C   UNL     1     -13.314  13.502  71.028  1.00  0.00    -0.062 A  
HETATM   19  C   UNL     1     -11.448  15.557  71.432  1.00  0.00    -0.478 A  
HETATM   20  C   UNL     1     -11.348  14.729  70.318  1.00  0.00    -0.277 A  
HETATM   21  C   UNL     1     -13.399  14.319  72.158  1.00  0.00    -0.506 A  
ENDBRANCH  12  14
ENDBRANCH  10  12
ENDBRANCH   8  10
ENDBRANCH   5   8
BRANCH   7  22
HETATM   22  C   UNL     1      -9.641   7.003  69.785  1.00  0.00    -0.151 A  
HETATM   23  N   UNL     1     -10.506   6.190  69.211  1.00  0.00    -0.225 NA 
HETATM   24  N   UNL     1      -8.592   7.273  68.939  1.00  0.00    -0.129 NA 
HETATM   25  C   UNL     1      -9.999   5.926  67.967  1.00  0.00    -0.137 A  
HETATM   26  H   UNL     1     -11.374   5.831  69.610  1.00  0.00     0.000 HD 
HETATM   27  C   UNL     1      -8.790   6.584  67.771  1.00  0.00    -0.113 A  
HETATM   28  C   UNL     1     -10.524   5.123  66.945  1.00  0.00    -0.280 A  
HETATM   29  C   UNL     1      -8.048   6.480  66.594  1.00  0.00    -0.110 A  
HETATM   30  C   UNL     1      -8.589   5.677  65.581  1.00  0.00    -0.150 A  
HETATM   31  C   UNL     1      -9.806   5.010  65.750  1.00  0.00    -0.150 A  
ENDBRANCH   7  22
TORSDOF 5
ENDMDL
MODEL       80
REMARK 921   NORMALIZED FREE ENERGY PREDICTED BY IDOCK:   -5.86 KCAL/MOL
REMARK 922        TOTAL FREE ENERGY PREDICTED BY IDOCK:   -8.34 KCAL/MOL
REMARK 923 INTER-LIGAND FREE ENERGY PREDICTED BY IDOCK:   -7.75 KCAL/MOL
REMARK 924 INTRA-LIGAND FREE ENERGY PREDICTED BY IDOCK:   -0.60 KCAL/MOL
REMARK 927      BINDING AFFINITY PREDICTED BY RF-SCORE:    0.00 PKD
ROOT
HETATM    1  C   UNL     1     -10.741  13.343  64.587  1.00  0.00    -0.411 C  
HETATM    2  N   UNL     1     -10.603  14.585  65.363  1.00  0.00    -0.344 NA 
HETATM    3  C   UNL     1     -11.781  14.797  66.222  1.00  0.00    -0.257 C  
HETATM    4  C   UNL     1     -11.878  13.866  67.425  1.00  0.00    -0.437 C  
HETATM    5  C   UNL     1     -10.573  13.827  68.232  1.00  0.00    -0.255 C  
HETATM    6  C   UNL     1      -9.358  13.593  67.324  1.00  0.00    -0.233 C  
HETATM    7  C   UNL     1      -9.339  14.579  66.145  1.00  0.00    -0.209 C  
ENDROOT
BRANCH   5   8
HETATM    8  N   UNL     1     -10.653  12.857  69.326  1.00  0.00    -0.435 N  
HETATM    9  H   UNL     1     -10.360  13.128  70.264  1.00  0.00     0.000 HD 
BRANCH   8  10
HETATM   10  C   UNL     1     -11.120  11.585  69.101  1.00  0.00    -0.259 C  
HETATM   11  O   UNL     1     -12.283  11.338  68.801  1.00  0.00    -0.532 OA 
BRANCH  10  12
HETATM   12  N   UNL     1     -10.154  10.627  69.348  1.00  0.00    -0.339 N  
HETATM   13  H   UNL     1     -10.009  10.245  70.283  1.00  0.00     0.000 HD 
BRANCH  12  14
HETATM   14  C   UNL     1      -9.376  10.198  68.251  1.00  0.00    -0.133 A  
HETATM   15  C   UNL     1      -7.925   9.764  65.912  1.00  0.00    -0.111 A  
HETATM   16  C   UNL     1      -7.203   9.639  64.682  1.00  0.00    -0.123 C  
HETATM   17  N   UNL     1      -6.622   9.545  63.683  1.00  0.00    -0.100 NA 
HETATM   18  C   UNL     1     -10.009   9.625  67.149  1.00  0.00    -0.249 A  
HETATM   19  C   UNL     1      -7.278  10.258  67.048  1.00  0.00    -0.091 A  
HETATM   20  C   UNL     1      -8.005  10.472  68.216  1.00  0.00    -0.113 A  
HETATM   21  C   UNL     1      -9.285   9.433  65.970  1.00  0.00    -0.253 A  
ENDBRANCH  12  14
ENDBRANCH  10  12
ENDBRANCH   8  10
ENDBRANCH   5   8
BRANCH   7  22
HETATM   22  C   UNL     1      -8.964  15.961  66.630  1.00  0.00    -0.268 A  
HETATM   23  N   UNL     1      -8.252  16.253  67.702  1.00  0.00    -0.151 NA 
HETATM   24  N   UNL     1      -9.342  17.106  65.970  1.00  0.00    -0.504 NA 
HETATM   25  C   UNL     1      -8.175  17.619  67.735  1.00  0.00    -0.225 A  
HETATM   26  H   UNL     1      -7.844  15.597  68.368  1.00  0.00     0.000 HD 
HETATM   27  C   UNL     1      -8.860  18.184  66.665  1.00  0.00    -0.275 A  
HETATM   28  C   UNL     1      -7.531  18.451  68.661  1.00  0.00    -0.314 A  
HETATM   29  C   UNL     1      -8.954  19.562  66.463  1.00  0.00    -0.406 A  
HETATM   30  C   UNL     1      -8.301  20.378  67.396  1.00  0.00    -0.380 A  
HETATM   31  C   UNL     1      -7.600  19.835  68.476  1.00  0.00    -0.338 A  
ENDBRANCH   7  22
TORSDOF 5
ENDMDL
MODEL       81
REMARK 921   NORMALIZED FREE ENERGY PREDICTED BY IDOCK:   -5.85 KCAL/MOL
REMARK 922        TOTAL FREE ENERGY PREDICTED BY IDOCK:   -8.33 KCAL/MOL
REMARK 923 INTER-LIGAND FREE ENERGY PREDICTED BY IDOCK:   -7.66 KCAL/MOL
REMARK 924 INTRA-LIGAND FREE ENERGY PREDICTED BY IDOCK:   -0.67 KCAL/MOL
REMARK 927      BINDING AFFINITY PREDICTED BY RF-SCORE:    0.00 PKD
ROOT
HETATM    1  C   UNL     1     -13.344   7.778  71.769  1.00  0.00    -0.319 C  
HETATM    2  N   UNL     1     -11.927   7.439  71.973  1.00  0.00    -0.294 NA 
HETATM    3  C   UNL     1     -11.559   6.245  71.192  1.00  0.00    -0.275 C  
HETATM    4  C   UNL     1     -11.456   6.465  69.687  1.00  0.00    -0.446 C  
HETATM    5  C   UNL     1     -10.581   7.677  69.339  1.00  0.00    -0.215 C  
HETATM    6  C   UNL     1     -10.985   8.914  70.153  1.00  0.00    -0.245 C  
HETATM    7  C   UNL     1     -11.056   8.600  71.656  1.00  0.00    -0.305 C  
ENDROOT
BRANCH   5   8
HETATM    8  N   UNL     1     -10.571   7.929  67.897  1.00  0.00    -0.390 N  
HETATM    9  H   UNL     1     -11.454   8.010  67.392  1.00  0.00     0.000 HD 
BRANCH   8  10
HETATM   10  C   UNL     1      -9.386   8.058  67.217  1.00  0.00    -0.144 C  
HETATM   11  O   UNL     1      -8.684   7.103  66.901  1.00  0.00    -0.120 OA 
BRANCH  10  12
HETATM   12  N   UNL     1      -9.038   9.383  67.026  1.00  0.00    -0.133 N  
HETATM   13  H   UNL     1      -8.189   9.775  67.433  1.00  0.00     0.000 HD 
BRANCH  12  14
HETATM   14  C   UNL     1      -9.909  10.170  66.243  1.00  0.00    -0.229 A  
HETATM   15  C   UNL     1     -11.294  12.032  64.700  1.00  0.00    -0.377 A  
HETATM   16  C   UNL     1     -11.922  13.050  63.913  1.00  0.00    -0.485 C  
HETATM   17  N   UNL     1     -12.423  13.880  63.278  1.00  0.00    -0.731 NA 
HETATM   18  C   UNL     1     -10.743  11.095  66.871  1.00  0.00    -0.322 A  
HETATM   19  C   UNL     1     -10.524  11.048  64.074  1.00  0.00    -0.433 A  
HETATM   20  C   UNL     1      -9.835  10.118  64.847  1.00  0.00    -0.390 A  
HETATM   21  C   UNL     1     -11.416  12.042  66.096  1.00  0.00    -0.401 A  
ENDBRANCH  12  14
ENDBRANCH  10  12
ENDBRANCH   8  10
ENDBRANCH   5   8
BRANCH   7  22
HETATM   22  C   UNL     1      -9.663   8.437  72.218  1.00  0.00    -0.316 A  
HETATM   23  N   UNL     1      -9.346   8.019  73.429  1.00  0.00    -0.274 NA 
HETATM   24  N   UNL     1      -8.532   8.720  71.490  1.00  0.00    -0.241 NA 
HETATM   25  C   UNL     1      -7.979   8.037  73.482  1.00  0.00    -0.190 A  
HETATM   26  H   UNL     1      -9.987   7.739  74.172  1.00  0.00     0.000 HD 
HETATM   27  C   UNL     1      -7.438   8.483  72.282  1.00  0.00    -0.056 A  
HETATM   28  C   UNL     1      -7.125   7.682  74.536  1.00  0.00    -0.140 A  
HETATM   29  C   UNL     1      -6.065   8.613  72.066  1.00  0.00    -0.070 A  
HETATM   30  C   UNL     1      -5.227   8.251  73.128  1.00  0.00    -0.044 A  
HETATM   31  C   UNL     1      -5.745   7.792  74.343  1.00  0.00    -0.073 A  
ENDBRANCH   7  22
TORSDOF 5
ENDMDL
MODEL       82
REMARK 921   NORMALIZED FREE ENERGY PREDICTED BY IDOCK:   -5.83 KCAL/MOL
REMARK 922        TOTAL FREE ENERGY PREDICTED BY IDOCK:   -8.31 KCAL/MOL
REMARK 923 INTER-LIGAND FREE ENERGY PREDICTED BY IDOCK:   -7.58 KCAL/MOL
REMARK 924 INTRA-LIGAND FREE ENERGY PREDICTED BY IDOCK:   -0.73 KCAL/MOL
REMARK 927      BINDING AFFINITY PREDICTED BY RF-SCORE:    0.00 PKD
ROOT
HETATM    1  C   UNL     1      -8.007   7.699  67.542  1.00  0.00    -0.120 C  
HETATM    2  N   UNL     1      -9.083   8.536  66.987  1.00  0.00    -0.139 NA 
HETATM    3  C   UNL     1     -10.403   8.018  67.384  1.00  0.00    -0.284 C  
HETATM    4  C   UNL     1     -10.769   8.239  68.848  1.00  0.00    -0.089 C  
HETATM    5  C   UNL     1     -10.564   9.697  69.281  1.00  0.00    -0.219 C  
HETATM    6  C   UNL     1      -9.179  10.216  68.869  1.00  0.00    -0.172 C  
HETATM    7  C   UNL     1      -8.901   9.957  67.380  1.00  0.00    -0.132 C  
ENDROOT
BRANCH   5   8
HETATM    8  N   UNL     1     -10.828   9.869  70.711  1.00  0.00    -0.323 N  
HETATM    9  H   UNL     1     -10.060  10.095  71.343  1.00  0.00     0.000 HD 
BRANCH   8  10
HETATM   10  C   UNL     1     -12.100   9.730  71.209  1.00  0.00    -0.382 C  
HETATM   11  O   UNL     1     -13.090  10.217  70.674  1.00  0.00    -0.365 OA 
BRANCH  10  12
HETATM   12  N   UNL     1     -12.112   9.068  72.423  1.00  0.00    -0.286 N  
HETATM   13  H   UNL     1     -12.593   9.455  73.236  1.00  0.00     0.000 HD 
BRANCH  12  14
HETATM   14  C   UNL     1     -11.431   7.833  72.490  1.00  0.00    -0.373 A  
HETATM   15  C   UNL     1     -10.243   5.376  73.049  1.00  0.00    -0.212 A  
HETATM   16  C   UNL     1      -9.676   4.117  73.430  1.00  0.00    -0.117 C  
HETATM   17  N   UNL     1      -9.219   3.100  73.748  1.00  0.00    -0.085 NA 
HETATM   18  C   UNL     1     -10.128   7.799  72.985  1.00  0.00    -0.382 A  
HETATM   19  C   UNL     1     -11.515   5.416  72.473  1.00  0.00    -0.259 A  
HETATM   20  C   UNL     1     -12.106   6.645  72.193  1.00  0.00    -0.299 A  
HETATM   21  C   UNL     1      -9.545   6.566  73.287  1.00  0.00    -0.168 A  
ENDBRANCH  12  14
ENDBRANCH  10  12
ENDBRANCH   8  10
ENDBRANCH   5   8
BRANCH   7  22
HETATM   22  C   UNL     1      -9.726  10.893  66.528  1.00  0.00    -0.198 A  
HETATM   23  N   UNL     1     -10.240  12.051  66.899  1.00  0.00    -0.207 NA 
HETATM   24  N   UNL     1     -10.038  10.621  65.217  1.00  0.00    -0.285 NA 
HETATM   25  C   UNL     1     -10.902  12.532  65.803  1.00  0.00    -0.276 A  
HETATM   26  H   UNL     1     -10.160  12.495  67.814  1.00  0.00     0.000 HD 
HETATM   27  C   UNL     1     -10.803  11.650  64.733  1.00  0.00    -0.308 A  
HETATM   28  C   UNL     1     -11.617  13.728  65.650  1.00  0.00    -0.339 A  
HETATM   29  C   UNL     1     -11.398  11.887  63.492  1.00  0.00    -0.516 A  
HETATM   30  C   UNL     1     -12.106  13.088  63.357  1.00  0.00    -0.591 A  
HETATM   31  C   UNL     1     -12.214  13.995  64.414  1.00  0.00    -0.457 A  
ENDBRANCH   7  22
TORSDOF 5
ENDMDL
MODEL       83
REMARK 921   NORMALIZED FREE ENERGY PREDICTED BY IDOCK:   -5.82 KCAL/MOL
REMARK 922        TOTAL FREE ENERGY PREDICTED BY IDOCK:   -8.29 KCAL/MOL
REMARK 923 INTER-LIGAND FREE ENERGY PREDICTED BY IDOCK:   -7.80 KCAL/MOL
REMARK 924 INTRA-LIGAND FREE ENERGY PREDICTED BY IDOCK:   -0.49 KCAL/MOL
REMARK 927      BINDING AFFINITY PREDICTED BY RF-SCORE:    0.00 PKD
ROOT
HETATM    1  C   UNL     1     -13.295   7.341  71.401  1.00  0.00    -0.331 C  
HETATM    2  N   UNL     1     -11.871   7.020  71.584  1.00  0.00    -0.294 NA 
HETATM    3  C   UNL     1     -11.304   6.444  70.352  1.00  0.00    -0.389 C  
HETATM    4  C   UNL     1     -11.100   7.435  69.211  1.00  0.00    -0.012 C  
HETATM    5  C   UNL     1     -10.343   8.691  69.666  1.00  0.00    -0.213 C  
HETATM    6  C   UNL     1     -10.953   9.283  70.943  1.00  0.00    -0.368 C  
HETATM    7  C   UNL     1     -11.115   8.216  72.037  1.00  0.00    -0.306 C  
ENDROOT
BRANCH   5   8
HETATM    8  N   UNL     1     -10.240   9.671  68.583  1.00  0.00    -0.182 N  
HETATM    9  H   UNL     1      -9.650   9.472  67.775  1.00  0.00     0.000 HD 
BRANCH   8  10
HETATM   10  C   UNL     1     -10.931  10.855  68.644  1.00  0.00    -0.227 C  
HETATM   11  O   UNL     1     -12.140  10.941  68.459  1.00  0.00    -0.545 OA 
BRANCH  10  12
HETATM   12  N   UNL     1     -10.090  11.937  68.837  1.00  0.00    -0.404 N  
HETATM   13  H   UNL     1      -9.459  11.984  69.638  1.00  0.00     0.000 HD 
BRANCH  12  14
HETATM   14  C   UNL     1     -10.142  12.972  67.880  1.00  0.00    -0.235 A  
HETATM   15  C   UNL     1     -10.679  14.895  65.936  1.00  0.00    -0.329 A  
HETATM   16  C   UNL     1     -11.054  15.847  64.935  1.00  0.00    -0.389 C  
HETATM   17  N   UNL     1     -11.365  16.614  64.123  1.00  0.00    -1.075 NA 
HETATM   18  C   UNL     1      -9.908  12.673  66.539  1.00  0.00    -0.258 A  
HETATM   19  C   UNL     1     -10.830  15.215  67.288  1.00  0.00    -0.316 A  
HETATM   20  C   UNL     1     -10.559  14.253  68.257  1.00  0.00    -0.247 A  
HETATM   21  C   UNL     1     -10.202  13.631  65.565  1.00  0.00    -0.316 A  
ENDBRANCH  12  14
ENDBRANCH  10  12
ENDBRANCH   8  10
ENDBRANCH   5   8
BRANCH   7  22
HETATM   22  C   UNL     1      -9.765   7.853  72.611  1.00  0.00    -0.240 A  
HETATM   23  N   UNL     1      -8.691   8.619  72.645  1.00  0.00    -0.408 NA 
HETATM   24  N   UNL     1      -9.509   6.630  73.185  1.00  0.00    -0.141 NA 
HETATM   25  C   UNL     1      -7.720   7.869  73.251  1.00  0.00    -0.143 A  
HETATM   26  H   UNL     1      -8.603   9.572  72.293  1.00  0.00     0.000 HD 
HETATM   27  C   UNL     1      -8.200   6.610  73.591  1.00  0.00    -0.113 A  
HETATM   28  C   UNL     1      -6.391   8.205  73.543  1.00  0.00    -0.108 A  
HETATM   29  C   UNL     1      -7.414   5.636  74.210  1.00  0.00    -0.092 A  
HETATM   30  C   UNL     1      -6.090   5.990  74.498  1.00  0.00    -0.065 A  
HETATM   31  C   UNL     1      -5.584   7.252  74.173  1.00  0.00    -0.057 A  
ENDBRANCH   7  22
TORSDOF 5
ENDMDL
MODEL       84
REMARK 921   NORMALIZED FREE ENERGY PREDICTED BY IDOCK:   -5.81 KCAL/MOL
REMARK 922        TOTAL FREE ENERGY PREDICTED BY IDOCK:   -8.28 KCAL/MOL
REMARK 923 INTER-LIGAND FREE ENERGY PREDICTED BY IDOCK:   -7.97 KCAL/MOL
REMARK 924 INTRA-LIGAND FREE ENERGY PREDICTED BY IDOCK:   -0.32 KCAL/MOL
REMARK 927      BINDING AFFINITY PREDICTED BY RF-SCORE:    0.00 PKD
ROOT
HETATM    1  C   UNL     1     -10.676  14.930  64.836  1.00  0.00    -0.405 C  
HETATM    2  N   UNL     1     -11.495  14.516  65.986  1.00  0.00    -0.345 NA 
HETATM    3  C   UNL     1     -12.339  13.361  65.637  1.00  0.00    -0.470 C  
HETATM    4  C   UNL     1     -11.594  12.039  65.487  1.00  0.00    -0.352 C  
HETATM    5  C   UNL     1     -10.685  11.750  66.690  1.00  0.00    -0.263 C  
HETATM    6  C   UNL     1      -9.805  12.960  67.033  1.00  0.00    -0.233 C  
HETATM    7  C   UNL     1     -10.640  14.242  67.171  1.00  0.00    -0.279 C  
ENDROOT
BRANCH   5   8
HETATM    8  N   UNL     1      -9.907  10.526  66.486  1.00  0.00    -0.199 N  
HETATM    9  H   UNL     1      -9.165  10.510  65.787  1.00  0.00     0.000 HD 
BRANCH   8  10
HETATM   10  C   UNL     1     -10.167   9.400  67.227  1.00  0.00    -0.246 C  
HETATM   11  O   UNL     1     -10.118   9.374  68.452  1.00  0.00    -0.171 OA 
BRANCH  10  12
HETATM   12  N   UNL     1     -10.389   8.293  66.428  1.00  0.00    -0.419 N  
HETATM   13  H   UNL     1     -11.303   8.111  66.012  1.00  0.00     0.000 HD 
BRANCH  12  14
HETATM   14  C   UNL     1      -9.296   7.426  66.211  1.00  0.00    -0.111 A  
HETATM   15  C   UNL     1      -7.407   5.515  65.477  1.00  0.00    -0.073 A  
HETATM   16  C   UNL     1      -6.505   4.496  65.029  1.00  0.00    -0.036 C  
HETATM   17  N   UNL     1      -5.782   3.668  64.663  1.00  0.00    -0.013 NA 
HETATM   18  C   UNL     1      -9.231   6.223  66.913  1.00  0.00    -0.138 A  
HETATM   19  C   UNL     1      -7.423   6.756  64.836  1.00  0.00    -0.094 A  
HETATM   20  C   UNL     1      -8.366   7.710  65.206  1.00  0.00    -0.121 A  
HETATM   21  C   UNL     1      -8.299   5.257  66.525  1.00  0.00    -0.108 A  
ENDBRANCH  12  14
ENDBRANCH  10  12
ENDBRANCH   8  10
ENDBRANCH   5   8
BRANCH   7  22
HETATM   22  C   UNL     1     -11.439  14.206  68.453  1.00  0.00    -0.302 A  
HETATM   23  N   UNL     1     -12.025  15.230  69.044  1.00  0.00    -0.512 NA 
HETATM   24  N   UNL     1     -11.647  13.049  69.164  1.00  0.00    -0.298 NA 
HETATM   25  C   UNL     1     -12.621  14.719  70.166  1.00  0.00    -0.271 A  
HETATM   26  H   UNL     1     -12.034  16.201  68.731  1.00  0.00     0.000 HD 
HETATM   27  C   UNL     1     -12.391  13.352  70.274  1.00  0.00    -0.284 A  
HETATM   28  C   UNL     1     -13.380  15.373  71.146  1.00  0.00    -0.580 A  
HETATM   29  C   UNL     1     -12.874  12.580  71.333  1.00  0.00    -0.359 A  
HETATM   30  C   UNL     1     -13.633  13.249  72.301  1.00  0.00    -0.703 A  
HETATM   31  C   UNL     1     -13.885  14.621  72.211  1.00  0.00    -0.583 A  
ENDBRANCH   7  22
TORSDOF 5
ENDMDL
MODEL       85
REMARK 921   NORMALIZED FREE ENERGY PREDICTED BY IDOCK:   -5.81 KCAL/MOL
REMARK 922        TOTAL FREE ENERGY PREDICTED BY IDOCK:   -8.28 KCAL/MOL
REMARK 923 INTER-LIGAND FREE ENERGY PREDICTED BY IDOCK:   -7.57 KCAL/MOL
REMARK 924 INTRA-LIGAND FREE ENERGY PREDICTED BY IDOCK:   -0.71 KCAL/MOL
REMARK 927      BINDING AFFINITY PREDICTED BY RF-SCORE:    0.00 PKD
ROOT
HETATM    1  C   UNL     1      -8.412  11.706  67.346  1.00  0.00    -0.150 C  
HETATM    2  N   UNL     1      -8.803  10.365  66.883  1.00  0.00    -0.133 NA 
HETATM    3  C   UNL     1     -10.270  10.235  66.846  1.00  0.00    -0.230 C  
HETATM    4  C   UNL     1     -10.958  11.000  65.721  1.00  0.00    -0.102 C  
HETATM    5  C   UNL     1     -10.317  10.718  64.355  1.00  0.00    -0.335 C  
HETATM    6  C   UNL     1      -8.790  10.871  64.409  1.00  0.00    -0.070 C  
HETATM    7  C   UNL     1      -8.185  10.061  65.566  1.00  0.00    -0.146 C  
ENDROOT
BRANCH   5   8
HETATM    8  N   UNL     1     -10.928  11.534  63.303  1.00  0.00    -0.744 N  
HETATM    9  H   UNL     1     -10.543  11.511  62.359  1.00  0.00     0.000 HD 
BRANCH   8  10
HETATM   10  C   UNL     1     -12.014  12.328  63.576  1.00  0.00    -0.533 C  
HETATM   11  O   UNL     1     -13.153  11.892  63.700  1.00  0.00    -0.696 OA 
BRANCH  10  12
HETATM   12  N   UNL     1     -11.683  13.671  63.593  1.00  0.00    -0.679 N  
HETATM   13  H   UNL     1     -11.639  14.219  62.733  1.00  0.00     0.000 HD 
BRANCH  12  14
HETATM   14  C   UNL     1     -11.409  14.250  64.850  1.00  0.00    -0.372 A  
HETATM   15  C   UNL     1     -10.733  14.978  67.453  1.00  0.00    -0.289 A  
HETATM   16  C   UNL     1     -10.355  15.253  68.807  1.00  0.00    -0.232 C  
HETATM   17  N   UNL     1     -10.049  15.467  69.904  1.00  0.00    -0.293 NA 
HETATM   18  C   UNL     1     -12.382  14.208  65.847  1.00  0.00    -0.486 A  
HETATM   19  C   UNL     1      -9.788  15.100  66.432  1.00  0.00    -0.300 A  
HETATM   20  C   UNL     1     -10.128  14.737  65.132  1.00  0.00    -0.358 A  
HETATM   21  C   UNL     1     -12.033  14.549  67.156  1.00  0.00    -0.373 A  
ENDBRANCH  12  14
ENDBRANCH  10  12
ENDBRANCH   8  10
ENDBRANCH   5   8
BRANCH   7  22
HETATM   22  C   UNL     1      -8.227   8.585  65.245  1.00  0.00    -0.149 A  
HETATM   23  N   UNL     1      -8.635   7.617  66.043  1.00  0.00    -0.146 NA 
HETATM   24  N   UNL     1      -7.829   8.079  64.031  1.00  0.00    -0.140 NA 
HETATM   25  C   UNL     1      -8.491   6.460  65.327  1.00  0.00    -0.098 A  
HETATM   26  H   UNL     1      -8.985   7.711  66.997  1.00  0.00     0.000 HD 
HETATM   27  C   UNL     1      -7.975   6.717  64.062  1.00  0.00    -0.084 A  
HETATM   28  C   UNL     1      -8.782   5.141  65.701  1.00  0.00    -0.143 A  
HETATM   29  C   UNL     1      -7.715   5.713  63.127  1.00  0.00    -0.085 A  
HETATM   30  C   UNL     1      -8.016   4.401  63.516  1.00  0.00    -0.086 A  
HETATM   31  C   UNL     1      -8.542   4.117  64.779  1.00  0.00    -0.119 A  
ENDBRANCH   7  22
TORSDOF 5
ENDMDL
MODEL       86
REMARK 921   NORMALIZED FREE ENERGY PREDICTED BY IDOCK:   -5.80 KCAL/MOL
REMARK 922        TOTAL FREE ENERGY PREDICTED BY IDOCK:   -8.27 KCAL/MOL
REMARK 923 INTER-LIGAND FREE ENERGY PREDICTED BY IDOCK:   -6.80 KCAL/MOL
REMARK 924 INTRA-LIGAND FREE ENERGY PREDICTED BY IDOCK:   -1.47 KCAL/MOL
REMARK 927      BINDING AFFINITY PREDICTED BY RF-SCORE:    0.00 PKD
ROOT
HETATM    1  C   UNL     1      -9.935  18.282  68.579  1.00  0.00    -0.393 C  
HETATM    2  N   UNL     1      -9.977  17.320  67.467  1.00  0.00    -0.286 NA 
HETATM    3  C   UNL     1      -8.733  17.379  66.680  1.00  0.00    -0.260 C  
HETATM    4  C   UNL     1      -7.508  16.782  67.362  1.00  0.00    -0.187 C  
HETATM    5  C   UNL     1      -7.781  15.374  67.909  1.00  0.00    -0.133 C  
HETATM    6  C   UNL     1      -9.073  15.333  68.737  1.00  0.00    -0.200 C  
HETATM    7  C   UNL     1     -10.253  15.948  67.968  1.00  0.00    -0.238 C  
ENDROOT
BRANCH   5   8
HETATM    8  N   UNL     1      -6.624  14.856  68.644  1.00  0.00    -0.084 N  
HETATM    9  H   UNL     1      -6.171  15.438  69.348  1.00  0.00     0.000 HD 
BRANCH   8  10
HETATM   10  C   UNL     1      -6.145  13.594  68.393  1.00  0.00    -0.096 C  
HETATM   11  O   UNL     1      -5.308  13.039  69.097  1.00  0.00    -0.069 OA 
BRANCH  10  12
HETATM   12  N   UNL     1      -6.641  13.076  67.211  1.00  0.00    -0.304 N  
HETATM   13  H   UNL     1      -6.519  13.564  66.323  1.00  0.00     0.000 HD 
BRANCH  12  14
HETATM   14  C   UNL     1      -7.324  11.843  67.284  1.00  0.00    -0.146 A  
HETATM   15  C   UNL     1      -8.999   9.618  67.196  1.00  0.00    -0.148 A  
HETATM   16  C   UNL     1      -9.927   8.532  67.095  1.00  0.00    -0.238 C  
HETATM   17  N   UNL     1     -10.685   7.659  67.010  1.00  0.00    -0.339 NA 
HETATM   18  C   UNL     1      -8.226  11.624  68.324  1.00  0.00    -0.156 A  
HETATM   19  C   UNL     1      -8.033   9.799  66.203  1.00  0.00    -0.110 A  
HETATM   20  C   UNL     1      -7.196  10.910  66.250  1.00  0.00    -0.126 A  
HETATM   21  C   UNL     1      -9.082  10.521  68.263  1.00  0.00    -0.146 A  
ENDBRANCH  12  14
ENDBRANCH  10  12
ENDBRANCH   8  10
ENDBRANCH   5   8
BRANCH   7  22
HETATM   22  C   UNL     1     -10.694  15.017  66.862  1.00  0.00    -0.308 A  
HETATM   23  N   UNL     1     -11.398  15.341  65.795  1.00  0.00    -0.244 NA 
HETATM   24  N   UNL     1     -10.389  13.677  66.856  1.00  0.00    -0.260 NA 
HETATM   25  C   UNL     1     -11.554  14.180  65.087  1.00  0.00    -0.344 A  
HETATM   26  H   UNL     1     -11.753  16.265  65.547  1.00  0.00     0.000 HD 
HETATM   27  C   UNL     1     -10.940  13.114  65.735  1.00  0.00    -0.277 A  
HETATM   28  C   UNL     1     -12.217  13.961  63.872  1.00  0.00    -0.375 A  
HETATM   29  C   UNL     1     -10.957  11.809  65.239  1.00  0.00    -0.350 A  
HETATM   30  C   UNL     1     -11.620  11.610  64.022  1.00  0.00    -0.371 A  
HETATM   31  C   UNL     1     -12.239  12.665  63.347  1.00  0.00    -0.610 A  
ENDBRANCH   7  22
TORSDOF 5
ENDMDL
MODEL       87
REMARK 921   NORMALIZED FREE ENERGY PREDICTED BY IDOCK:   -5.80 KCAL/MOL
REMARK 922        TOTAL FREE ENERGY PREDICTED BY IDOCK:   -8.27 KCAL/MOL
REMARK 923 INTER-LIGAND FREE ENERGY PREDICTED BY IDOCK:   -7.95 KCAL/MOL
REMARK 924 INTRA-LIGAND FREE ENERGY PREDICTED BY IDOCK:   -0.32 KCAL/MOL
REMARK 927      BINDING AFFINITY PREDICTED BY RF-SCORE:    0.00 PKD
ROOT
HETATM    1  C   UNL     1      -8.873   8.199  73.597  1.00  0.00    -0.227 C  
HETATM    2  N   UNL     1      -9.356   7.056  72.807  1.00  0.00    -0.134 NA 
HETATM    3  C   UNL     1     -10.778   6.793  73.087  1.00  0.00    -0.296 C  
HETATM    4  C   UNL     1     -11.750   7.812  72.503  1.00  0.00    -0.393 C  
HETATM    5  C   UNL     1     -11.490   8.069  71.012  1.00  0.00    -0.279 C  
HETATM    6  C   UNL     1     -10.006   8.353  70.740  1.00  0.00    -0.222 C  
HETATM    7  C   UNL     1      -9.105   7.272  71.358  1.00  0.00    -0.142 C  
ENDROOT
BRANCH   5   8
HETATM    8  N   UNL     1     -12.369   9.120  70.493  1.00  0.00    -0.472 N  
HETATM    9  H   UNL     1     -12.987   8.919  69.707  1.00  0.00     0.000 HD 
BRANCH   8  10
HETATM   10  C   UNL     1     -12.368  10.372  71.054  1.00  0.00    -0.387 C  
HETATM   11  O   UNL     1     -13.221  10.756  71.847  1.00  0.00    -0.469 OA 
BRANCH  10  12
HETATM   12  N   UNL     1     -11.359  11.169  70.543  1.00  0.00    -0.423 N  
HETATM   13  H   UNL     1     -10.446  11.226  70.994  1.00  0.00     0.000 HD 
BRANCH  12  14
HETATM   14  C   UNL     1     -11.647  11.900  69.370  1.00  0.00    -0.325 A  
HETATM   15  C   UNL     1     -11.770  13.426  67.043  1.00  0.00    -0.426 A  
HETATM   16  C   UNL     1     -11.728  14.221  65.852  1.00  0.00    -0.372 C  
HETATM   17  N   UNL     1     -11.687  14.867  64.891  1.00  0.00    -0.384 NA 
HETATM   18  C   UNL     1     -11.886  13.270  69.462  1.00  0.00    -0.388 A  
HETATM   19  C   UNL     1     -11.616  12.040  66.955  1.00  0.00    -0.387 A  
HETATM   20  C   UNL     1     -11.557  11.280  68.120  1.00  0.00    -0.359 A  
HETATM   21  C   UNL     1     -11.921  14.036  68.295  1.00  0.00    -0.384 A  
ENDBRANCH  12  14
ENDBRANCH  10  12
ENDBRANCH   8  10
ENDBRANCH   5   8
BRANCH   7  22
HETATM   22  C   UNL     1      -9.212   5.991  70.565  1.00  0.00    -0.156 A  
HETATM   23  N   UNL     1      -9.236   4.764  71.049  1.00  0.00    -0.135 NA 
HETATM   24  N   UNL     1      -9.302   5.974  69.193  1.00  0.00    -0.125 NA 
HETATM   25  C   UNL     1      -9.339   3.938  69.964  1.00  0.00    -0.176 A  
HETATM   26  H   UNL     1      -9.188   4.488  72.030  1.00  0.00     0.000 HD 
HETATM   27  C   UNL     1      -9.372   4.669  68.781  1.00  0.00    -0.140 A  
HETATM   28  C   UNL     1      -9.409   2.539  69.914  1.00  0.00    -0.182 A  
HETATM   29  C   UNL     1      -9.460   4.075  67.521  1.00  0.00    -0.231 A  
HETATM   30  C   UNL     1      -9.532   2.677  67.490  1.00  0.00    -0.116 A  
HETATM   31  C   UNL     1      -9.510   1.919  68.664  1.00  0.00    -0.213 A  
ENDBRANCH   7  22
TORSDOF 5
ENDMDL
MODEL       88
REMARK 921   NORMALIZED FREE ENERGY PREDICTED BY IDOCK:   -5.80 KCAL/MOL
REMARK 922        TOTAL FREE ENERGY PREDICTED BY IDOCK:   -8.26 KCAL/MOL
REMARK 923 INTER-LIGAND FREE ENERGY PREDICTED BY IDOCK:   -7.65 KCAL/MOL
REMARK 924 INTRA-LIGAND FREE ENERGY PREDICTED BY IDOCK:   -0.61 KCAL/MOL
REMARK 927      BINDING AFFINITY PREDICTED BY RF-SCORE:    0.00 PKD
ROOT
HETATM    1  C   UNL     1      -8.096   7.269  71.914  1.00  0.00    -0.099 C  
HETATM    2  N   UNL     1      -8.529   6.309  70.887  1.00  0.00    -0.130 NA 
HETATM    3  C   UNL     1      -9.457   5.318  71.459  1.00  0.00    -0.150 C  
HETATM    4  C   UNL     1     -10.850   5.848  71.780  1.00  0.00    -0.316 C  
HETATM    5  C   UNL     1     -11.468   6.604  70.596  1.00  0.00    -0.364 C  
HETATM    6  C   UNL     1     -10.493   7.640  70.020  1.00  0.00    -0.229 C  
HETATM    7  C   UNL     1      -9.121   7.016  69.721  1.00  0.00    -0.144 C  
ENDROOT
BRANCH   5   8
HETATM    8  N   UNL     1     -12.763   7.186  70.954  1.00  0.00    -0.586 N  
HETATM    9  H   UNL     1     -13.623   6.698  70.706  1.00  0.00     0.000 HD 
BRANCH   8  10
HETATM   10  C   UNL     1     -12.830   8.384  71.622  1.00  0.00    -0.334 C  
HETATM   11  O   UNL     1     -12.432   8.537  72.772  1.00  0.00    -0.320 OA 
BRANCH  10  12
HETATM   12  N   UNL     1     -13.484   9.354  70.884  1.00  0.00    -0.587 N  
HETATM   13  H   UNL     1     -14.308   9.132  70.324  1.00  0.00     0.000 HD 
BRANCH  12  14
HETATM   14  C   UNL     1     -12.962  10.664  70.937  1.00  0.00    -0.340 A  
HETATM   15  C   UNL     1     -12.296  13.365  70.795  1.00  0.00    -0.433 A  
HETATM   16  C   UNL     1     -12.041  14.769  70.668  1.00  0.00    -0.310 C  
HETATM   17  N   UNL     1     -11.842  15.905  70.559  1.00  0.00    -0.361 NA 
HETATM   18  C   UNL     1     -12.138  11.112  69.906  1.00  0.00    -0.418 A  
HETATM   19  C   UNL     1     -13.050  12.893  71.872  1.00  0.00    -0.474 A  
HETATM   20  C   UNL     1     -13.380  11.543  71.942  1.00  0.00    -0.408 A  
HETATM   21  C   UNL     1     -11.827  12.472  69.824  1.00  0.00    -0.380 A  
ENDBRANCH  12  14
ENDBRANCH  10  12
ENDBRANCH   8  10
ENDBRANCH   5   8
BRANCH   7  22
HETATM   22  C   UNL     1      -9.210   6.127  68.502  1.00  0.00    -0.115 A  
HETATM   23  N   UNL     1     -10.215   6.056  67.651  1.00  0.00    -0.160 NA 
HETATM   24  N   UNL     1      -8.203   5.264  68.139  1.00  0.00    -0.098 NA 
HETATM   25  C   UNL     1      -9.849   5.121  66.721  1.00  0.00    -0.185 A  
HETATM   26  H   UNL     1     -11.086   6.587  67.680  1.00  0.00     0.000 HD 
HETATM   27  C   UNL     1      -8.593   4.597  67.008  1.00  0.00    -0.104 A  
HETATM   28  C   UNL     1     -10.548   4.665  65.596  1.00  0.00    -0.241 A  
HETATM   29  C   UNL     1      -7.982   3.614  66.228  1.00  0.00    -0.089 A  
HETATM   30  C   UNL     1      -8.693   3.173  65.105  1.00  0.00    -0.116 A  
HETATM   31  C   UNL     1      -9.954   3.688  64.790  1.00  0.00    -0.160 A  
ENDBRANCH   7  22
TORSDOF 5
ENDMDL
MODEL       89
REMARK 921   NORMALIZED FREE ENERGY PREDICTED BY IDOCK:   -5.80 KCAL/MOL
REMARK 922        TOTAL FREE ENERGY PREDICTED BY IDOCK:   -8.26 KCAL/MOL
REMARK 923 INTER-LIGAND FREE ENERGY PREDICTED BY IDOCK:   -8.19 KCAL/MOL
REMARK 924 INTRA-LIGAND FREE ENERGY PREDICTED BY IDOCK:   -0.07 KCAL/MOL
REMARK 927      BINDING AFFINITY PREDICTED BY RF-SCORE:    0.00 PKD
ROOT
HETATM    1  C   UNL     1      -9.837  13.315  65.767  1.00  0.00    -0.197 C  
HETATM    2  N   UNL     1      -9.670  14.733  66.123  1.00  0.00    -0.296 NA 
HETATM    3  C   UNL     1     -10.953  15.319  66.543  1.00  0.00    -0.295 C  
HETATM    4  C   UNL     1     -11.452  14.869  67.912  1.00  0.00    -0.357 C  
HETATM    5  C   UNL     1     -10.371  15.005  68.993  1.00  0.00    -0.243 C  
HETATM    6  C   UNL     1      -9.044  14.378  68.543  1.00  0.00    -0.193 C  
HETATM    7  C   UNL     1      -8.618  14.895  67.160  1.00  0.00    -0.225 C  
ENDROOT
BRANCH   5   8
HETATM    8  N   UNL     1     -10.836  14.479  70.279  1.00  0.00    -0.476 N  
HETATM    9  H   UNL     1     -10.226  14.526  71.095  1.00  0.00     0.000 HD 
BRANCH   8  10
HETATM   10  C   UNL     1     -12.085  13.921  70.395  1.00  0.00    -0.351 C  
HETATM   11  O   UNL     1     -13.117  14.516  70.106  1.00  0.00    -0.149 OA 
BRANCH  10  12
HETATM   12  N   UNL     1     -12.039  12.662  70.966  1.00  0.00    -0.373 N  
HETATM   13  H   UNL     1     -12.171  12.526  71.969  1.00  0.00     0.000 HD 
BRANCH  12  14
HETATM   14  C   UNL     1     -11.803  11.572  70.101  1.00  0.00    -0.356 A  
HETATM   15  C   UNL     1     -10.909   9.572  68.379  1.00  0.00    -0.183 A  
HETATM   16  C   UNL     1     -10.355   8.587  67.500  1.00  0.00    -0.267 C  
HETATM   17  N   UNL     1      -9.898   7.795  66.787  1.00  0.00    -0.226 NA 
HETATM   18  C   UNL     1     -11.904  11.760  68.723  1.00  0.00    -0.380 A  
HETATM   19  C   UNL     1     -10.891   9.357  69.759  1.00  0.00    -0.250 A  
HETATM   20  C   UNL     1     -11.340  10.357  70.618  1.00  0.00    -0.411 A  
HETATM   21  C   UNL     1     -11.431  10.766  67.863  1.00  0.00    -0.306 A  
ENDBRANCH  12  14
ENDBRANCH  10  12
ENDBRANCH   8  10
ENDBRANCH   5   8
BRANCH   7  22
HETATM   22  C   UNL     1      -8.138  16.324  67.265  1.00  0.00    -0.176 A  
HETATM   23  N   UNL     1      -7.643  16.912  68.338  1.00  0.00    -0.199 NA 
HETATM   24  N   UNL     1      -8.169  17.196  66.203  1.00  0.00    -0.467 NA 
HETATM   25  C   UNL     1      -7.353  18.194  67.958  1.00  0.00    -0.234 A  
HETATM   26  H   UNL     1      -7.504  16.497  69.260  1.00  0.00     0.000 HD 
HETATM   27  C   UNL     1      -7.683  18.407  66.624  1.00  0.00    -0.235 A  
HETATM   28  C   UNL     1      -6.801  19.241  68.709  1.00  0.00    -0.350 A  
HETATM   29  C   UNL     1      -7.504  19.632  65.981  1.00  0.00    -0.320 A  
HETATM   30  C   UNL     1      -6.949  20.666  66.745  1.00  0.00    -0.343 A  
HETATM   31  C   UNL     1      -6.601  20.477  68.086  1.00  0.00    -0.329 A  
ENDBRANCH   7  22
TORSDOF 5
ENDMDL
MODEL       90
REMARK 921   NORMALIZED FREE ENERGY PREDICTED BY IDOCK:   -5.79 KCAL/MOL
REMARK 922        TOTAL FREE ENERGY PREDICTED BY IDOCK:   -8.26 KCAL/MOL
REMARK 923 INTER-LIGAND FREE ENERGY PREDICTED BY IDOCK:   -7.61 KCAL/MOL
REMARK 924 INTRA-LIGAND FREE ENERGY PREDICTED BY IDOCK:   -0.65 KCAL/MOL
REMARK 927      BINDING AFFINITY PREDICTED BY RF-SCORE:    0.00 PKD
ROOT
HETATM    1  C   UNL     1     -10.013  18.038  68.131  1.00  0.00    -0.353 C  
HETATM    2  N   UNL     1      -9.924  16.960  67.134  1.00  0.00    -0.268 NA 
HETATM    3  C   UNL     1      -8.531  16.768  66.697  1.00  0.00    -0.256 C  
HETATM    4  C   UNL     1      -7.617  16.110  67.725  1.00  0.00    -0.154 C  
HETATM    5  C   UNL     1      -8.227  14.824  68.300  1.00  0.00    -0.142 C  
HETATM    6  C   UNL     1      -9.674  15.046  68.761  1.00  0.00    -0.227 C  
HETATM    7  C   UNL     1     -10.520  15.705  67.661  1.00  0.00    -0.283 C  
ENDROOT
BRANCH   5   8
HETATM    8  N   UNL     1      -7.380  14.259  69.353  1.00  0.00    -0.311 N  
HETATM    9  H   UNL     1      -7.329  14.720  70.261  1.00  0.00     0.000 HD 
BRANCH   8  10
HETATM   10  C   UNL     1      -6.655  13.116  69.129  1.00  0.00    -0.104 C  
HETATM   11  O   UNL     1      -5.557  12.904  69.634  1.00  0.00    -0.083 OA 
BRANCH  10  12
HETATM   12  N   UNL     1      -7.261  12.291  68.198  1.00  0.00    -0.092 N  
HETATM   13  H   UNL     1      -7.020  12.339  67.208  1.00  0.00     0.000 HD 
BRANCH  12  14
HETATM   14  C   UNL     1      -8.226  11.380  68.677  1.00  0.00    -0.142 A  
HETATM   15  C   UNL     1     -10.182   9.873  69.969  1.00  0.00    -0.319 A  
HETATM   16  C   UNL     1     -11.191   9.174  70.705  1.00  0.00    -0.270 C  
HETATM   17  N   UNL     1     -12.007   8.613  71.308  1.00  0.00    -0.289 NA 
HETATM   18  C   UNL     1      -7.842  10.392  69.583  1.00  0.00    -0.138 A  
HETATM   19  C   UNL     1     -10.554  10.805  68.997  1.00  0.00    -0.250 A  
HETATM   20  C   UNL     1      -9.575  11.556  68.352  1.00  0.00    -0.195 A  
HETATM   21  C   UNL     1      -8.826   9.657  70.247  1.00  0.00    -0.253 A  
ENDBRANCH  12  14
ENDBRANCH  10  12
ENDBRANCH   8  10
ENDBRANCH   5   8
BRANCH   7  22
HETATM   22  C   UNL     1     -10.811  14.708  66.562  1.00  0.00    -0.315 A  
HETATM   23  N   UNL     1      -9.926  14.109  65.788  1.00  0.00    -0.376 NA 
HETATM   24  N   UNL     1     -12.086  14.305  66.246  1.00  0.00    -0.424 NA 
HETATM   25  C   UNL     1     -10.650  13.305  64.951  1.00  0.00    -0.366 A  
HETATM   26  H   UNL     1      -8.912  14.222  65.809  1.00  0.00     0.000 HD 
HETATM   27  C   UNL     1     -12.012  13.415  65.207  1.00  0.00    -0.380 A  
HETATM   28  C   UNL     1     -10.203  12.447  63.936  1.00  0.00    -0.409 A  
HETATM   29  C   UNL     1     -12.981  12.713  64.488  1.00  0.00    -0.236 A  
HETATM   30  C   UNL     1     -12.517  11.857  63.481  1.00  0.00    -0.609 A  
HETATM   31  C   UNL     1     -11.153  11.723  63.208  1.00  0.00    -0.370 A  
ENDBRANCH   7  22
TORSDOF 5
ENDMDL
MODEL       91
REMARK 921   NORMALIZED FREE ENERGY PREDICTED BY IDOCK:   -5.76 KCAL/MOL
REMARK 922        TOTAL FREE ENERGY PREDICTED BY IDOCK:   -8.21 KCAL/MOL
REMARK 923 INTER-LIGAND FREE ENERGY PREDICTED BY IDOCK:   -7.69 KCAL/MOL
REMARK 924 INTRA-LIGAND FREE ENERGY PREDICTED BY IDOCK:   -0.53 KCAL/MOL
REMARK 927      BINDING AFFINITY PREDICTED BY RF-SCORE:    0.00 PKD
ROOT
HETATM    1  C   UNL     1      -8.259   5.298  68.069  1.00  0.00    -0.098 C  
HETATM    2  N   UNL     1      -8.873   6.396  68.831  1.00  0.00    -0.125 NA 
HETATM    3  C   UNL     1      -8.079   7.629  68.700  1.00  0.00    -0.127 C  
HETATM    4  C   UNL     1      -8.165   8.311  67.339  1.00  0.00    -0.121 C  
HETATM    5  C   UNL     1      -9.617   8.507  66.883  1.00  0.00    -0.197 C  
HETATM    6  C   UNL     1     -10.427   7.210  67.015  1.00  0.00    -0.392 C  
HETATM    7  C   UNL     1     -10.287   6.599  68.418  1.00  0.00    -0.193 C  
ENDROOT
BRANCH   5   8
HETATM    8  N   UNL     1      -9.679   9.075  65.534  1.00  0.00    -0.461 N  
HETATM    9  H   UNL     1      -9.749   8.455  64.727  1.00  0.00     0.000 HD 
BRANCH   8  10
HETATM   10  C   UNL     1      -9.642  10.434  65.345  1.00  0.00    -0.246 C  
HETATM   11  O   UNL     1      -8.605  11.089  65.364  1.00  0.00    -0.158 OA 
BRANCH  10  12
HETATM   12  N   UNL     1     -10.910  10.977  65.235  1.00  0.00    -0.162 N  
HETATM   13  H   UNL     1     -11.548  10.690  64.492  1.00  0.00     0.000 HD 
BRANCH  12  14
HETATM   14  C   UNL     1     -11.282  11.943  66.193  1.00  0.00    -0.333 A  
HETATM   15  C   UNL     1     -11.574  13.873  68.182  1.00  0.00    -0.370 A  
HETATM   16  C   UNL     1     -11.620  14.863  69.215  1.00  0.00    -0.306 C  
HETATM   17  N   UNL     1     -11.649  15.663  70.054  1.00  0.00    -0.321 NA 
HETATM   18  C   UNL     1     -11.531  11.542  67.505  1.00  0.00    -0.355 A  
HETATM   19  C   UNL     1     -11.409  14.268  66.851  1.00  0.00    -0.354 A  
HETATM   20  C   UNL     1     -11.266  13.302  65.859  1.00  0.00    -0.309 A  
HETATM   21  C   UNL     1     -11.652  12.512  68.503  1.00  0.00    -0.364 A  
ENDBRANCH  12  14
ENDBRANCH  10  12
ENDBRANCH   8  10
ENDBRANCH   5   8
BRANCH   7  22
HETATM   22  C   UNL     1     -11.061   7.421  69.422  1.00  0.00    -0.029 A  
HETATM   23  N   UNL     1     -11.983   6.982  70.256  1.00  0.00    -0.597 NA 
HETATM   24  N   UNL     1     -10.870   8.774  69.576  1.00  0.00    -0.190 NA 
HETATM   25  C   UNL     1     -12.400   8.078  70.961  1.00  0.00    -0.150 A  
HETATM   26  H   UNL     1     -12.317   6.023  70.356  1.00  0.00     0.000 HD 
HETATM   27  C   UNL     1     -11.726   9.223  70.548  1.00  0.00    -0.176 A  
HETATM   28  C   UNL     1     -13.361   8.170  71.977  1.00  0.00    -0.309 A  
HETATM   29  C   UNL     1     -11.966  10.486  71.091  1.00  0.00    -0.435 A  
HETATM   30  C   UNL     1     -12.927  10.558  72.108  1.00  0.00    -0.366 A  
HETATM   31  C   UNL     1     -13.613   9.422  72.546  1.00  0.00    -0.441 A  
ENDBRANCH   7  22
TORSDOF 5
ENDMDL
MODEL       92
REMARK 921   NORMALIZED FREE ENERGY PREDICTED BY IDOCK:   -5.72 KCAL/MOL
REMARK 922        TOTAL FREE ENERGY PREDICTED BY IDOCK:   -8.17 KCAL/MOL
REMARK 923 INTER-LIGAND FREE ENERGY PREDICTED BY IDOCK:   -7.00 KCAL/MOL
REMARK 924 INTRA-LIGAND FREE ENERGY PREDICTED BY IDOCK:   -1.17 KCAL/MOL
REMARK 927      BINDING AFFINITY PREDICTED BY RF-SCORE:    0.00 PKD
ROOT
HETATM    1  C   UNL     1     -12.837  14.825  70.470  1.00  0.00    -0.322 C  
HETATM    2  N   UNL     1     -12.405  14.580  69.085  1.00  0.00    -0.190 NA 
HETATM    3  C   UNL     1     -11.709  15.758  68.540  1.00  0.00    -0.319 C  
HETATM    4  C   UNL     1     -10.312  15.999  69.102  1.00  0.00    -0.247 C  
HETATM    5  C   UNL     1      -9.442  14.735  69.050  1.00  0.00    -0.167 C  
HETATM    6  C   UNL     1     -10.179  13.522  69.632  1.00  0.00     0.758 C  
HETATM    7  C   UNL     1     -11.571  13.353  69.003  1.00  0.00    -0.312 C  
ENDROOT
BRANCH   5   8
HETATM    8  N   UNL     1      -8.140  14.961  69.680  1.00  0.00    -0.417 N  
HETATM    9  H   UNL     1      -8.081  15.070  70.692  1.00  0.00     0.000 HD 
BRANCH   8  10
HETATM   10  C   UNL     1      -6.997  15.025  68.922  1.00  0.00    -0.114 C  
HETATM   11  O   UNL     1      -6.455  14.039  68.436  1.00  0.00    -0.086 OA 
BRANCH  10  12
HETATM   12  N   UNL     1      -6.487  16.310  68.860  1.00  0.00    -0.133 N  
HETATM   13  H   UNL     1      -5.640  16.571  69.366  1.00  0.00     0.000 HD 
BRANCH  12  14
HETATM   14  C   UNL     1      -7.189  17.243  68.068  1.00  0.00    -0.190 A  
HETATM   15  C   UNL     1      -8.948  18.898  66.678  1.00  0.00    -0.329 A  
HETATM   16  C   UNL     1      -9.930  19.699  66.012  1.00  0.00    -0.422 C  
HETATM   17  N   UNL     1     -10.732  20.342  65.476  1.00  0.00    -0.170 NA 
HETATM   18  C   UNL     1      -7.614  16.873  66.793  1.00  0.00    -0.280 A  
HETATM   19  C   UNL     1      -8.450  19.303  67.919  1.00  0.00    -0.343 A  
HETATM   20  C   UNL     1      -7.569  18.475  68.611  1.00  0.00    -0.330 A  
HETATM   21  C   UNL     1      -8.516  17.693  66.110  1.00  0.00    -0.167 A  
ENDBRANCH  12  14
ENDBRANCH  10  12
ENDBRANCH   8  10
ENDBRANCH   5   8
BRANCH   7  22
HETATM   22  C   UNL     1     -11.441  12.847  67.585  1.00  0.00    -0.334 A  
HETATM   23  N   UNL     1     -10.439  12.148  67.086  1.00  0.00    -0.217 NA 
HETATM   24  N   UNL     1     -12.402  13.072  66.627  1.00  0.00    -0.375 NA 
HETATM   25  C   UNL     1     -10.760  11.923  65.775  1.00  0.00    -0.284 A  
HETATM   26  H   UNL     1      -9.599  11.840  67.576  1.00  0.00     0.000 HD 
HETATM   27  C   UNL     1     -11.983  12.501  65.454  1.00  0.00    -0.437 A  
HETATM   28  C   UNL     1     -10.044  11.226  64.792  1.00  0.00    -0.338 A  
HETATM   29  C   UNL     1     -12.545  12.436  64.177  1.00  0.00    -0.498 A  
HETATM   30  C   UNL     1     -11.818  11.732  63.208  1.00  0.00    -0.342 A  
HETATM   31  C   UNL     1     -10.590  11.136  63.507  1.00  0.00    -0.393 A  
ENDBRANCH   7  22
TORSDOF 5
ENDMDL
MODEL       93
REMARK 921   NORMALIZED FREE ENERGY PREDICTED BY IDOCK:   -5.71 KCAL/MOL
REMARK 922        TOTAL FREE ENERGY PREDICTED BY IDOCK:   -8.15 KCAL/MOL
REMARK 923 INTER-LIGAND FREE ENERGY PREDICTED BY IDOCK:   -7.13 KCAL/MOL
REMARK 924 INTRA-LIGAND FREE ENERGY PREDICTED BY IDOCK:   -1.02 KCAL/MOL
REMARK 927      BINDING AFFINITY PREDICTED BY RF-SCORE:    0.00 PKD
ROOT
HETATM    1  C   UNL     1     -12.640  12.358  63.352  1.00  0.00    -0.366 C  
HETATM    2  N   UNL     1     -11.843  11.813  64.461  1.00  0.00    -0.212 NA 
HETATM    3  C   UNL     1     -10.405  12.019  64.221  1.00  0.00    -0.322 C  
HETATM    4  C   UNL     1      -9.924  13.458  64.372  1.00  0.00     0.038 C  
HETATM    5  C   UNL     1     -10.386  14.085  65.695  1.00  0.00    -0.329 C  
HETATM    6  C   UNL     1     -11.888  13.871  65.924  1.00  0.00    -0.399 C  
HETATM    7  C   UNL     1     -12.278  12.394  65.758  1.00  0.00    -0.203 C  
ENDROOT
BRANCH   5   8
HETATM    8  N   UNL     1      -9.998  15.494  65.779  1.00  0.00    -0.335 N  
HETATM    9  H   UNL     1     -10.254  16.135  65.028  1.00  0.00     0.000 HD 
BRANCH   8  10
HETATM   10  C   UNL     1      -9.291  15.962  66.859  1.00  0.00    -0.225 C  
HETATM   11  O   UNL     1      -8.120  15.670  67.075  1.00  0.00    -0.199 OA 
BRANCH  10  12
HETATM   12  N   UNL     1     -10.083  16.708  67.714  1.00  0.00    -0.266 N  
HETATM   13  H   UNL     1     -10.202  17.714  67.587  1.00  0.00     0.000 HD 
BRANCH  12  14
HETATM   14  C   UNL     1     -10.719  16.019  68.768  1.00  0.00    -0.282 A  
HETATM   15  C   UNL     1     -12.046  15.071  71.027  1.00  0.00    -0.381 A  
HETATM   16  C   UNL     1     -12.741  14.683  72.218  1.00  0.00    -0.335 C  
HETATM   17  N   UNL     1     -13.302  14.378  73.185  1.00  0.00    -0.612 NA 
HETATM   18  C   UNL     1      -9.982  15.674  69.900  1.00  0.00    -0.235 A  
HETATM   19  C   UNL     1     -12.767  15.338  69.861  1.00  0.00    -0.130 A  
HETATM   20  C   UNL     1     -12.102  15.809  68.733  1.00  0.00    -0.087 A  
HETATM   21  C   UNL     1     -10.654  15.223  71.039  1.00  0.00     0.089 A  
ENDBRANCH  12  14
ENDBRANCH  10  12
ENDBRANCH   8  10
ENDBRANCH   5   8
BRANCH   7  22
HETATM   22  C   UNL     1     -11.780  11.590  66.937  1.00  0.00     0.050 A  
HETATM   23  N   UNL     1     -10.922  10.588  66.902  1.00  0.00    -0.188 NA 
HETATM   24  N   UNL     1     -12.188  11.836  68.227  1.00  0.00    -0.408 NA 
HETATM   25  C   UNL     1     -10.778  10.176  68.199  1.00  0.00    -0.244 A  
HETATM   26  H   UNL     1     -10.461  10.201  66.078  1.00  0.00     0.000 HD 
HETATM   27  C   UNL     1     -11.570  10.934  69.054  1.00  0.00    -0.316 A  
HETATM   28  C   UNL     1      -9.981   9.149  68.722  1.00  0.00    -0.188 A  
HETATM   29  C   UNL     1     -11.627  10.718  70.432  1.00  0.00    -0.431 A  
HETATM   30  C   UNL     1     -10.821   9.690  70.938  1.00  0.00    -0.409 A  
HETATM   31  C   UNL     1     -10.010   8.919  70.101  1.00  0.00    -0.207 A  
ENDBRANCH   7  22
TORSDOF 5
ENDMDL
MODEL       94
REMARK 921   NORMALIZED FREE ENERGY PREDICTED BY IDOCK:   -5.69 KCAL/MOL
REMARK 922        TOTAL FREE ENERGY PREDICTED BY IDOCK:   -8.12 KCAL/MOL
REMARK 923 INTER-LIGAND FREE ENERGY PREDICTED BY IDOCK:   -7.59 KCAL/MOL
REMARK 924 INTRA-LIGAND FREE ENERGY PREDICTED BY IDOCK:   -0.54 KCAL/MOL
REMARK 927      BINDING AFFINITY PREDICTED BY RF-SCORE:    0.00 PKD
ROOT
HETATM    1  C   UNL     1     -11.938   6.959  71.430  1.00  0.00    -0.349 C  
HETATM    2  N   UNL     1     -11.807   8.395  71.718  1.00  0.00    -0.295 NA 
HETATM    3  C   UNL     1     -10.557   8.669  72.447  1.00  0.00    -0.239 C  
HETATM    4  C   UNL     1      -9.286   8.557  71.613  1.00  0.00    -0.304 C  
HETATM    5  C   UNL     1      -9.381   9.356  70.305  1.00  0.00    -0.252 C  
HETATM    6  C   UNL     1     -10.683   9.050  69.553  1.00  0.00    -0.215 C  
HETATM    7  C   UNL     1     -11.909   9.195  70.469  1.00  0.00    -0.095 C  
ENDROOT
BRANCH   5   8
HETATM    8  N   UNL     1      -8.191   9.159  69.474  1.00  0.00    -0.114 N  
HETATM    9  H   UNL     1      -7.318   9.625  69.723  1.00  0.00     0.000 HD 
BRANCH   8  10
HETATM   10  C   UNL     1      -8.238   8.353  68.364  1.00  0.00    -0.124 C  
HETATM   11  O   UNL     1      -8.406   8.782  67.227  1.00  0.00    -0.104 OA 
BRANCH  10  12
HETATM   12  N   UNL     1      -8.176   7.011  68.694  1.00  0.00    -0.121 N  
HETATM   13  H   UNL     1      -7.718   6.694  69.548  1.00  0.00     0.000 HD 
BRANCH  12  14
HETATM   14  C   UNL     1      -8.774   6.100  67.797  1.00  0.00    -0.112 A  
HETATM   15  C   UNL     1      -9.959   4.648  65.735  1.00  0.00    -0.246 A  
HETATM   16  C   UNL     1     -10.561   3.988  64.616  1.00  0.00    -0.168 C  
HETATM   17  N   UNL     1     -11.050   3.462  63.706  1.00  0.00    -0.266 NA 
HETATM   18  C   UNL     1     -10.164   6.035  67.716  1.00  0.00    -0.219 A  
HETATM   19  C   UNL     1      -8.569   4.647  65.874  1.00  0.00    -0.117 A  
HETATM   20  C   UNL     1      -7.979   5.372  66.906  1.00  0.00    -0.101 A  
HETATM   21  C   UNL     1     -10.754   5.328  66.667  1.00  0.00    -0.274 A  
ENDBRANCH  12  14
ENDBRANCH  10  12
ENDBRANCH   8  10
ENDBRANCH   5   8
BRANCH   7  22
HETATM   22  C   UNL     1     -12.178  10.655  70.749  1.00  0.00    -0.375 A  
HETATM   23  N   UNL     1     -11.672  11.687  70.101  1.00  0.00    -0.458 NA 
HETATM   24  N   UNL     1     -13.018  11.075  71.753  1.00  0.00    -0.468 NA 
HETATM   25  C   UNL     1     -12.196  12.798  70.705  1.00  0.00    -0.248 A  
HETATM   26  H   UNL     1     -11.025  11.663  69.312  1.00  0.00     0.000 HD 
HETATM   27  C   UNL     1     -13.037  12.445  71.755  1.00  0.00    -0.342 A  
HETATM   28  C   UNL     1     -11.992  14.152  70.407  1.00  0.00    -0.400 A  
HETATM   29  C   UNL     1     -13.695  13.383  72.552  1.00  0.00    -0.636 A  
HETATM   30  C   UNL     1     -13.483  14.732  72.237  1.00  0.00    -0.510 A  
HETATM   31  C   UNL     1     -12.648  15.113  71.183  1.00  0.00    -0.433 A  
ENDBRANCH   7  22
TORSDOF 5
ENDMDL
MODEL       95
REMARK 921   NORMALIZED FREE ENERGY PREDICTED BY IDOCK:   -5.68 KCAL/MOL
REMARK 922        TOTAL FREE ENERGY PREDICTED BY IDOCK:   -8.11 KCAL/MOL
REMARK 923 INTER-LIGAND FREE ENERGY PREDICTED BY IDOCK:   -7.21 KCAL/MOL
REMARK 924 INTRA-LIGAND FREE ENERGY PREDICTED BY IDOCK:   -0.90 KCAL/MOL
REMARK 927      BINDING AFFINITY PREDICTED BY RF-SCORE:    0.00 PKD
ROOT
HETATM    1  C   UNL     1     -11.014  16.167  70.127  1.00  0.00    -0.358 C  
HETATM    2  N   UNL     1     -11.203  15.750  68.729  1.00  0.00    -0.320 NA 
HETATM    3  C   UNL     1     -11.284  16.922  67.841  1.00  0.00    -0.031 C  
HETATM    4  C   UNL     1      -9.964  17.651  67.613  1.00  0.00    -0.323 C  
HETATM    5  C   UNL     1      -8.838  16.691  67.205  1.00  0.00    -0.192 C  
HETATM    6  C   UNL     1      -8.761  15.482  68.147  1.00  0.00    -0.164 C  
HETATM    7  C   UNL     1     -10.132  14.808  68.310  1.00  0.00    -0.221 C  
ENDROOT
BRANCH   5   8
HETATM    8  N   UNL     1      -7.558  17.394  67.084  1.00  0.00    -0.192 N  
HETATM    9  H   UNL     1      -7.147  17.540  66.163  1.00  0.00     0.000 HD 
BRANCH   8  10
HETATM   10  C   UNL     1      -6.907  17.857  68.200  1.00  0.00    -0.209 C  
HETATM   11  O   UNL     1      -7.388  18.685  68.966  1.00  0.00    -0.292 OA 
BRANCH  10  12
HETATM   12  N   UNL     1      -5.621  17.357  68.295  1.00  0.00    -0.143 N  
HETATM   13  H   UNL     1      -4.815  17.896  67.976  1.00  0.00     0.000 HD 
BRANCH  12  14
HETATM   14  C   UNL     1      -5.470  16.069  68.852  1.00  0.00    -0.108 A  
HETATM   15  C   UNL     1      -5.614  13.474  69.857  1.00  0.00    -0.108 A  
HETATM   16  C   UNL     1      -5.788  12.139  70.344  1.00  0.00    -0.154 C  
HETATM   17  N   UNL     1      -5.939  11.059  70.738  1.00  0.00    -0.334 NA 
HETATM   18  C   UNL     1      -5.754  15.872  70.203  1.00  0.00    -0.166 A  
HETATM   19  C   UNL     1      -5.246  13.683  68.525  1.00  0.00    -0.089 A  
HETATM   20  C   UNL     1      -5.173  14.980  68.026  1.00  0.00    -0.119 A  
HETATM   21  C   UNL     1      -5.850  14.569  70.697  1.00  0.00    -0.179 A  
ENDBRANCH  12  14
ENDBRANCH  10  12
ENDBRANCH   8  10
ENDBRANCH   5   8
BRANCH   7  22
HETATM   22  C   UNL     1     -10.496  14.057  67.050  1.00  0.00    -0.275 A  
HETATM   23  N   UNL     1      -9.657  13.541  66.171  1.00  0.00    -0.429 NA 
HETATM   24  N   UNL     1     -11.797  13.823  66.676  1.00  0.00    -0.388 NA 
HETATM   25  C   UNL     1     -10.438  12.966  65.206  1.00  0.00    -0.296 A  
HETATM   26  H   UNL     1      -8.638  13.566  66.204  1.00  0.00     0.000 HD 
HETATM   27  C   UNL     1     -11.789  13.136  65.490  1.00  0.00    -0.380 A  
HETATM   28  C   UNL     1     -10.057  12.276  64.048  1.00  0.00    -0.351 A  
HETATM   29  C   UNL     1     -12.807  12.659  64.663  1.00  0.00    -0.361 A  
HETATM   30  C   UNL     1     -12.408  11.969  63.512  1.00  0.00    -0.661 A  
HETATM   31  C   UNL     1     -11.057  11.777  63.207  1.00  0.00    -0.370 A  
ENDBRANCH   7  22
TORSDOF 5
ENDMDL
MODEL       96
REMARK 921   NORMALIZED FREE ENERGY PREDICTED BY IDOCK:   -5.67 KCAL/MOL
REMARK 922        TOTAL FREE ENERGY PREDICTED BY IDOCK:   -8.10 KCAL/MOL
REMARK 923 INTER-LIGAND FREE ENERGY PREDICTED BY IDOCK:   -7.80 KCAL/MOL
REMARK 924 INTRA-LIGAND FREE ENERGY PREDICTED BY IDOCK:   -0.29 KCAL/MOL
REMARK 927      BINDING AFFINITY PREDICTED BY RF-SCORE:    0.00 PKD
ROOT
HETATM    1  C   UNL     1     -13.164   8.261  70.958  1.00  0.00     0.121 C  
HETATM    2  N   UNL     1     -12.557   9.549  71.328  1.00  0.00    -0.329 NA 
HETATM    3  C   UNL     1     -11.147   9.369  71.711  1.00  0.00    -0.255 C  
HETATM    4  C   UNL     1     -10.197   9.071  70.556  1.00  0.00    -0.268 C  
HETATM    5  C   UNL     1     -10.362  10.069  69.402  1.00  0.00    -0.227 C  
HETATM    6  C   UNL     1     -11.836  10.235  69.008  1.00  0.00     0.005 C  
HETATM    7  C   UNL     1     -12.714  10.540  70.232  1.00  0.00    -0.188 C  
ENDROOT
BRANCH   5   8
HETATM    8  N   UNL     1      -9.511   9.711  68.264  1.00  0.00    -0.136 N  
HETATM    9  H   UNL     1      -8.498   9.791  68.346  1.00  0.00     0.000 HD 
BRANCH   8  10
HETATM   10  C   UNL     1     -10.065   9.270  67.088  1.00  0.00    -0.236 C  
HETATM   11  O   UNL     1     -10.961   8.434  67.038  1.00  0.00    -0.115 OA 
BRANCH  10  12
HETATM   12  N   UNL     1      -9.428   9.803  65.982  1.00  0.00    -0.193 N  
HETATM   13  H   UNL     1      -8.603   9.358  65.578  1.00  0.00     0.000 HD 
BRANCH  12  14
HETATM   14  C   UNL     1      -9.967  10.987  65.437  1.00  0.00    -0.260 A  
HETATM   15  C   UNL     1     -11.432  13.166  64.504  1.00  0.00    -0.390 A  
HETATM   16  C   UNL     1     -12.270  14.240  64.064  1.00  0.00    -0.299 C  
HETATM   17  N   UNL     1     -12.956  15.105  63.709  1.00  0.00    -0.167 NA 
HETATM   18  C   UNL     1     -10.451  10.978  64.129  1.00  0.00    -0.434 A  
HETATM   19  C   UNL     1     -10.871  13.204  65.783  1.00  0.00    -0.289 A  
HETATM   20  C   UNL     1     -10.138  12.115  66.246  1.00  0.00    -0.247 A  
HETATM   21  C   UNL     1     -11.206  12.061  63.674  1.00  0.00    -0.528 A  
ENDBRANCH  12  14
ENDBRANCH  10  12
ENDBRANCH   8  10
ENDBRANCH   5   8
BRANCH   7  22
HETATM   22  C   UNL     1     -12.473  11.954  70.705  1.00  0.00    -0.257 A  
HETATM   23  N   UNL     1     -11.688  12.851  70.139  1.00  0.00    -0.530 NA 
HETATM   24  N   UNL     1     -13.078  12.475  71.824  1.00  0.00    -0.397 NA 
HETATM   25  C   UNL     1     -11.786  13.974  70.915  1.00  0.00    -0.173 A  
HETATM   26  H   UNL     1     -11.123  12.732  69.297  1.00  0.00     0.000 HD 
HETATM   27  C   UNL     1     -12.645  13.764  71.989  1.00  0.00    -0.146 A  
HETATM   28  C   UNL     1     -11.162  15.219  70.761  1.00  0.00    -0.353 A  
HETATM   29  C   UNL     1     -12.917  14.741  72.948  1.00  0.00    -0.583 A  
HETATM   30  C   UNL     1     -12.288  15.981  72.776  1.00  0.00    -0.603 A  
HETATM   31  C   UNL     1     -11.426  16.220  71.702  1.00  0.00    -0.324 A  
ENDBRANCH   7  22
TORSDOF 5
ENDMDL
MODEL       97
REMARK 921   NORMALIZED FREE ENERGY PREDICTED BY IDOCK:   -5.64 KCAL/MOL
REMARK 922        TOTAL FREE ENERGY PREDICTED BY IDOCK:   -8.06 KCAL/MOL
REMARK 923 INTER-LIGAND FREE ENERGY PREDICTED BY IDOCK:   -7.34 KCAL/MOL
REMARK 924 INTRA-LIGAND FREE ENERGY PREDICTED BY IDOCK:   -0.72 KCAL/MOL
REMARK 927      BINDING AFFINITY PREDICTED BY RF-SCORE:    0.00 PKD
ROOT
HETATM    1  C   UNL     1      -9.445  18.931  67.504  1.00  0.00    -0.302 C  
HETATM    2  N   UNL     1      -9.055  17.777  68.329  1.00  0.00    -0.274 NA 
HETATM    3  C   UNL     1     -10.230  17.197  69.002  1.00  0.00    -0.315 C  
HETATM    4  C   UNL     1     -11.181  16.428  68.091  1.00  0.00    -0.273 C  
HETATM    5  C   UNL     1     -10.444  15.399  67.223  1.00  0.00    -0.282 C  
HETATM    6  C   UNL     1      -9.230  16.023  66.521  1.00  0.00    -0.307 C  
HETATM    7  C   UNL     1      -8.326  16.769  67.515  1.00  0.00    -0.188 C  
ENDROOT
BRANCH   5   8
HETATM    8  N   UNL     1     -11.358  14.739  66.288  1.00  0.00    -0.345 N  
HETATM    9  H   UNL     1     -11.517  15.144  65.366  1.00  0.00     0.000 HD 
BRANCH   8  10
HETATM   10  C   UNL     1     -12.005  13.582  66.643  1.00  0.00    -0.404 C  
HETATM   11  O   UNL     1     -12.245  13.273  67.805  1.00  0.00    -0.287 OA 
BRANCH  10  12
HETATM   12  N   UNL     1     -12.258  12.773  65.549  1.00  0.00    -0.465 N  
HETATM   13  H   UNL     1     -13.185  12.725  65.125  1.00  0.00     0.000 HD 
BRANCH  12  14
HETATM   14  C   UNL     1     -11.179  12.016  65.045  1.00  0.00    -0.320 A  
HETATM   15  C   UNL     1      -9.365  10.219  63.930  1.00  0.00    -0.337 A  
HETATM   16  C   UNL     1      -8.514   9.236  63.331  1.00  0.00    -0.202 C  
HETATM   17  N   UNL     1      -7.832   8.433  62.846  1.00  0.00    -0.141 NA 
HETATM   18  C   UNL     1     -10.586  11.049  65.856  1.00  0.00    -0.270 A  
HETATM   19  C   UNL     1      -9.897  11.245  63.144  1.00  0.00    -0.403 A  
HETATM   20  C   UNL     1     -10.802  12.142  63.704  1.00  0.00    -0.523 A  
HETATM   21  C   UNL     1      -9.697  10.134  65.288  1.00  0.00    -0.365 A  
ENDBRANCH  12  14
ENDBRANCH  10  12
ENDBRANCH   8  10
ENDBRANCH   5   8
BRANCH   7  22
HETATM   22  C   UNL     1      -7.573  15.780  68.375  1.00  0.00    -0.130 A  
HETATM   23  N   UNL     1      -6.892  16.050  69.471  1.00  0.00    -0.203 NA 
HETATM   24  N   UNL     1      -7.523  14.437  68.088  1.00  0.00    -0.115 NA 
HETATM   25  C   UNL     1      -6.386  14.852  69.898  1.00  0.00    -0.157 A  
HETATM   26  H   UNL     1      -6.767  16.962  69.911  1.00  0.00     0.000 HD 
HETATM   27  C   UNL     1      -6.757  13.820  69.042  1.00  0.00    -0.111 A  
HETATM   28  C   UNL     1      -5.593  14.570  71.019  1.00  0.00    -0.168 A  
HETATM   29  C   UNL     1      -6.366  12.494  69.234  1.00  0.00    -0.110 A  
HETATM   30  C   UNL     1      -5.577  12.230  70.361  1.00  0.00    -0.162 A  
HETATM   31  C   UNL     1      -5.197  13.247  71.241  1.00  0.00    -0.184 A  
ENDBRANCH   7  22
TORSDOF 5
ENDMDL
MODEL       98
REMARK 921   NORMALIZED FREE ENERGY PREDICTED BY IDOCK:   -5.63 KCAL/MOL
REMARK 922        TOTAL FREE ENERGY PREDICTED BY IDOCK:   -8.05 KCAL/MOL
REMARK 923 INTER-LIGAND FREE ENERGY PREDICTED BY IDOCK:   -7.11 KCAL/MOL
REMARK 924 INTRA-LIGAND FREE ENERGY PREDICTED BY IDOCK:   -0.94 KCAL/MOL
REMARK 927      BINDING AFFINITY PREDICTED BY RF-SCORE:    0.00 PKD
ROOT
HETATM    1  C   UNL     1      -8.890   9.845  69.562  1.00  0.00    -0.197 C  
HETATM    2  N   UNL     1      -9.415   8.914  68.551  1.00  0.00    -0.147 NA 
HETATM    3  C   UNL     1     -10.661   9.432  67.962  1.00  0.00    -0.226 C  
HETATM    4  C   UNL     1     -10.484  10.613  67.014  1.00  0.00    -0.295 C  
HETATM    5  C   UNL     1      -9.409  10.345  65.952  1.00  0.00    -0.182 C  
HETATM    6  C   UNL     1      -8.114   9.817  66.584  1.00  0.00    -0.116 C  
HETATM    7  C   UNL     1      -8.388   8.626  67.516  1.00  0.00    -0.120 C  
ENDROOT
BRANCH   5   8
HETATM    8  N   UNL     1      -9.186  11.524  65.112  1.00  0.00    -0.398 N  
HETATM    9  H   UNL     1      -8.351  12.092  65.250  1.00  0.00     0.000 HD 
BRANCH   8  10
HETATM   10  C   UNL     1     -10.091  11.871  64.140  1.00  0.00    -0.310 C  
HETATM   11  O   UNL     1     -10.658  11.053  63.424  1.00  0.00    -0.338 OA 
BRANCH  10  12
HETATM   12  N   UNL     1     -10.206  13.243  64.004  1.00  0.00    -0.614 N  
HETATM   13  H   UNL     1      -9.987  13.711  63.125  1.00  0.00     0.000 HD 
BRANCH  12  14
HETATM   14  C   UNL     1     -10.640  13.967  65.135  1.00  0.00    -0.386 A  
HETATM   15  C   UNL     1     -11.290  15.074  67.608  1.00  0.00    -0.342 A  
HETATM   16  C   UNL     1     -11.570  15.565  68.924  1.00  0.00    -0.373 C  
HETATM   17  N   UNL     1     -11.794  15.954  69.993  1.00  0.00    -0.336 NA 
HETATM   18  C   UNL     1     -11.846  13.623  65.744  1.00  0.00    -0.397 A  
HETATM   19  C   UNL     1     -10.124  15.479  66.952  1.00  0.00    -0.263 A  
HETATM   20  C   UNL     1      -9.803  14.926  65.715  1.00  0.00    -0.380 A  
HETATM   21  C   UNL     1     -12.156  14.160  66.995  1.00  0.00    -0.449 A  
ENDBRANCH  12  14
ENDBRANCH  10  12
ENDBRANCH   8  10
ENDBRANCH   5   8
BRANCH   7  22
HETATM   22  C   UNL     1      -8.728   7.398  66.703  1.00  0.00    -0.135 A  
HETATM   23  N   UNL     1      -9.607   6.466  67.015  1.00  0.00    -0.136 NA 
HETATM   24  N   UNL     1      -8.129   7.118  65.498  1.00  0.00    -0.129 NA 
HETATM   25  C   UNL     1      -9.570   5.561  65.989  1.00  0.00    -0.107 A  
HETATM   26  H   UNL     1     -10.194   6.426  67.849  1.00  0.00     0.000 HD 
HETATM   27  C   UNL     1      -8.641   5.939  65.025  1.00  0.00    -0.062 A  
HETATM   28  C   UNL     1     -10.307   4.382  65.815  1.00  0.00    -0.246 A  
HETATM   29  C   UNL     1      -8.389   5.188  63.875  1.00  0.00    -0.131 A  
HETATM   30  C   UNL     1      -9.138   4.015  63.715  1.00  0.00    -0.132 A  
HETATM   31  C   UNL     1     -10.083   3.617  64.666  1.00  0.00    -0.162 A  
ENDBRANCH   7  22
TORSDOF 5
ENDMDL
MODEL       99
REMARK 921   NORMALIZED FREE ENERGY PREDICTED BY IDOCK:   -5.59 KCAL/MOL
REMARK 922        TOTAL FREE ENERGY PREDICTED BY IDOCK:   -7.99 KCAL/MOL
REMARK 923 INTER-LIGAND FREE ENERGY PREDICTED BY IDOCK:   -7.47 KCAL/MOL
REMARK 924 INTRA-LIGAND FREE ENERGY PREDICTED BY IDOCK:   -0.52 KCAL/MOL
REMARK 927      BINDING AFFINITY PREDICTED BY RF-SCORE:    0.00 PKD
ROOT
HETATM    1  C   UNL     1     -11.290  11.822  66.098  1.00  0.00    -0.280 C  
HETATM    2  N   UNL     1     -10.923  10.693  66.967  1.00  0.00    -0.248 NA 
HETATM    3  C   UNL     1      -9.554  10.235  66.676  1.00  0.00    -0.175 C  
HETATM    4  C   UNL     1      -8.446  11.168  67.151  1.00  0.00    -0.137 C  
HETATM    5  C   UNL     1      -8.622  11.571  68.622  1.00  0.00    -0.109 C  
HETATM    6  C   UNL     1     -10.050  12.057  68.904  1.00  0.00    -0.033 C  
HETATM    7  C   UNL     1     -11.096  11.052  68.399  1.00  0.00    -0.251 C  
ENDROOT
BRANCH   5   8
HETATM    8  N   UNL     1      -7.604  12.542  69.032  1.00  0.00    -0.325 N  
HETATM    9  H   UNL     1      -6.878  12.264  69.692  1.00  0.00     0.000 HD 
BRANCH   8  10
HETATM   10  C   UNL     1      -7.619  13.822  68.536  1.00  0.00    -0.134 C  
HETATM   11  O   UNL     1      -7.036  14.154  67.510  1.00  0.00    -0.180 OA 
BRANCH  10  12
HETATM   12  N   UNL     1      -8.280  14.697  69.380  1.00  0.00    -0.379 N  
HETATM   13  H   UNL     1      -8.303  14.548  70.389  1.00  0.00     0.000 HD 
BRANCH  12  14
HETATM   14  C   UNL     1      -8.919  15.805  68.785  1.00  0.00    -0.214 A  
HETATM   15  C   UNL     1      -9.899  17.922  67.261  1.00  0.00    -0.309 A  
HETATM   16  C   UNL     1     -10.336  18.983  66.403  1.00  0.00    -0.448 C  
HETATM   17  N   UNL     1     -10.681  19.840  65.703  1.00  0.00    -0.437 NA 
HETATM   18  C   UNL     1      -8.371  17.077  68.947  1.00  0.00    -0.196 A  
HETATM   19  C   UNL     1     -10.499  16.664  67.167  1.00  0.00    -0.300 A  
HETATM   20  C   UNL     1     -10.009  15.609  67.930  1.00  0.00    -0.223 A  
HETATM   21  C   UNL     1      -8.848  18.130  68.163  1.00  0.00    -0.289 A  
ENDBRANCH  12  14
ENDBRANCH  10  12
ENDBRANCH   8  10
ENDBRANCH   5   8
BRANCH   7  22
HETATM   22  C   UNL     1     -11.119   9.833  69.292  1.00  0.00    -0.149 A  
HETATM   23  N   UNL     1     -11.143   8.572  68.904  1.00  0.00    -0.415 NA 
HETATM   24  N   UNL     1     -11.114   9.919  70.664  1.00  0.00    -0.317 NA 
HETATM   25  C   UNL     1     -11.159   7.830  70.053  1.00  0.00    -0.175 A  
HETATM   26  H   UNL     1     -11.148   8.223  67.945  1.00  0.00     0.000 HD 
HETATM   27  C   UNL     1     -11.153   8.649  71.177  1.00  0.00    -0.266 A  
HETATM   28  C   UNL     1     -11.181   6.437  70.212  1.00  0.00    -0.445 A  
HETATM   29  C   UNL     1     -11.180   8.153  72.481  1.00  0.00    -0.459 A  
HETATM   30  C   UNL     1     -11.197   6.759  72.621  1.00  0.00    -0.291 A  
HETATM   31  C   UNL     1     -11.196   5.913  71.509  1.00  0.00    -0.290 A  
ENDBRANCH   7  22
TORSDOF 5
ENDMDL
MODEL      100
REMARK 921   NORMALIZED FREE ENERGY PREDICTED BY IDOCK:   -5.55 KCAL/MOL
REMARK 922        TOTAL FREE ENERGY PREDICTED BY IDOCK:   -7.95 KCAL/MOL
REMARK 923 INTER-LIGAND FREE ENERGY PREDICTED BY IDOCK:   -7.44 KCAL/MOL
REMARK 924 INTRA-LIGAND FREE ENERGY PREDICTED BY IDOCK:   -0.51 KCAL/MOL
REMARK 927      BINDING AFFINITY PREDICTED BY RF-SCORE:    0.00 PKD
ROOT
HETATM    1  C   UNL     1      -9.201   9.439  70.326  1.00  0.00    -0.245 C  
HETATM    2  N   UNL     1      -9.208   9.224  68.871  1.00  0.00    -0.141 NA 
HETATM    3  C   UNL     1     -10.568   9.376  68.328  1.00  0.00    -0.210 C  
HETATM    4  C   UNL     1     -11.087  10.809  68.280  1.00  0.00    -0.327 C  
HETATM    5  C   UNL     1     -10.087  11.764  67.614  1.00  0.00    -0.193 C  
HETATM    6  C   UNL     1      -8.678  11.600  68.199  1.00  0.00    -0.159 C  
HETATM    7  C   UNL     1      -8.237  10.128  68.200  1.00  0.00    -0.113 C  
ENDROOT
BRANCH   5   8
HETATM    8  N   UNL     1     -10.561  13.149  67.663  1.00  0.00    -0.226 N  
HETATM    9  H   UNL     1      -9.952  13.878  68.035  1.00  0.00     0.000 HD 
BRANCH   8  10
HETATM   10  C   UNL     1     -11.816  13.475  67.213  1.00  0.00    -0.385 C  
HETATM   11  O   UNL     1     -12.372  12.893  66.287  1.00  0.00    -0.477 OA 
BRANCH  10  12
HETATM   12  N   UNL     1     -12.324  14.590  67.855  1.00  0.00    -0.599 N  
HETATM   13  H   UNL     1     -12.818  15.321  67.343  1.00  0.00     0.000 HD 
BRANCH  12  14
HETATM   14  C   UNL     1     -12.130  14.672  69.251  1.00  0.00    -0.272 A  
HETATM   15  C   UNL     1     -12.152  15.041  72.013  1.00  0.00    -0.454 A  
HETATM   16  C   UNL     1     -12.258  15.274  73.421  1.00  0.00    -0.482 C  
HETATM   17  N   UNL     1     -12.351  15.468  74.560  1.00  0.00    -0.670 NA 
HETATM   18  C   UNL     1     -11.554  15.820  69.793  1.00  0.00    -0.359 A  
HETATM   19  C   UNL     1     -12.650  13.855  71.467  1.00  0.00    -0.419 A  
HETATM   20  C   UNL     1     -12.636  13.672  70.088  1.00  0.00    -0.215 A  
HETATM   21  C   UNL     1     -11.590  16.013  71.176  1.00  0.00    -0.492 A  
ENDBRANCH  12  14
ENDBRANCH  10  12
ENDBRANCH   8  10
ENDBRANCH   5   8
BRANCH   7  22
HETATM   22  C   UNL     1      -7.922   9.679  66.792  1.00  0.00    -0.105 A  
HETATM   23  N   UNL     1      -7.448  10.428  65.815  1.00  0.00    -0.143 NA 
HETATM   24  N   UNL     1      -8.102   8.384  66.369  1.00  0.00    -0.102 NA 
HETATM   25  C   UNL     1      -7.326   9.596  64.735  1.00  0.00    -0.119 A  
HETATM   26  H   UNL     1      -7.220  11.422  65.854  1.00  0.00     0.000 HD 
HETATM   27  C   UNL     1      -7.740   8.306  65.049  1.00  0.00    -0.105 A  
HETATM   28  C   UNL     1      -6.865   9.879  63.442  1.00  0.00    -0.125 A  
HETATM   29  C   UNL     1      -7.734   7.258  64.128  1.00  0.00    -0.120 A  
HETATM   30  C   UNL     1      -7.267   7.558  62.841  1.00  0.00    -0.086 A  
HETATM   31  C   UNL     1      -6.838   8.844  62.502  1.00  0.00    -0.093 A  
ENDBRANCH   7  22
TORSDOF 5
ENDMDL
MODEL      101
REMARK 921   NORMALIZED FREE ENERGY PREDICTED BY IDOCK:   -5.53 KCAL/MOL
REMARK 922        TOTAL FREE ENERGY PREDICTED BY IDOCK:   -7.92 KCAL/MOL
REMARK 923 INTER-LIGAND FREE ENERGY PREDICTED BY IDOCK:   -7.68 KCAL/MOL
REMARK 924 INTRA-LIGAND FREE ENERGY PREDICTED BY IDOCK:   -0.23 KCAL/MOL
REMARK 927      BINDING AFFINITY PREDICTED BY RF-SCORE:    0.00 PKD
ROOT
HETATM    1  C   UNL     1      -8.538   9.915  70.068  1.00  0.00    -0.167 C  
HETATM    2  N   UNL     1      -8.752  10.754  68.878  1.00  0.00    -0.159 NA 
HETATM    3  C   UNL     1      -7.807  10.391  67.808  1.00  0.00    -0.101 C  
HETATM    4  C   UNL     1      -8.091   9.061  67.119  1.00  0.00    -0.106 C  
HETATM    5  C   UNL     1      -9.553   8.946  66.665  1.00  0.00    -0.219 C  
HETATM    6  C   UNL     1     -10.523   9.316  67.795  1.00  0.00    -0.313 C  
HETATM    7  C   UNL     1     -10.165  10.672  68.423  1.00  0.00    -0.173 C  
ENDROOT
BRANCH   5   8
HETATM    8  N   UNL     1      -9.830   7.627  66.093  1.00  0.00    -0.451 N  
HETATM    9  H   UNL     1      -9.645   7.456  65.105  1.00  0.00     0.000 HD 
BRANCH   8  10
HETATM   10  C   UNL     1     -10.335   6.618  66.874  1.00  0.00    -0.254 C  
HETATM   11  O   UNL     1     -11.493   6.221  66.796  1.00  0.00    -0.103 OA 
BRANCH  10  12
HETATM   12  N   UNL     1      -9.420   6.182  67.815  1.00  0.00    -0.115 N  
HETATM   13  H   UNL     1      -8.421   6.144  67.609  1.00  0.00     0.000 HD 
BRANCH  12  14
HETATM   14  C   UNL     1      -9.926   5.794  69.074  1.00  0.00    -0.169 A  
HETATM   15  C   UNL     1     -10.579   5.265  71.731  1.00  0.00    -0.268 A  
HETATM   16  C   UNL     1     -10.834   5.054  73.124  1.00  0.00    -0.286 C  
HETATM   17  N   UNL     1     -11.031   4.886  74.254  1.00  0.00    -0.269 NA 
HETATM   18  C   UNL     1      -9.419   4.650  69.689  1.00  0.00    -0.232 A  
HETATM   19  C   UNL     1     -11.150   6.363  71.081  1.00  0.00    -0.344 A  
HETATM   20  C   UNL     1     -10.824   6.624  69.753  1.00  0.00    -0.337 A  
HETATM   21  C   UNL     1      -9.729   4.402  71.029  1.00  0.00    -0.260 A  
ENDBRANCH  12  14
ENDBRANCH  10  12
ENDBRANCH   8  10
ENDBRANCH   5   8
BRANCH   7  22
HETATM   22  C   UNL     1     -10.523  11.794  67.477  1.00  0.00    -0.202 A  
HETATM   23  N   UNL     1      -9.811  12.877  67.234  1.00  0.00    -0.215 NA 
HETATM   24  N   UNL     1     -11.682  11.797  66.736  1.00  0.00    -0.571 NA 
HETATM   25  C   UNL     1     -10.530  13.598  66.319  1.00  0.00    -0.291 A  
HETATM   26  H   UNL     1      -8.910  13.127  67.643  1.00  0.00     0.000 HD 
HETATM   27  C   UNL     1     -11.717  12.950  65.995  1.00  0.00    -0.404 A  
HETATM   28  C   UNL     1     -10.226  14.827  65.718  1.00  0.00    -0.359 A  
HETATM   29  C   UNL     1     -12.648  13.470  65.095  1.00  0.00    -0.485 A  
HETATM   30  C   UNL     1     -12.327  14.697  64.500  1.00  0.00    -0.416 A  
HETATM   31  C   UNL     1     -11.137  15.366  64.803  1.00  0.00    -0.416 A  
ENDBRANCH   7  22
TORSDOF 5
ENDMDL
MODEL      102
REMARK 921   NORMALIZED FREE ENERGY PREDICTED BY IDOCK:   -5.51 KCAL/MOL
REMARK 922        TOTAL FREE ENERGY PREDICTED BY IDOCK:   -7.89 KCAL/MOL
REMARK 923 INTER-LIGAND FREE ENERGY PREDICTED BY IDOCK:   -7.40 KCAL/MOL
REMARK 924 INTRA-LIGAND FREE ENERGY PREDICTED BY IDOCK:   -0.49 KCAL/MOL
REMARK 927      BINDING AFFINITY PREDICTED BY RF-SCORE:    0.00 PKD
ROOT
HETATM    1  C   UNL     1      -6.920   9.196  67.862  1.00  0.00    -0.077 C  
HETATM    2  N   UNL     1      -7.844   9.954  67.005  1.00  0.00    -0.102 NA 
HETATM    3  C   UNL     1      -8.155   9.200  65.779  1.00  0.00    -0.112 C  
HETATM    4  C   UNL     1      -9.070   7.996  65.976  1.00  0.00    -0.193 C  
HETATM    5  C   UNL     1     -10.333   8.355  66.772  1.00  0.00    -0.287 C  
HETATM    6  C   UNL     1      -9.990   9.130  68.051  1.00  0.00    -0.213 C  
HETATM    7  C   UNL     1      -9.072  10.327  67.755  1.00  0.00    -0.134 C  
ENDROOT
BRANCH   5   8
HETATM    8  N   UNL     1     -11.152   7.169  67.033  1.00  0.00    -0.608 N  
HETATM    9  H   UNL     1     -12.042   7.053  66.550  1.00  0.00     0.000 HD 
BRANCH   8  10
HETATM   10  C   UNL     1     -10.732   6.212  67.923  1.00  0.00    -0.296 C  
HETATM   11  O   UNL     1      -9.849   5.399  67.671  1.00  0.00    -0.134 OA 
BRANCH  10  12
HETATM   12  N   UNL     1     -11.486   6.215  69.083  1.00  0.00    -0.434 N  
HETATM   13  H   UNL     1     -12.471   5.952  69.078  1.00  0.00     0.000 HD 
BRANCH  12  14
HETATM   14  C   UNL     1     -10.833   6.599  70.274  1.00  0.00    -0.271 A  
HETATM   15  C   UNL     1      -9.325   7.657  72.365  1.00  0.00    -0.211 A  
HETATM   16  C   UNL     1      -8.509   8.268  73.370  1.00  0.00    -0.199 C  
HETATM   17  N   UNL     1      -7.843   8.766  74.178  1.00  0.00    -0.376 NA 
HETATM   18  C   UNL     1      -9.609   6.016  70.599  1.00  0.00    -0.201 A  
HETATM   19  C   UNL     1     -10.591   8.181  72.088  1.00  0.00    -0.358 A  
HETATM   20  C   UNL     1     -11.343   7.649  71.044  1.00  0.00    -0.289 A  
HETATM   21  C   UNL     1      -8.844   6.565  71.631  1.00  0.00    -0.135 A  
ENDBRANCH  12  14
ENDBRANCH  10  12
ENDBRANCH   8  10
ENDBRANCH   5   8
BRANCH   7  22
HETATM   22  C   UNL     1      -9.852  11.420  67.062  1.00  0.00    -0.191 A  
HETATM   23  N   UNL     1     -11.163  11.570  67.057  1.00  0.00    -0.320 NA 
HETATM   24  N   UNL     1      -9.245  12.417  66.336  1.00  0.00    -0.221 NA 
HETATM   25  C   UNL     1     -11.405  12.687  66.305  1.00  0.00    -0.329 A  
HETATM   26  H   UNL     1     -11.853  10.977  67.517  1.00  0.00     0.000 HD 
HETATM   27  C   UNL     1     -10.220  13.236  65.828  1.00  0.00    -0.292 A  
HETATM   28  C   UNL     1     -12.627  13.295  65.983  1.00  0.00    -0.279 A  
HETATM   29  C   UNL     1     -10.177  14.374  65.021  1.00  0.00    -0.406 A  
HETATM   30  C   UNL     1     -11.406  14.971  64.713  1.00  0.00    -0.409 A  
HETATM   31  C   UNL     1     -12.612  14.444  65.185  1.00  0.00    -0.323 A  
ENDBRANCH   7  22
TORSDOF 5
ENDMDL
MODEL      103
REMARK 921   NORMALIZED FREE ENERGY PREDICTED BY IDOCK:   -5.51 KCAL/MOL
REMARK 922        TOTAL FREE ENERGY PREDICTED BY IDOCK:   -7.89 KCAL/MOL
REMARK 923 INTER-LIGAND FREE ENERGY PREDICTED BY IDOCK:   -6.87 KCAL/MOL
REMARK 924 INTRA-LIGAND FREE ENERGY PREDICTED BY IDOCK:   -1.02 KCAL/MOL
REMARK 927      BINDING AFFINITY PREDICTED BY RF-SCORE:    0.00 PKD
ROOT
HETATM    1  C   UNL     1      -8.803   3.401  66.241  1.00  0.00    -0.134 C  
HETATM    2  N   UNL     1      -8.963   4.275  67.413  1.00  0.00    -0.114 NA 
HETATM    3  C   UNL     1      -7.845   5.228  67.509  1.00  0.00    -0.096 C  
HETATM    4  C   UNL     1      -7.860   6.347  66.473  1.00  0.00    -0.104 C  
HETATM    5  C   UNL     1      -9.221   7.054  66.407  1.00  0.00    -0.149 C  
HETATM    6  C   UNL     1     -10.373   6.047  66.296  1.00  0.00    -0.037 C  
HETATM    7  C   UNL     1     -10.280   4.963  67.382  1.00  0.00    -0.118 C  
ENDROOT
BRANCH   5   8
HETATM    8  N   UNL     1      -9.247   8.060  65.342  1.00  0.00    -0.391 N  
HETATM    9  H   UNL     1      -9.454   7.776  64.385  1.00  0.00     0.000 HD 
BRANCH   8  10
HETATM   10  C   UNL     1      -8.993   9.379  65.620  1.00  0.00    -0.193 C  
HETATM   11  O   UNL     1      -7.906   9.788  66.015  1.00  0.00    -0.104 OA 
BRANCH  10  12
HETATM   12  N   UNL     1     -10.126  10.163  65.499  1.00  0.00    -0.289 N  
HETATM   13  H   UNL     1     -10.701  10.141  64.656  1.00  0.00     0.000 HD 
BRANCH  12  14
HETATM   14  C   UNL     1     -10.455  10.993  66.592  1.00  0.00    -0.256 A  
HETATM   15  C   UNL     1     -11.506  12.681  68.544  1.00  0.00    -0.349 A  
HETATM   16  C   UNL     1     -12.135  13.549  69.493  1.00  0.00    -0.297 C  
HETATM   17  N   UNL     1     -12.651  14.254  70.255  1.00  0.00    -0.350 NA 
HETATM   18  C   UNL     1     -10.257  12.369  66.486  1.00  0.00    -0.244 A  
HETATM   19  C   UNL     1     -11.626  11.296  68.687  1.00  0.00    -0.384 A  
HETATM   20  C   UNL     1     -11.098  10.455  67.711  1.00  0.00    -0.365 A  
HETATM   21  C   UNL     1     -10.807  13.214  67.453  1.00  0.00    -0.269 A  
ENDBRANCH  12  14
ENDBRANCH  10  12
ENDBRANCH   8  10
ENDBRANCH   5   8
BRANCH   7  22
HETATM   22  C   UNL     1     -10.651   5.543  68.727  1.00  0.00    -0.166 A  
HETATM   23  N   UNL     1     -11.487   6.539  68.952  1.00  0.00    -0.608 NA 
HETATM   24  N   UNL     1     -10.131   5.068  69.908  1.00  0.00    -0.257 NA 
HETATM   25  C   UNL     1     -11.503   6.711  70.309  1.00  0.00    -0.391 A  
HETATM   26  H   UNL     1     -12.014   7.070  68.258  1.00  0.00     0.000 HD 
HETATM   27  C   UNL     1     -10.651   5.809  70.937  1.00  0.00    -0.262 A  
HETATM   28  C   UNL     1     -12.227   7.631  71.081  1.00  0.00    -0.310 A  
HETATM   29  C   UNL     1     -10.464   5.773  72.320  1.00  0.00    -0.253 A  
HETATM   30  C   UNL     1     -11.198   6.696  73.075  1.00  0.00    -0.179 A  
HETATM   31  C   UNL     1     -12.066   7.609  72.470  1.00  0.00    -0.204 A  
ENDBRANCH   7  22
TORSDOF 5
ENDMDL
MODEL      104
REMARK 921   NORMALIZED FREE ENERGY PREDICTED BY IDOCK:   -5.48 KCAL/MOL
REMARK 922        TOTAL FREE ENERGY PREDICTED BY IDOCK:   -7.86 KCAL/MOL
REMARK 923 INTER-LIGAND FREE ENERGY PREDICTED BY IDOCK:   -6.97 KCAL/MOL
REMARK 924 INTRA-LIGAND FREE ENERGY PREDICTED BY IDOCK:   -0.89 KCAL/MOL
REMARK 927      BINDING AFFINITY PREDICTED BY RF-SCORE:    0.00 PKD
ROOT
HETATM    1  C   UNL     1      -9.759   7.585  69.892  1.00  0.00    -0.171 C  
HETATM    2  N   UNL     1      -9.612   9.003  69.532  1.00  0.00    -0.162 NA 
HETATM    3  C   UNL     1      -8.299   9.251  68.912  1.00  0.00    -0.120 C  
HETATM    4  C   UNL     1      -8.141   8.709  67.496  1.00  0.00    -0.106 C  
HETATM    5  C   UNL     1      -9.301   9.132  66.584  1.00  0.00    -0.177 C  
HETATM    6  C   UNL     1     -10.661   8.857  67.239  1.00  0.00    -0.304 C  
HETATM    7  C   UNL     1     -10.731   9.444  68.658  1.00  0.00    -0.160 C  
ENDROOT
BRANCH   5   8
HETATM    8  N   UNL     1      -9.182   8.525  65.256  1.00  0.00    -0.430 N  
HETATM    9  H   UNL     1      -9.215   7.510  65.160  1.00  0.00     0.000 HD 
BRANCH   8  10
HETATM   10  C   UNL     1      -9.025   9.309  64.140  1.00  0.00    -0.081 C  
HETATM   11  O   UNL     1      -7.931   9.606  63.674  1.00  0.00    -0.126 OA 
BRANCH  10  12
HETATM   12  N   UNL     1     -10.234   9.796  63.675  1.00  0.00     0.003 N  
HETATM   13  H   UNL     1     -10.846   9.229  63.088  1.00  0.00     0.000 HD 
BRANCH  12  14
HETATM   14  C   UNL     1     -10.584  11.111  64.048  1.00  0.00    -0.368 A  
HETATM   15  C   UNL     1     -11.057  13.834  64.406  1.00  0.00    -0.356 A  
HETATM   16  C   UNL     1     -11.251  15.250  64.499  1.00  0.00    -0.280 C  
HETATM   17  N   UNL     1     -11.401  16.397  64.568  1.00  0.00    -0.748 NA 
HETATM   18  C   UNL     1      -9.685  11.870  64.796  1.00  0.00    -0.143 A  
HETATM   19  C   UNL     1     -11.996  13.050  63.730  1.00  0.00    -0.585 A  
HETATM   20  C   UNL     1     -11.758  11.689  63.555  1.00  0.00    -0.384 A  
HETATM   21  C   UNL     1      -9.912  13.240  64.952  1.00  0.00    -0.156 A  
ENDBRANCH  12  14
ENDBRANCH  10  12
ENDBRANCH   8  10
ENDBRANCH   5   8
BRANCH   7  22
HETATM   22  C   UNL     1     -10.842  10.950  68.592  1.00  0.00    -0.217 A  
HETATM   23  N   UNL     1     -11.944  11.650  68.403  1.00  0.00    -0.533 NA 
HETATM   24  N   UNL     1      -9.755  11.780  68.731  1.00  0.00    -0.126 NA 
HETATM   25  C   UNL     1     -11.556  12.963  68.416  1.00  0.00    -0.333 A  
HETATM   26  H   UNL     1     -12.889  11.290  68.274  1.00  0.00     0.000 HD 
HETATM   27  C   UNL     1     -10.183  13.076  68.609  1.00  0.00    -0.164 A  
HETATM   28  C   UNL     1     -12.331  14.121  68.265  1.00  0.00    -0.027 A  
HETATM   29  C   UNL     1      -9.518  14.302  68.650  1.00  0.00    -0.178 A  
HETATM   30  C   UNL     1     -10.309  15.449  68.502  1.00  0.00    -0.226 A  
HETATM   31  C   UNL     1     -11.691  15.363  68.315  1.00  0.00    -0.313 A  
ENDBRANCH   7  22
TORSDOF 5
ENDMDL
MODEL      105
REMARK 921   NORMALIZED FREE ENERGY PREDICTED BY IDOCK:   -5.48 KCAL/MOL
REMARK 922        TOTAL FREE ENERGY PREDICTED BY IDOCK:   -7.86 KCAL/MOL
REMARK 923 INTER-LIGAND FREE ENERGY PREDICTED BY IDOCK:   -7.32 KCAL/MOL
REMARK 924 INTRA-LIGAND FREE ENERGY PREDICTED BY IDOCK:   -0.54 KCAL/MOL
REMARK 927      BINDING AFFINITY PREDICTED BY RF-SCORE:    0.00 PKD
ROOT
HETATM    1  C   UNL     1     -10.904   9.827  66.961  1.00  0.00    -0.094 C  
HETATM    2  N   UNL     1     -10.455   8.996  68.089  1.00  0.00    -0.219 NA 
HETATM    3  C   UNL     1      -9.053   8.584  67.907  1.00  0.00    -0.140 C  
HETATM    4  C   UNL     1      -8.024   9.691  68.105  1.00  0.00    -0.100 C  
HETATM    5  C   UNL     1      -8.238  10.450  69.422  1.00  0.00    -0.151 C  
HETATM    6  C   UNL     1      -9.701  10.882  69.590  1.00  0.00     0.206 C  
HETATM    7  C   UNL     1     -10.664   9.702  69.380  1.00  0.00    -0.228 C  
ENDROOT
BRANCH   5   8
HETATM    8  N   UNL     1      -7.302  11.569  69.549  1.00  0.00    -0.347 N  
HETATM    9  H   UNL     1      -6.668  11.609  70.347  1.00  0.00     0.000 HD 
BRANCH   8  10
HETATM   10  C   UNL     1      -7.270  12.564  68.604  1.00  0.00    -0.103 C  
HETATM   11  O   UNL     1      -6.378  12.671  67.769  1.00  0.00    -0.097 OA 
BRANCH  10  12
HETATM   12  N   UNL     1      -8.297  13.474  68.774  1.00  0.00    -0.347 N  
HETATM   13  H   UNL     1      -8.632  13.733  69.703  1.00  0.00     0.000 HD 
BRANCH  12  14
HETATM   14  C   UNL     1      -8.864  14.030  67.607  1.00  0.00    -0.190 A  
HETATM   15  C   UNL     1     -10.292  15.307  65.583  1.00  0.00    -0.389 A  
HETATM   16  C   UNL     1     -11.090  16.001  64.617  1.00  0.00    -0.332 C  
HETATM   17  N   UNL     1     -11.742  16.563  63.842  1.00  0.00    -1.022 NA 
HETATM   18  C   UNL     1      -9.881  13.341  66.947  1.00  0.00    -0.247 A  
HETATM   19  C   UNL     1      -9.216  15.959  66.190  1.00  0.00    -0.384 A  
HETATM   20  C   UNL     1      -8.503  15.319  67.200  1.00  0.00    -0.235 A  
HETATM   21  C   UNL     1     -10.611  13.993  65.951  1.00  0.00    -0.302 A  
ENDBRANCH  12  14
ENDBRANCH  10  12
ENDBRANCH   8  10
ENDBRANCH   5   8
BRANCH   7  22
HETATM   22  C   UNL     1     -10.597   8.761  70.561  1.00  0.00    -0.215 A  
HETATM   23  N   UNL     1      -9.979   8.978  71.706  1.00  0.00    -0.328 NA 
HETATM   24  N   UNL     1     -11.203   7.528  70.560  1.00  0.00    -0.270 NA 
HETATM   25  C   UNL     1     -10.189   7.855  72.459  1.00  0.00    -0.278 A  
HETATM   26  H   UNL     1      -9.454   9.810  71.975  1.00  0.00     0.000 HD 
HETATM   27  C   UNL     1     -10.946   6.920  71.762  1.00  0.00    -0.230 A  
HETATM   28  C   UNL     1      -9.756   7.563  73.760  1.00  0.00    -0.303 A  
HETATM   29  C   UNL     1     -11.296   5.677  72.290  1.00  0.00    -0.300 A  
HETATM   30  C   UNL     1     -10.859   5.403  73.592  1.00  0.00    -0.321 A  
HETATM   31  C   UNL     1     -10.103   6.328  74.318  1.00  0.00    -0.349 A  
ENDBRANCH   7  22
TORSDOF 5
ENDMDL
MODEL      106
REMARK 921   NORMALIZED FREE ENERGY PREDICTED BY IDOCK:   -5.48 KCAL/MOL
REMARK 922        TOTAL FREE ENERGY PREDICTED BY IDOCK:   -7.86 KCAL/MOL
REMARK 923 INTER-LIGAND FREE ENERGY PREDICTED BY IDOCK:   -6.90 KCAL/MOL
REMARK 924 INTRA-LIGAND FREE ENERGY PREDICTED BY IDOCK:   -0.96 KCAL/MOL
REMARK 927      BINDING AFFINITY PREDICTED BY RF-SCORE:    0.00 PKD
ROOT
HETATM    1  C   UNL     1     -12.523  14.506  64.727  1.00  0.00    -0.319 C  
HETATM    2  N   UNL     1     -11.797  13.496  65.511  1.00  0.00    -0.345 NA 
HETATM    3  C   UNL     1     -10.342  13.660  65.354  1.00  0.00    -0.332 C  
HETATM    4  C   UNL     1      -9.748  14.871  66.064  1.00  0.00    -0.358 C  
HETATM    5  C   UNL     1     -10.184  14.949  67.534  1.00  0.00    -0.233 C  
HETATM    6  C   UNL     1     -11.704  14.788  67.679  1.00  0.00    -0.364 C  
HETATM    7  C   UNL     1     -12.211  13.540  66.938  1.00  0.00    -0.327 C  
ENDROOT
BRANCH   5   8
HETATM    8  N   UNL     1      -9.683  16.168  68.173  1.00  0.00    -0.220 N  
HETATM    9  H   UNL     1     -10.201  17.040  68.074  1.00  0.00     0.000 HD 
BRANCH   8  10
HETATM   10  C   UNL     1      -8.522  16.147  68.905  1.00  0.00    -0.241 C  
HETATM   11  O   UNL     1      -7.694  17.051  68.880  1.00  0.00    -0.244 OA 
BRANCH  10  12
HETATM   12  N   UNL     1      -8.358  14.953  69.584  1.00  0.00    -0.441 N  
HETATM   13  H   UNL     1      -8.762  14.807  70.509  1.00  0.00     0.000 HD 
BRANCH  12  14
HETATM   14  C   UNL     1      -7.608  13.945  68.941  1.00  0.00    -0.060 A  
HETATM   15  C   UNL     1      -6.309  12.115  67.288  1.00  0.00    -0.152 A  
HETATM   16  C   UNL     1      -5.687  11.223  66.358  1.00  0.00    -0.145 C  
HETATM   17  N   UNL     1      -5.190  10.503  65.598  1.00  0.00    -0.082 NA 
HETATM   18  C   UNL     1      -8.204  12.710  68.685  1.00  0.00     0.008 A  
HETATM   19  C   UNL     1      -5.681  13.319  67.619  1.00  0.00    -0.090 A  
HETATM   20  C   UNL     1      -6.331  14.230  68.447  1.00  0.00    -0.101 A  
HETATM   21  C   UNL     1      -7.561  11.806  67.836  1.00  0.00    -0.121 A  
ENDBRANCH  12  14
ENDBRANCH  10  12
ENDBRANCH   8  10
ENDBRANCH   5   8
BRANCH   7  22
HETATM   22  C   UNL     1     -11.805  12.292  67.687  1.00  0.00    -0.264 A  
HETATM   23  N   UNL     1     -11.859  12.104  68.992  1.00  0.00    -0.314 NA 
HETATM   24  N   UNL     1     -11.319  11.173  67.054  1.00  0.00    -0.417 NA 
HETATM   25  C   UNL     1     -11.391  10.835  69.204  1.00  0.00    -0.282 A  
HETATM   26  H   UNL     1     -12.182  12.766  69.698  1.00  0.00     0.000 HD 
HETATM   27  C   UNL     1     -11.033  10.228  68.005  1.00  0.00    -0.289 A  
HETATM   28  C   UNL     1     -11.242  10.131  70.407  1.00  0.00    -0.402 A  
HETATM   29  C   UNL     1     -10.512   8.935  67.931  1.00  0.00    -0.281 A  
HETATM   30  C   UNL     1     -10.374   8.246  69.142  1.00  0.00    -0.225 A  
HETATM   31  C   UNL     1     -10.733   8.830  70.360  1.00  0.00    -0.254 A  
ENDBRANCH   7  22
TORSDOF 5
ENDMDL
MODEL      107
REMARK 921   NORMALIZED FREE ENERGY PREDICTED BY IDOCK:   -5.45 KCAL/MOL
REMARK 922        TOTAL FREE ENERGY PREDICTED BY IDOCK:   -7.81 KCAL/MOL
REMARK 923 INTER-LIGAND FREE ENERGY PREDICTED BY IDOCK:   -7.65 KCAL/MOL
REMARK 924 INTRA-LIGAND FREE ENERGY PREDICTED BY IDOCK:   -0.17 KCAL/MOL
REMARK 927      BINDING AFFINITY PREDICTED BY RF-SCORE:    0.00 PKD
ROOT
HETATM    1  C   UNL     1     -10.323  14.289  65.552  1.00  0.00    -0.355 C  
HETATM    2  N   UNL     1     -10.399  13.224  66.563  1.00  0.00    -0.280 NA 
HETATM    3  C   UNL     1      -9.179  12.398  66.542  1.00  0.00    -0.215 C  
HETATM    4  C   UNL     1      -7.935  13.070  67.112  1.00  0.00    -0.095 C  
HETATM    5  C   UNL     1      -8.193  13.688  68.493  1.00  0.00    -0.112 C  
HETATM    6  C   UNL     1      -9.460  14.553  68.494  1.00  0.00    -0.211 C  
HETATM    7  C   UNL     1     -10.662  13.793  67.911  1.00  0.00    -0.247 C  
ENDROOT
BRANCH   5   8
HETATM    8  N   UNL     1      -7.016  14.410  68.981  1.00  0.00    -0.109 N  
HETATM    9  H   UNL     1      -6.993  14.748  69.943  1.00  0.00     0.000 HD 
BRANCH   8  10
HETATM   10  C   UNL     1      -5.944  14.638  68.155  1.00  0.00    -0.139 C  
HETATM   11  O   UNL     1      -5.351  13.745  67.558  1.00  0.00    -0.328 OA 
BRANCH  10  12
HETATM   12  N   UNL     1      -5.558  15.967  68.159  1.00  0.00    -0.105 N  
HETATM   13  H   UNL     1      -4.615  16.247  68.432  1.00  0.00     0.000 HD 
BRANCH  12  14
HETATM   14  C   UNL     1      -6.524  16.919  67.771  1.00  0.00    -0.143 A  
HETATM   15  C   UNL     1      -8.737  18.489  67.136  1.00  0.00    -0.274 A  
HETATM   16  C   UNL     1      -9.934  19.219  66.846  1.00  0.00    -0.356 C  
HETATM   17  N   UNL     1     -10.909  19.802  66.613  1.00  0.00    -0.413 NA 
HETATM   18  C   UNL     1      -7.056  16.864  66.483  1.00  0.00    -0.281 A  
HETATM   19  C   UNL     1      -8.146  18.601  68.397  1.00  0.00    -0.360 A  
HETATM   20  C   UNL     1      -7.039  17.817  68.711  1.00  0.00    -0.263 A  
HETATM   21  C   UNL     1      -8.181  17.634  66.176  1.00  0.00    -0.205 A  
ENDBRANCH  12  14
ENDBRANCH  10  12
ENDBRANCH   8  10
ENDBRANCH   5   8
BRANCH   7  22
HETATM   22  C   UNL     1     -11.136  12.743  68.889  1.00  0.00    -0.262 A  
HETATM   23  N   UNL     1     -11.961  12.927  69.902  1.00  0.00    -0.351 NA 
HETATM   24  N   UNL     1     -10.738  11.429  68.817  1.00  0.00    -0.195 NA 
HETATM   25  C   UNL     1     -12.094  11.702  70.499  1.00  0.00    -0.366 A  
HETATM   26  H   UNL     1     -12.407  13.800  70.183  1.00  0.00     0.000 HD 
HETATM   27  C   UNL     1     -11.328  10.743  69.846  1.00  0.00    -0.311 A  
HETATM   28  C   UNL     1     -12.858  11.335  71.615  1.00  0.00    -0.510 A  
HETATM   29  C   UNL     1     -11.268   9.409  70.254  1.00  0.00    -0.286 A  
HETATM   30  C   UNL     1     -12.041   9.059  71.368  1.00  0.00    -0.392 A  
HETATM   31  C   UNL     1     -12.825  10.003  72.038  1.00  0.00    -0.484 A  
ENDBRANCH   7  22
TORSDOF 5
ENDMDL
MODEL      108
REMARK 921   NORMALIZED FREE ENERGY PREDICTED BY IDOCK:   -5.43 KCAL/MOL
REMARK 922        TOTAL FREE ENERGY PREDICTED BY IDOCK:   -7.79 KCAL/MOL
REMARK 923 INTER-LIGAND FREE ENERGY PREDICTED BY IDOCK:   -7.22 KCAL/MOL
REMARK 924 INTRA-LIGAND FREE ENERGY PREDICTED BY IDOCK:   -0.57 KCAL/MOL
REMARK 927      BINDING AFFINITY PREDICTED BY RF-SCORE:    0.00 PKD
ROOT
HETATM    1  C   UNL     1     -12.727  14.077  65.442  1.00  0.00    -0.471 C  
HETATM    2  N   UNL     1     -11.740  12.997  65.596  1.00  0.00    -0.354 NA 
HETATM    3  C   UNL     1     -10.383  13.482  65.292  1.00  0.00    -0.331 C  
HETATM    4  C   UNL     1      -9.777  14.405  66.343  1.00  0.00    -0.320 C  
HETATM    5  C   UNL     1      -9.877  13.813  67.757  1.00  0.00    -0.234 C  
HETATM    6  C   UNL     1     -11.299  13.323  68.061  1.00  0.00    -0.325 C  
HETATM    7  C   UNL     1     -11.824  12.396  66.954  1.00  0.00    -0.307 C  
ENDROOT
BRANCH   5   8
HETATM    8  N   UNL     1      -9.377  14.753  68.763  1.00  0.00    -0.198 N  
HETATM    9  H   UNL     1     -10.034  15.336  69.281  1.00  0.00     0.000 HD 
BRANCH   8  10
HETATM   10  C   UNL     1      -8.031  14.858  69.014  1.00  0.00    -0.170 C  
HETATM   11  O   UNL     1      -7.271  13.895  69.022  1.00  0.00    -0.111 OA 
BRANCH  10  12
HETATM   12  N   UNL     1      -7.665  16.148  69.352  1.00  0.00    -0.209 N  
HETATM   13  H   UNL     1      -7.739  16.489  70.311  1.00  0.00     0.000 HD 
BRANCH  12  14
HETATM   14  C   UNL     1      -7.186  16.974  68.313  1.00  0.00    -0.196 A  
HETATM   15  C   UNL     1      -6.411  18.290  65.982  1.00  0.00    -0.278 A  
HETATM   16  C   UNL     1      -6.060  18.890  64.730  1.00  0.00    -0.229 C  
HETATM   17  N   UNL     1      -5.777  19.368  63.713  1.00  0.00    -0.353 NA 
HETATM   18  C   UNL     1      -5.922  16.730  67.776  1.00  0.00    -0.152 A  
HETATM   19  C   UNL     1      -7.641  18.592  66.573  1.00  0.00    -0.273 A  
HETATM   20  C   UNL     1      -8.025  17.935  67.739  1.00  0.00    -0.230 A  
HETATM   21  C   UNL     1      -5.547  17.373  66.594  1.00  0.00    -0.227 A  
ENDBRANCH  12  14
ENDBRANCH  10  12
ENDBRANCH   8  10
ENDBRANCH   5   8
BRANCH   7  22
HETATM   22  C   UNL     1     -11.131  11.056  67.027  1.00  0.00    -0.244 A  
HETATM   23  N   UNL     1     -11.246  10.161  67.989  1.00  0.00    -0.487 NA 
HETATM   24  N   UNL     1     -10.271  10.612  66.050  1.00  0.00    -0.250 NA 
HETATM   25  C   UNL     1     -10.438   9.118  67.625  1.00  0.00    -0.261 A  
HETATM   26  H   UNL     1     -11.819  10.231  68.830  1.00  0.00     0.000 HD 
HETATM   27  C   UNL     1      -9.802   9.377  66.416  1.00  0.00    -0.269 A  
HETATM   28  C   UNL     1     -10.195   7.907  68.289  1.00  0.00    -0.240 A  
HETATM   29  C   UNL     1      -8.909   8.486  65.818  1.00  0.00    -0.229 A  
HETATM   30  C   UNL     1      -8.682   7.280  66.493  1.00  0.00    -0.141 A  
HETATM   31  C   UNL     1      -9.313   6.992  67.706  1.00  0.00    -0.127 A  
ENDBRANCH   7  22
TORSDOF 5
ENDMDL
MODEL      109
REMARK 921   NORMALIZED FREE ENERGY PREDICTED BY IDOCK:   -5.40 KCAL/MOL
REMARK 922        TOTAL FREE ENERGY PREDICTED BY IDOCK:   -7.75 KCAL/MOL
REMARK 923 INTER-LIGAND FREE ENERGY PREDICTED BY IDOCK:   -6.48 KCAL/MOL
REMARK 924 INTRA-LIGAND FREE ENERGY PREDICTED BY IDOCK:   -1.26 KCAL/MOL
REMARK 927      BINDING AFFINITY PREDICTED BY RF-SCORE:    0.00 PKD
ROOT
HETATM    1  C   UNL     1     -10.668  14.873  68.749  1.00  0.00    -0.252 C  
HETATM    2  N   UNL     1     -10.887  13.420  68.675  1.00  0.00    -0.258 NA 
HETATM    3  C   UNL     1     -12.018  13.109  67.784  1.00  0.00    -0.307 C  
HETATM    4  C   UNL     1     -11.742  13.305  66.297  1.00  0.00    -0.412 C  
HETATM    5  C   UNL     1     -10.447  12.611  65.854  1.00  0.00    -0.274 C  
HETATM    6  C   UNL     1      -9.277  12.955  66.786  1.00  0.00    -0.230 C  
HETATM    7  C   UNL     1      -9.643  12.720  68.260  1.00  0.00    -0.211 C  
ENDROOT
BRANCH   5   8
HETATM    8  N   UNL     1     -10.148  12.890  64.447  1.00  0.00    -0.594 N  
HETATM    9  H   UNL     1      -9.835  13.821  64.173  1.00  0.00     0.000 HD 
BRANCH   8  10
HETATM   10  C   UNL     1     -10.287  11.911  63.495  1.00  0.00    -0.458 C  
HETATM   11  O   UNL     1     -11.362  11.392  63.214  1.00  0.00    -0.269 OA 
BRANCH  10  12
HETATM   12  N   UNL     1      -9.067  11.518  62.974  1.00  0.00    -0.546 N  
HETATM   13  H   UNL     1      -8.511  12.144  62.391  1.00  0.00     0.000 HD 
BRANCH  12  14
HETATM   14  C   UNL     1      -8.625  10.214  63.282  1.00  0.00    -0.198 A  
HETATM   15  C   UNL     1      -7.370   7.758  63.678  1.00  0.00    -0.100 A  
HETATM   16  C   UNL     1      -6.640   6.536  63.834  1.00  0.00    -0.034 C  
HETATM   17  N   UNL     1      -6.044   5.549  63.953  1.00  0.00    -0.021 NA 
HETATM   18  C   UNL     1      -8.807   9.194  62.349  1.00  0.00    -0.212 A  
HETATM   19  C   UNL     1      -7.263   8.756  64.651  1.00  0.00    -0.095 A  
HETATM   20  C   UNL     1      -7.893   9.982  64.451  1.00  0.00    -0.144 A  
HETATM   21  C   UNL     1      -8.155   7.973  62.539  1.00  0.00    -0.157 A  
ENDBRANCH  12  14
ENDBRANCH  10  12
ENDBRANCH   8  10
ENDBRANCH   5   8
BRANCH   7  22
HETATM   22  C   UNL     1      -9.700  11.238  68.550  1.00  0.00    -0.198 A  
HETATM   23  N   UNL     1     -10.335  10.656  69.549  1.00  0.00    -0.340 NA 
HETATM   24  N   UNL     1      -9.069  10.304  67.764  1.00  0.00    -0.134 NA 
HETATM   25  C   UNL     1     -10.103   9.315  69.405  1.00  0.00    -0.197 A  
HETATM   26  H   UNL     1     -10.885  11.110  70.279  1.00  0.00     0.000 HD 
HETATM   27  C   UNL     1      -9.300   9.063  68.298  1.00  0.00    -0.139 A  
HETATM   28  C   UNL     1     -10.549   8.245  70.194  1.00  0.00    -0.233 A  
HETATM   29  C   UNL     1      -8.897   7.780  67.925  1.00  0.00    -0.123 A  
HETATM   30  C   UNL     1      -9.355   6.723  68.721  1.00  0.00    -0.132 A  
HETATM   31  C   UNL     1     -10.168   6.948  69.836  1.00  0.00    -0.214 A  
ENDBRANCH   7  22
TORSDOF 5
ENDMDL
MODEL      110
REMARK 921   NORMALIZED FREE ENERGY PREDICTED BY IDOCK:   -5.39 KCAL/MOL
REMARK 922        TOTAL FREE ENERGY PREDICTED BY IDOCK:   -7.74 KCAL/MOL
REMARK 923 INTER-LIGAND FREE ENERGY PREDICTED BY IDOCK:   -6.77 KCAL/MOL
REMARK 924 INTRA-LIGAND FREE ENERGY PREDICTED BY IDOCK:   -0.97 KCAL/MOL
REMARK 927      BINDING AFFINITY PREDICTED BY RF-SCORE:    0.00 PKD
ROOT
HETATM    1  C   UNL     1     -12.230  13.990  66.271  1.00  0.00    -0.462 C  
HETATM    2  N   UNL     1     -11.011  13.271  65.870  1.00  0.00    -0.274 NA 
HETATM    3  C   UNL     1      -9.873  13.659  66.720  1.00  0.00    -0.271 C  
HETATM    4  C   UNL     1      -9.917  13.117  68.145  1.00  0.00    -0.234 C  
HETATM    5  C   UNL     1     -10.176  11.604  68.178  1.00  0.00    -0.197 C  
HETATM    6  C   UNL     1     -11.371  11.219  67.297  1.00  0.00    -0.329 C  
HETATM    7  C   UNL     1     -11.238  11.802  65.881  1.00  0.00    -0.290 C  
ENDROOT
BRANCH   5   8
HETATM    8  N   UNL     1     -10.310  11.119  69.554  1.00  0.00    -0.441 N  
HETATM    9  H   UNL     1     -10.719  11.723  70.265  1.00  0.00     0.000 HD 
BRANCH   8  10
HETATM   10  C   UNL     1      -9.889   9.857  69.894  1.00  0.00    -0.245 C  
HETATM   11  O   UNL     1      -8.709   9.522  69.908  1.00  0.00    -0.172 OA 
BRANCH  10  12
HETATM   12  N   UNL     1     -10.950   8.999  70.117  1.00  0.00    -0.238 N  
HETATM   13  H   UNL     1     -11.807   9.318  70.571  1.00  0.00     0.000 HD 
BRANCH  12  14
HETATM   14  C   UNL     1     -10.798   7.662  69.690  1.00  0.00    -0.191 A  
HETATM   15  C   UNL     1     -10.053   5.118  68.831  1.00  0.00    -0.237 A  
HETATM   16  C   UNL     1      -9.571   3.844  68.393  1.00  0.00    -0.112 C  
HETATM   17  N   UNL     1      -9.172   2.815  68.036  1.00  0.00    -0.188 NA 
HETATM   18  C   UNL     1     -10.770   7.382  68.325  1.00  0.00    -0.151 A  
HETATM   19  C   UNL     1     -10.166   5.383  70.198  1.00  0.00    -0.342 A  
HETATM   20  C   UNL     1     -10.540   6.654  70.625  1.00  0.00    -0.268 A  
HETATM   21  C   UNL     1     -10.372   6.113  67.897  1.00  0.00    -0.250 A  
ENDBRANCH  12  14
ENDBRANCH  10  12
ENDBRANCH   8  10
ENDBRANCH   5   8
BRANCH   7  22
HETATM   22  C   UNL     1     -10.173  11.056  65.111  1.00  0.00    -0.291 A  
HETATM   23  N   UNL     1      -9.513  11.493  64.055  1.00  0.00    -0.425 NA 
HETATM   24  N   UNL     1      -9.763   9.789  65.451  1.00  0.00    -0.304 NA 
HETATM   25  C   UNL     1      -8.662  10.480  63.704  1.00  0.00    -0.181 A  
HETATM   26  H   UNL     1      -9.616  12.398  63.595  1.00  0.00     0.000 HD 
HETATM   27  C   UNL     1      -8.804   9.391  64.557  1.00  0.00    -0.198 A  
HETATM   28  C   UNL     1      -7.732  10.423  62.657  1.00  0.00    -0.157 A  
HETATM   29  C   UNL     1      -8.066   8.214  64.418  1.00  0.00    -0.138 A  
HETATM   30  C   UNL     1      -7.139   8.176  63.369  1.00  0.00    -0.087 A  
HETATM   31  C   UNL     1      -6.971   9.260  62.502  1.00  0.00    -0.093 A  
ENDBRANCH   7  22
TORSDOF 5
ENDMDL
MODEL      111
REMARK 921   NORMALIZED FREE ENERGY PREDICTED BY IDOCK:   -5.36 KCAL/MOL
REMARK 922        TOTAL FREE ENERGY PREDICTED BY IDOCK:   -7.70 KCAL/MOL
REMARK 923 INTER-LIGAND FREE ENERGY PREDICTED BY IDOCK:   -7.10 KCAL/MOL
REMARK 924 INTRA-LIGAND FREE ENERGY PREDICTED BY IDOCK:   -0.59 KCAL/MOL
REMARK 927      BINDING AFFINITY PREDICTED BY RF-SCORE:    0.00 PKD
ROOT
HETATM    1  C   UNL     1      -8.181   9.893  65.419  1.00  0.00    -0.139 C  
HETATM    2  N   UNL     1      -8.958  11.099  65.746  1.00  0.00    -0.201 NA 
HETATM    3  C   UNL     1     -10.392  10.781  65.858  1.00  0.00    -0.238 C  
HETATM    4  C   UNL     1     -10.783   9.997  67.105  1.00  0.00    -0.279 C  
HETATM    5  C   UNL     1     -10.228  10.635  68.387  1.00  0.00    -0.173 C  
HETATM    6  C   UNL     1      -8.732  10.949  68.256  1.00  0.00    -0.140 C  
HETATM    7  C   UNL     1      -8.433  11.746  66.977  1.00  0.00    -0.175 C  
ENDROOT
BRANCH   5   8
HETATM    8  N   UNL     1     -10.533   9.817  69.563  1.00  0.00    -0.217 N  
HETATM    9  H   UNL     1      -9.947   9.012  69.783  1.00  0.00     0.000 HD 
BRANCH   8  10
HETATM   10  C   UNL     1     -11.598  10.124  70.371  1.00  0.00    -0.316 C  
HETATM   11  O   UNL     1     -12.629  10.646  69.959  1.00  0.00    -0.306 OA 
BRANCH  10  12
HETATM   12  N   UNL     1     -11.329   9.869  71.704  1.00  0.00    -0.197 N  
HETATM   13  H   UNL     1     -11.339  10.614  72.401  1.00  0.00     0.000 HD 
BRANCH  12  14
HETATM   14  C   UNL     1     -11.042   8.533  72.058  1.00  0.00    -0.342 A  
HETATM   15  C   UNL     1     -10.294   5.864  72.341  1.00  0.00    -0.230 A  
HETATM   16  C   UNL     1      -9.870   4.497  72.391  1.00  0.00    -0.165 C  
HETATM   17  N   UNL     1      -9.525   3.391  72.421  1.00  0.00    -0.115 NA 
HETATM   18  C   UNL     1     -11.951   7.529  71.728  1.00  0.00    -0.334 A  
HETATM   19  C   UNL     1      -9.422   6.875  72.751  1.00  0.00    -0.161 A  
HETATM   20  C   UNL     1      -9.798   8.208  72.610  1.00  0.00    -0.364 A  
HETATM   21  C   UNL     1     -11.563   6.192  71.847  1.00  0.00    -0.352 A  
ENDBRANCH  12  14
ENDBRANCH  10  12
ENDBRANCH   8  10
ENDBRANCH   5   8
BRANCH   7  22
HETATM   22  C   UNL     1      -8.923  13.168  67.125  1.00  0.00    -0.228 A  
HETATM   23  N   UNL     1      -9.145  14.030  66.151  1.00  0.00    -0.495 NA 
HETATM   24  N   UNL     1      -9.204  13.732  68.347  1.00  0.00    -0.198 NA 
HETATM   25  C   UNL     1      -9.573  15.178  66.762  1.00  0.00    -0.245 A  
HETATM   26  H   UNL     1      -9.022  13.875  65.150  1.00  0.00     0.000 HD 
HETATM   27  C   UNL     1      -9.610  15.025  68.143  1.00  0.00    -0.207 A  
HETATM   28  C   UNL     1      -9.949  16.401  66.191  1.00  0.00    -0.360 A  
HETATM   29  C   UNL     1      -9.997  16.045  69.013  1.00  0.00    -0.242 A  
HETATM   30  C   UNL     1     -10.374  17.260  68.426  1.00  0.00    -0.366 A  
HETATM   31  C   UNL     1     -10.353  17.438  67.039  1.00  0.00    -0.318 A  
ENDBRANCH   7  22
TORSDOF 5
ENDMDL
MODEL      112
REMARK 921   NORMALIZED FREE ENERGY PREDICTED BY IDOCK:   -5.33 KCAL/MOL
REMARK 922        TOTAL FREE ENERGY PREDICTED BY IDOCK:   -7.67 KCAL/MOL
REMARK 923 INTER-LIGAND FREE ENERGY PREDICTED BY IDOCK:   -7.03 KCAL/MOL
REMARK 924 INTRA-LIGAND FREE ENERGY PREDICTED BY IDOCK:   -0.63 KCAL/MOL
REMARK 927      BINDING AFFINITY PREDICTED BY RF-SCORE:    0.00 PKD
ROOT
HETATM    1  C   UNL     1      -6.269  11.276  67.930  1.00  0.00    -0.050 C  
HETATM    2  N   UNL     1      -6.721   9.877  67.871  1.00  0.00    -0.067 NA 
HETATM    3  C   UNL     1      -6.648   9.250  69.201  1.00  0.00    -0.049 C  
HETATM    4  C   UNL     1      -7.706   9.718  70.194  1.00  0.00    -0.188 C  
HETATM    5  C   UNL     1      -9.121   9.656  69.601  1.00  0.00    -0.210 C  
HETATM    6  C   UNL     1      -9.181  10.325  68.221  1.00  0.00    -0.139 C  
HETATM    7  C   UNL     1      -8.085   9.788  67.287  1.00  0.00    -0.117 C  
ENDROOT
BRANCH   5   8
HETATM    8  N   UNL     1     -10.112  10.199  70.533  1.00  0.00    -0.366 N  
HETATM    9  H   UNL     1      -9.828  10.889  71.228  1.00  0.00     0.000 HD 
BRANCH   8  10
HETATM   10  C   UNL     1     -11.420   9.786  70.481  1.00  0.00    -0.300 C  
HETATM   11  O   UNL     1     -11.806   8.711  70.928  1.00  0.00    -0.284 OA 
BRANCH  10  12
HETATM   12  N   UNL     1     -12.217  10.675  69.783  1.00  0.00    -0.492 N  
HETATM   13  H   UNL     1     -12.490  10.499  68.815  1.00  0.00     0.000 HD 
BRANCH  12  14
HETATM   14  C   UNL     1     -12.638  11.836  70.465  1.00  0.00    -0.150 A  
HETATM   15  C   UNL     1     -13.089  14.077  72.059  1.00  0.00    -0.487 A  
HETATM   16  C   UNL     1     -13.230  15.208  72.926  1.00  0.00    -0.499 C  
HETATM   17  N   UNL     1     -13.338  16.120  73.633  1.00  0.00    -0.628 NA 
HETATM   18  C   UNL     1     -13.393  11.707  71.630  1.00  0.00    -0.254 A  
HETATM   19  C   UNL     1     -12.407  14.214  70.848  1.00  0.00    -0.438 A  
HETATM   20  C   UNL     1     -12.184  13.093  70.052  1.00  0.00    -0.323 A  
HETATM   21  C   UNL     1     -13.596  12.827  72.439  1.00  0.00    -0.507 A  
ENDBRANCH  12  14
ENDBRANCH  10  12
ENDBRANCH   8  10
ENDBRANCH   5   8
BRANCH   7  22
HETATM   22  C   UNL     1      -8.422   8.383  66.844  1.00  0.00    -0.117 A  
HETATM   23  N   UNL     1      -7.626   7.545  66.209  1.00  0.00    -0.086 NA 
HETATM   24  N   UNL     1      -9.651   7.810  67.072  1.00  0.00    -0.170 NA 
HETATM   25  C   UNL     1      -8.361   6.406  66.019  1.00  0.00    -0.132 A  
HETATM   26  H   UNL     1      -6.662   7.710  65.919  1.00  0.00     0.000 HD 
HETATM   27  C   UNL     1      -9.643   6.546  66.540  1.00  0.00    -0.140 A  
HETATM   28  C   UNL     1      -7.994   5.203  65.400  1.00  0.00    -0.110 A  
HETATM   29  C   UNL     1     -10.608   5.540  66.471  1.00  0.00    -0.343 A  
HETATM   30  C   UNL     1     -10.222   4.344  65.853  1.00  0.00    -0.252 A  
HETATM   31  C   UNL     1      -8.938   4.174  65.327  1.00  0.00    -0.134 A  
ENDBRANCH   7  22
TORSDOF 5
ENDMDL
MODEL      113
REMARK 921   NORMALIZED FREE ENERGY PREDICTED BY IDOCK:   -5.33 KCAL/MOL
REMARK 922        TOTAL FREE ENERGY PREDICTED BY IDOCK:   -7.66 KCAL/MOL
REMARK 923 INTER-LIGAND FREE ENERGY PREDICTED BY IDOCK:   -6.99 KCAL/MOL
REMARK 924 INTRA-LIGAND FREE ENERGY PREDICTED BY IDOCK:   -0.66 KCAL/MOL
REMARK 927      BINDING AFFINITY PREDICTED BY RF-SCORE:    0.00 PKD
ROOT
HETATM    1  C   UNL     1     -12.109  15.467  64.232  1.00  0.00    -0.166 C  
HETATM    2  N   UNL     1     -11.095  14.405  64.327  1.00  0.00    -0.161 NA 
HETATM    3  C   UNL     1     -10.153  14.681  65.425  1.00  0.00    -0.372 C  
HETATM    4  C   UNL     1     -10.721  14.485  66.826  1.00  0.00    -0.291 C  
HETATM    5  C   UNL     1     -11.412  13.123  66.984  1.00  0.00    -0.336 C  
HETATM    6  C   UNL     1     -12.399  12.858  65.838  1.00  0.00    -0.378 C  
HETATM    7  C   UNL     1     -11.739  13.073  64.467  1.00  0.00    -0.369 C  
ENDROOT
BRANCH   5   8
HETATM    8  N   UNL     1     -12.033  12.993  68.304  1.00  0.00    -0.318 N  
HETATM    9  H   UNL     1     -12.591  13.760  68.678  1.00  0.00     0.000 HD 
BRANCH   8  10
HETATM   10  C   UNL     1     -11.872  11.847  69.042  1.00  0.00    -0.308 C  
HETATM   11  O   UNL     1     -11.848  11.833  70.268  1.00  0.00    -0.329 OA 
BRANCH  10  12
HETATM   12  N   UNL     1     -11.642  10.742  68.242  1.00  0.00    -0.415 N  
HETATM   13  H   UNL     1     -12.243  10.527  67.446  1.00  0.00     0.000 HD 
BRANCH  12  14
HETATM   14  C   UNL     1     -10.540   9.925  68.573  1.00  0.00    -0.217 A  
HETATM   15  C   UNL     1      -8.393   8.504  69.638  1.00  0.00    -0.121 A  
HETATM   16  C   UNL     1      -7.308   7.822  70.276  1.00  0.00    -0.067 C  
HETATM   17  N   UNL     1      -6.430   7.276  70.800  1.00  0.00    -0.043 NA 
HETATM   18  C   UNL     1      -9.249  10.436  68.443  1.00  0.00    -0.147 A  
HETATM   19  C   UNL     1      -9.679   7.959  69.688  1.00  0.00    -0.173 A  
HETATM   20  C   UNL     1     -10.749   8.670  69.153  1.00  0.00    -0.136 A  
HETATM   21  C   UNL     1      -8.179   9.733  69.001  1.00  0.00    -0.121 A  
ENDBRANCH  12  14
ENDBRANCH  10  12
ENDBRANCH   8  10
ENDBRANCH   5   8
BRANCH   7  22
HETATM   22  C   UNL     1     -10.779  11.944  64.170  1.00  0.00    -0.351 A  
HETATM   23  N   UNL     1     -10.639  11.311  63.021  1.00  0.00    -0.771 NA 
HETATM   24  N   UNL     1      -9.914  11.440  65.112  1.00  0.00    -0.252 NA 
HETATM   25  C   UNL     1      -9.663  10.375  63.229  1.00  0.00    -0.255 A  
HETATM   26  H   UNL     1     -11.152  11.483  62.156  1.00  0.00     0.000 HD 
HETATM   27  C   UNL     1      -9.195  10.424  64.538  1.00  0.00    -0.246 A  
HETATM   28  C   UNL     1      -9.123   9.439  62.337  1.00  0.00    -0.207 A  
HETATM   29  C   UNL     1      -8.206   9.569  65.026  1.00  0.00    -0.137 A  
HETATM   30  C   UNL     1      -7.675   8.643  64.119  1.00  0.00    -0.129 A  
HETATM   31  C   UNL     1      -8.122   8.577  62.797  1.00  0.00    -0.176 A  
ENDBRANCH   7  22
TORSDOF 5
ENDMDL
MODEL      114
REMARK 921   NORMALIZED FREE ENERGY PREDICTED BY IDOCK:   -5.32 KCAL/MOL
REMARK 922        TOTAL FREE ENERGY PREDICTED BY IDOCK:   -7.65 KCAL/MOL
REMARK 923 INTER-LIGAND FREE ENERGY PREDICTED BY IDOCK:   -7.70 KCAL/MOL
REMARK 924 INTRA-LIGAND FREE ENERGY PREDICTED BY IDOCK:    0.05 KCAL/MOL
REMARK 927      BINDING AFFINITY PREDICTED BY RF-SCORE:    0.00 PKD
ROOT
HETATM    1  C   UNL     1     -10.750  13.774  64.506  1.00  0.00    -0.390 C  
HETATM    2  N   UNL     1      -9.692  13.951  65.513  1.00  0.00    -0.158 NA 
HETATM    3  C   UNL     1      -9.510  15.377  65.832  1.00  0.00    -0.334 C  
HETATM    4  C   UNL     1     -10.627  16.000  66.662  1.00  0.00    -0.297 C  
HETATM    5  C   UNL     1     -10.955  15.165  67.908  1.00  0.00    -0.302 C  
HETATM    6  C   UNL     1     -11.152  13.684  67.555  1.00  0.00    -0.296 C  
HETATM    7  C   UNL     1      -9.978  13.142  66.726  1.00  0.00    -0.250 C  
ENDROOT
BRANCH   5   8
HETATM    8  N   UNL     1     -12.092  15.727  68.640  1.00  0.00    -0.504 N  
HETATM    9  H   UNL     1     -12.885  16.109  68.126  1.00  0.00     0.000 HD 
BRANCH   8  10
HETATM   10  C   UNL     1     -12.100  15.743  70.013  1.00  0.00    -0.324 C  
HETATM   11  O   UNL     1     -11.176  16.185  70.687  1.00  0.00    -0.368 OA 
BRANCH  10  12
HETATM   12  N   UNL     1     -13.219  15.117  70.532  1.00  0.00    -0.676 N  
HETATM   13  H   UNL     1     -14.130  15.576  70.540  1.00  0.00     0.000 HD 
BRANCH  12  14
HETATM   14  C   UNL     1     -13.046  13.816  71.051  1.00  0.00    -0.205 A  
HETATM   15  C   UNL     1     -13.031  11.127  71.783  1.00  0.00    -0.526 A  
HETATM   16  C   UNL     1     -13.096   9.730  72.087  1.00  0.00    -0.422 C  
HETATM   17  N   UNL     1     -13.157   8.597  72.328  1.00  0.00    -0.373 NA 
HETATM   18  C   UNL     1     -13.853  13.388  72.105  1.00  0.00    -0.605 A  
HETATM   19  C   UNL     1     -12.162  11.580  70.787  1.00  0.00    -0.463 A  
HETATM   20  C   UNL     1     -12.170  12.923  70.424  1.00  0.00    -0.381 A  
HETATM   21  C   UNL     1     -13.862  12.035  72.452  1.00  0.00     0.224 A  
ENDBRANCH  12  14
ENDBRANCH  10  12
ENDBRANCH   8  10
ENDBRANCH   5   8
BRANCH   7  22
HETATM   22  C   UNL     1      -8.757  12.977  67.601  1.00  0.00    -0.189 A  
HETATM   23  N   UNL     1      -8.098  11.858  67.831  1.00  0.00    -0.138 NA 
HETATM   24  N   UNL     1      -8.181  14.028  68.275  1.00  0.00    -0.146 NA 
HETATM   25  C   UNL     1      -7.076  12.196  68.677  1.00  0.00    -0.103 A  
HETATM   26  H   UNL     1      -8.305  10.932  67.456  1.00  0.00     0.000 HD 
HETATM   27  C   UNL     1      -7.110  13.552  68.983  1.00  0.00    -0.066 A  
HETATM   28  C   UNL     1      -6.075  11.386  69.231  1.00  0.00    -0.065 A  
HETATM   29  C   UNL     1      -6.190  14.163  69.838  1.00  0.00    -0.146 A  
HETATM   30  C   UNL     1      -5.194  13.339  70.378  1.00  0.00    -0.115 A  
HETATM   31  C   UNL     1      -5.134  11.975  70.081  1.00  0.00    -0.083 A  
ENDBRANCH   7  22
TORSDOF 5
ENDMDL
MODEL      115
REMARK 921   NORMALIZED FREE ENERGY PREDICTED BY IDOCK:   -5.29 KCAL/MOL
REMARK 922        TOTAL FREE ENERGY PREDICTED BY IDOCK:   -7.62 KCAL/MOL
REMARK 923 INTER-LIGAND FREE ENERGY PREDICTED BY IDOCK:   -7.56 KCAL/MOL
REMARK 924 INTRA-LIGAND FREE ENERGY PREDICTED BY IDOCK:   -0.06 KCAL/MOL
REMARK 927      BINDING AFFINITY PREDICTED BY RF-SCORE:    0.00 PKD
ROOT
HETATM    1  C   UNL     1     -12.107  12.864  65.920  1.00  0.00    -0.444 C  
HETATM    2  N   UNL     1     -11.693  11.752  66.789  1.00  0.00    -0.571 NA 
HETATM    3  C   UNL     1     -10.369  11.245  66.391  1.00  0.00    -0.245 C  
HETATM    4  C   UNL     1      -9.197  12.159  66.732  1.00  0.00    -0.207 C  
HETATM    5  C   UNL     1      -9.227  12.613  68.199  1.00  0.00    -0.209 C  
HETATM    6  C   UNL     1     -10.610  13.150  68.593  1.00  0.00    -0.259 C  
HETATM    7  C   UNL     1     -11.725  12.161  68.218  1.00  0.00    -0.342 C  
ENDROOT
BRANCH   5   8
HETATM    8  N   UNL     1      -8.151  13.565  68.482  1.00  0.00    -0.225 N  
HETATM    9  H   UNL     1      -8.045  13.942  69.423  1.00  0.00     0.000 HD 
BRANCH   8  10
HETATM   10  C   UNL     1      -7.284  13.955  67.492  1.00  0.00    -0.161 C  
HETATM   11  O   UNL     1      -6.265  13.335  67.206  1.00  0.00    -0.309 OA 
BRANCH  10  12
HETATM   12  N   UNL     1      -7.643  15.170  66.936  1.00  0.00    -0.265 N  
HETATM   13  H   UNL     1      -8.245  15.221  66.113  1.00  0.00     0.000 HD 
BRANCH  12  14
HETATM   14  C   UNL     1      -7.144  16.335  67.556  1.00  0.00    -0.151 A  
HETATM   15  C   UNL     1      -6.236  18.837  68.381  1.00  0.00    -0.228 A  
HETATM   16  C   UNL     1      -5.795  20.158  68.710  1.00  0.00    -0.272 C  
HETATM   17  N   UNL     1      -5.437  21.231  68.968  1.00  0.00    -0.255 NA 
HETATM   18  C   UNL     1      -5.791  16.649  67.428  1.00  0.00    -0.187 A  
HETATM   19  C   UNL     1      -7.572  18.482  68.584  1.00  0.00    -0.330 A  
HETATM   20  C   UNL     1      -8.023  17.231  68.173  1.00  0.00    -0.223 A  
HETATM   21  C   UNL     1      -5.345  17.913  67.820  1.00  0.00    -0.137 A  
ENDBRANCH  12  14
ENDBRANCH  10  12
ENDBRANCH   8  10
ENDBRANCH   5   8
BRANCH   7  22
HETATM   22  C   UNL     1     -11.699  10.972  69.150  1.00  0.00    -0.333 A  
HETATM   23  N   UNL     1     -12.172  10.925  70.381  1.00  0.00    -0.335 NA 
HETATM   24  N   UNL     1     -11.156   9.761  68.792  1.00  0.00    -0.149 NA 
HETATM   25  C   UNL     1     -11.923   9.655  70.827  1.00  0.00    -0.277 A  
HETATM   26  H   UNL     1     -12.629  11.679  70.894  1.00  0.00     0.000 HD 
HETATM   27  C   UNL     1     -11.275   8.903  69.854  1.00  0.00    -0.065 A  
HETATM   28  C   UNL     1     -12.226   9.072  72.065  1.00  0.00    -0.446 A  
HETATM   29  C   UNL     1     -10.889   7.575  70.048  1.00  0.00    -0.260 A  
HETATM   30  C   UNL     1     -11.203   7.008  71.290  1.00  0.00    -0.296 A  
HETATM   31  C   UNL     1     -11.861   7.740  72.283  1.00  0.00    -0.378 A  
ENDBRANCH   7  22
TORSDOF 5
ENDMDL
MODEL      116
REMARK 921   NORMALIZED FREE ENERGY PREDICTED BY IDOCK:   -5.28 KCAL/MOL
REMARK 922        TOTAL FREE ENERGY PREDICTED BY IDOCK:   -7.60 KCAL/MOL
REMARK 923 INTER-LIGAND FREE ENERGY PREDICTED BY IDOCK:   -7.31 KCAL/MOL
REMARK 924 INTRA-LIGAND FREE ENERGY PREDICTED BY IDOCK:   -0.29 KCAL/MOL
REMARK 927      BINDING AFFINITY PREDICTED BY RF-SCORE:    0.00 PKD
ROOT
HETATM    1  C   UNL     1     -13.126  14.136  65.520  1.00  0.00    -0.133 C  
HETATM    2  N   UNL     1     -11.946  14.240  66.393  1.00  0.00    -0.418 NA 
HETATM    3  C   UNL     1     -11.870  13.086  67.305  1.00  0.00    -0.363 C  
HETATM    4  C   UNL     1     -11.468  11.770  66.649  1.00  0.00    -0.337 C  
HETATM    5  C   UNL     1     -10.203  11.915  65.791  1.00  0.00    -0.242 C  
HETATM    6  C   UNL     1     -10.304  13.115  64.839  1.00  0.00    -0.352 C  
HETATM    7  C   UNL     1     -10.707  14.395  65.588  1.00  0.00    -0.320 C  
ENDROOT
BRANCH   5   8
HETATM    8  N   UNL     1      -9.887  10.667  65.094  1.00  0.00    -0.261 N  
HETATM    9  H   UNL     1     -10.069  10.587  64.094  1.00  0.00     0.000 HD 
BRANCH   8  10
HETATM   10  C   UNL     1      -9.349   9.603  65.774  1.00  0.00    -0.228 C  
HETATM   11  O   UNL     1      -8.166   9.533  66.088  1.00  0.00    -0.113 OA 
BRANCH  10  12
HETATM   12  N   UNL     1     -10.273   8.591  65.968  1.00  0.00    -0.327 N  
HETATM   13  H   UNL     1     -10.830   8.223  65.196  1.00  0.00     0.000 HD 
BRANCH  12  14
HETATM   14  C   UNL     1     -10.411   8.089  67.280  1.00  0.00    -0.301 A  
HETATM   15  C   UNL     1     -11.130   7.143  69.800  1.00  0.00    -0.239 A  
HETATM   16  C   UNL     1     -11.600   6.670  71.067  1.00  0.00    -0.346 C  
HETATM   17  N   UNL     1     -11.988   6.290  72.091  1.00  0.00    -0.326 NA 
HETATM   18  C   UNL     1     -10.499   8.982  68.347  1.00  0.00    -0.234 A  
HETATM   19  C   UNL     1     -10.956   6.243  68.746  1.00  0.00    -0.424 A  
HETATM   20  C   UNL     1     -10.595   6.718  67.488  1.00  0.00    -0.348 A  
HETATM   21  C   UNL     1     -10.884   8.508  69.603  1.00  0.00    -0.157 A  
ENDBRANCH  12  14
ENDBRANCH  10  12
ENDBRANCH   8  10
ENDBRANCH   5   8
BRANCH   7  22
HETATM   22  C   UNL     1      -9.548  14.897  66.418  1.00  0.00    -0.293 A  
HETATM   23  N   UNL     1      -9.232  14.515  67.641  1.00  0.00    -0.190 NA 
HETATM   24  N   UNL     1      -8.663  15.844  65.960  1.00  0.00    -0.287 NA 
HETATM   25  C   UNL     1      -8.121  15.238  67.980  1.00  0.00    -0.137 A  
HETATM   26  H   UNL     1      -9.716  13.825  68.216  1.00  0.00     0.000 HD 
HETATM   27  C   UNL     1      -7.745  16.090  66.948  1.00  0.00    -0.244 A  
HETATM   28  C   UNL     1      -7.374  15.217  69.166  1.00  0.00    -0.167 A  
HETATM   29  C   UNL     1      -6.651  16.953  67.032  1.00  0.00    -0.241 A  
HETATM   30  C   UNL     1      -5.914  16.916  68.222  1.00  0.00    -0.129 A  
HETATM   31  C   UNL     1      -6.266  16.063  69.272  1.00  0.00    -0.151 A  
ENDBRANCH   7  22
TORSDOF 5
ENDMDL
MODEL      117
REMARK 921   NORMALIZED FREE ENERGY PREDICTED BY IDOCK:   -5.28 KCAL/MOL
REMARK 922        TOTAL FREE ENERGY PREDICTED BY IDOCK:   -7.60 KCAL/MOL
REMARK 923 INTER-LIGAND FREE ENERGY PREDICTED BY IDOCK:   -6.93 KCAL/MOL
REMARK 924 INTRA-LIGAND FREE ENERGY PREDICTED BY IDOCK:   -0.67 KCAL/MOL
REMARK 927      BINDING AFFINITY PREDICTED BY RF-SCORE:    0.00 PKD
ROOT
HETATM    1  C   UNL     1     -12.488  13.861  65.853  1.00  0.00    -0.481 C  
HETATM    2  N   UNL     1     -12.152  12.672  66.651  1.00  0.00    -0.539 NA 
HETATM    3  C   UNL     1     -11.169  11.832  65.946  1.00  0.00    -0.290 C  
HETATM    4  C   UNL     1      -9.754  12.397  65.897  1.00  0.00    -0.237 C  
HETATM    5  C   UNL     1      -9.257  12.830  67.283  1.00  0.00    -0.203 C  
HETATM    6  C   UNL     1     -10.287  13.714  67.999  1.00  0.00    -0.250 C  
HETATM    7  C   UNL     1     -11.679  13.062  68.005  1.00  0.00    -0.355 C  
ENDROOT
BRANCH   5   8
HETATM    8  N   UNL     1      -7.936  13.457  67.202  1.00  0.00    -0.363 N  
HETATM    9  H   UNL     1      -7.832  14.357  66.735  1.00  0.00     0.000 HD 
BRANCH   8  10
HETATM   10  C   UNL     1      -6.836  12.844  67.748  1.00  0.00    -0.138 C  
HETATM   11  O   UNL     1      -5.750  12.780  67.183  1.00  0.00    -0.332 OA 
BRANCH  10  12
HETATM   12  N   UNL     1      -7.129  12.229  68.952  1.00  0.00    -0.154 N  
HETATM   13  H   UNL     1      -7.403  12.769  69.774  1.00  0.00     0.000 HD 
BRANCH  12  14
HETATM   14  C   UNL     1      -7.035  10.821  68.996  1.00  0.00    -0.085 A  
HETATM   15  C   UNL     1      -7.303   8.050  69.100  1.00  0.00    -0.086 A  
HETATM   16  C   UNL     1      -7.545   6.640  69.154  1.00  0.00    -0.100 C  
HETATM   17  N   UNL     1      -7.749   5.499  69.199  1.00  0.00    -0.086 NA 
HETATM   18  C   UNL     1      -7.015  10.177  70.233  1.00  0.00    -0.150 A  
HETATM   19  C   UNL     1      -7.236   8.694  67.862  1.00  0.00    -0.088 A  
HETATM   20  C   UNL     1      -7.100  10.079  67.813  1.00  0.00    -0.086 A  
HETATM   21  C   UNL     1      -7.175   8.791  70.282  1.00  0.00    -0.049 A  
ENDBRANCH  12  14
ENDBRANCH  10  12
ENDBRANCH   8  10
ENDBRANCH   5   8
BRANCH   7  22
HETATM   22  C   UNL     1     -11.705  11.902  68.973  1.00  0.00    -0.331 A  
HETATM   23  N   UNL     1     -10.993  10.794  68.893  1.00  0.00    -0.222 NA 
HETATM   24  N   UNL     1     -12.508  11.885  70.089  1.00  0.00    -0.136 NA 
HETATM   25  C   UNL     1     -11.351  10.044  69.980  1.00  0.00    -0.275 A  
HETATM   26  H   UNL     1     -10.317  10.547  68.170  1.00  0.00     0.000 HD 
HETATM   27  C   UNL     1     -12.310  10.698  70.745  1.00  0.00    -0.376 A  
HETATM   28  C   UNL     1     -10.893   8.780  70.378  1.00  0.00    -0.256 A  
HETATM   29  C   UNL     1     -12.862  10.152  71.905  1.00  0.00    -0.526 A  
HETATM   30  C   UNL     1     -12.390   8.891  72.290  1.00  0.00    -0.430 A  
HETATM   31  C   UNL     1     -11.421   8.215  71.543  1.00  0.00    -0.310 A  
ENDBRANCH   7  22
TORSDOF 5
ENDMDL
MODEL      118
REMARK 921   NORMALIZED FREE ENERGY PREDICTED BY IDOCK:   -5.28 KCAL/MOL
REMARK 922        TOTAL FREE ENERGY PREDICTED BY IDOCK:   -7.60 KCAL/MOL
REMARK 923 INTER-LIGAND FREE ENERGY PREDICTED BY IDOCK:   -7.03 KCAL/MOL
REMARK 924 INTRA-LIGAND FREE ENERGY PREDICTED BY IDOCK:   -0.57 KCAL/MOL
REMARK 927      BINDING AFFINITY PREDICTED BY RF-SCORE:    0.00 PKD
ROOT
HETATM    1  C   UNL     1      -8.030  17.870  66.147  1.00  0.00    -0.201 C  
HETATM    2  N   UNL     1      -7.622  16.886  67.161  1.00  0.00    -0.165 NA 
HETATM    3  C   UNL     1      -7.681  17.473  68.510  1.00  0.00    -0.272 C  
HETATM    4  C   UNL     1      -9.087  17.692  69.058  1.00  0.00    -0.034 C  
HETATM    5  C   UNL     1      -9.957  16.433  68.935  1.00  0.00    -0.257 C  
HETATM    6  C   UNL     1      -9.892  15.842  67.521  1.00  0.00    -0.229 C  
HETATM    7  C   UNL     1      -8.440  15.650  67.056  1.00  0.00    -0.226 C  
ENDROOT
BRANCH   5   8
HETATM    8  N   UNL     1     -11.329  16.691  69.377  1.00  0.00    -0.268 N  
HETATM    9  H   UNL     1     -11.840  17.489  69.001  1.00  0.00     0.000 HD 
BRANCH   8  10
HETATM   10  C   UNL     1     -11.935  15.867  70.293  1.00  0.00    -0.305 C  
HETATM   11  O   UNL     1     -11.815  16.005  71.506  1.00  0.00    -0.430 OA 
BRANCH  10  12
HETATM   12  N   UNL     1     -12.604  14.819  69.686  1.00  0.00    -0.579 N  
HETATM   13  H   UNL     1     -13.163  14.961  68.844  1.00  0.00     0.000 HD 
BRANCH  12  14
HETATM   14  C   UNL     1     -12.480  13.546  70.281  1.00  0.00    -0.239 A  
HETATM   15  C   UNL     1     -12.587  10.915  71.193  1.00  0.00    -0.532 A  
HETATM   16  C   UNL     1     -12.721   9.547  71.595  1.00  0.00    -0.388 C  
HETATM   17  N   UNL     1     -12.838   8.440  71.917  1.00  0.00    -0.339 NA 
HETATM   18  C   UNL     1     -13.241  13.243  71.409  1.00  0.00    -0.304 A  
HETATM   19  C   UNL     1     -11.760  11.242  70.116  1.00  0.00    -0.429 A  
HETATM   20  C   UNL     1     -11.706  12.557  69.663  1.00  0.00    -0.372 A  
HETATM   21  C   UNL     1     -13.312  11.919  71.848  1.00  0.00    -0.405 A  
ENDBRANCH  12  14
ENDBRANCH  10  12
ENDBRANCH   8  10
ENDBRANCH   5   8
BRANCH   7  22
HETATM   22  C   UNL     1      -7.811  14.487  67.788  1.00  0.00    -0.161 A  
HETATM   23  N   UNL     1      -8.127  13.212  67.662  1.00  0.00    -0.162 NA 
HETATM   24  N   UNL     1      -6.795  14.648  68.701  1.00  0.00    -0.089 NA 
HETATM   25  C   UNL     1      -7.299  12.538  68.517  1.00  0.00    -0.115 A  
HETATM   26  H   UNL     1      -8.841  12.812  67.053  1.00  0.00     0.000 HD 
HETATM   27  C   UNL     1      -6.457  13.414  69.193  1.00  0.00    -0.105 A  
HETATM   28  C   UNL     1      -7.212  11.162  68.770  1.00  0.00    -0.098 A  
HETATM   29  C   UNL     1      -5.519  12.994  70.138  1.00  0.00    -0.122 A  
HETATM   30  C   UNL     1      -5.443  11.616  70.375  1.00  0.00    -0.135 A  
HETATM   31  C   UNL     1      -6.273  10.713  69.704  1.00  0.00    -0.069 A  
ENDBRANCH   7  22
TORSDOF 5
ENDMDL
MODEL      119
REMARK 921   NORMALIZED FREE ENERGY PREDICTED BY IDOCK:   -5.27 KCAL/MOL
REMARK 922        TOTAL FREE ENERGY PREDICTED BY IDOCK:   -7.59 KCAL/MOL
REMARK 923 INTER-LIGAND FREE ENERGY PREDICTED BY IDOCK:   -6.72 KCAL/MOL
REMARK 924 INTRA-LIGAND FREE ENERGY PREDICTED BY IDOCK:   -0.87 KCAL/MOL
REMARK 927      BINDING AFFINITY PREDICTED BY RF-SCORE:    0.00 PKD
ROOT
HETATM    1  C   UNL     1      -8.452   4.163  66.291  1.00  0.00    -0.109 C  
HETATM    2  N   UNL     1      -9.140   5.399  65.888  1.00  0.00    -0.156 NA 
HETATM    3  C   UNL     1     -10.488   5.461  66.478  1.00  0.00    -0.294 C  
HETATM    4  C   UNL     1     -10.525   5.739  67.977  1.00  0.00    -0.286 C  
HETATM    5  C   UNL     1      -9.669   6.954  68.359  1.00  0.00    -0.137 C  
HETATM    6  C   UNL     1      -8.264   6.867  67.746  1.00  0.00    -0.117 C  
HETATM    7  C   UNL     1      -8.326   6.592  66.235  1.00  0.00    -0.125 C  
ENDROOT
BRANCH   5   8
HETATM    8  N   UNL     1      -9.639   7.148  69.811  1.00  0.00    -0.156 N  
HETATM    9  H   UNL     1      -8.900   6.714  70.363  1.00  0.00     0.000 HD 
BRANCH   8  10
HETATM   10  C   UNL     1     -10.598   7.908  70.434  1.00  0.00    -0.228 C  
HETATM   11  O   UNL     1     -11.756   7.536  70.590  1.00  0.00    -0.281 OA 
BRANCH  10  12
HETATM   12  N   UNL     1     -10.127   9.165  70.768  1.00  0.00    -0.245 N  
HETATM   13  H   UNL     1      -9.595   9.324  71.624  1.00  0.00     0.000 HD 
BRANCH  12  14
HETATM   14  C   UNL     1     -10.414  10.218  69.874  1.00  0.00    -0.256 A  
HETATM   15  C   UNL     1     -10.855  12.571  68.448  1.00  0.00    -0.266 A  
HETATM   16  C   UNL     1     -11.049  13.833  67.799  1.00  0.00    -0.268 C  
HETATM   17  N   UNL     1     -11.205  14.859  67.282  1.00  0.00    -0.337 NA 
HETATM   18  C   UNL     1     -11.680  10.801  69.890  1.00  0.00    -0.412 A  
HETATM   19  C   UNL     1      -9.614  11.934  68.367  1.00  0.00    -0.196 A  
HETATM   20  C   UNL     1      -9.397  10.758  69.079  1.00  0.00    -0.168 A  
HETATM   21  C   UNL     1     -11.891  11.994  69.195  1.00  0.00    -0.369 A  
ENDBRANCH  12  14
ENDBRANCH  10  12
ENDBRANCH   8  10
ENDBRANCH   5   8
BRANCH   7  22
HETATM   22  C   UNL     1      -8.788   7.830  65.501  1.00  0.00    -0.010 A  
HETATM   23  N   UNL     1      -8.528   8.144  64.246  1.00  0.00    -0.387 NA 
HETATM   24  N   UNL     1      -9.565   8.796  66.094  1.00  0.00    -0.254 NA 
HETATM   25  C   UNL     1      -9.149   9.344  64.028  1.00  0.00    -0.060 A  
HETATM   26  H   UNL     1      -7.979   7.605  63.577  1.00  0.00     0.000 HD 
HETATM   27  C   UNL     1      -9.800   9.785  65.175  1.00  0.00    -0.224 A  
HETATM   28  C   UNL     1      -9.196  10.122  62.863  1.00  0.00    -0.316 A  
HETATM   29  C   UNL     1     -10.502  10.990  65.236  1.00  0.00    -0.316 A  
HETATM   30  C   UNL     1     -10.543  11.752  64.062  1.00  0.00    -0.425 A  
HETATM   31  C   UNL     1      -9.903  11.328  62.894  1.00  0.00    -0.317 A  
ENDBRANCH   7  22
TORSDOF 5
ENDMDL
MODEL      120
REMARK 921   NORMALIZED FREE ENERGY PREDICTED BY IDOCK:   -5.27 KCAL/MOL
REMARK 922        TOTAL FREE ENERGY PREDICTED BY IDOCK:   -7.58 KCAL/MOL
REMARK 923 INTER-LIGAND FREE ENERGY PREDICTED BY IDOCK:   -7.31 KCAL/MOL
REMARK 924 INTRA-LIGAND FREE ENERGY PREDICTED BY IDOCK:   -0.27 KCAL/MOL
REMARK 927      BINDING AFFINITY PREDICTED BY RF-SCORE:    0.00 PKD
ROOT
HETATM    1  C   UNL     1      -6.857  10.976  66.875  1.00  0.00    -0.121 C  
HETATM    2  N   UNL     1      -7.308   9.609  67.174  1.00  0.00    -0.087 NA 
HETATM    3  C   UNL     1      -7.847   9.525  68.542  1.00  0.00    -0.085 C  
HETATM    4  C   UNL     1      -9.205  10.188  68.743  1.00  0.00    -0.164 C  
HETATM    5  C   UNL     1     -10.228   9.741  67.689  1.00  0.00    -0.213 C  
HETATM    6  C   UNL     1      -9.654   9.845  66.269  1.00  0.00    -0.265 C  
HETATM    7  C   UNL     1      -8.291   9.144  66.160  1.00  0.00    -0.119 C  
ENDROOT
BRANCH   5   8
HETATM    8  N   UNL     1     -11.495  10.459  67.840  1.00  0.00    -0.454 N  
HETATM    9  H   UNL     1     -12.305   9.979  68.231  1.00  0.00     0.000 HD 
BRANCH   8  10
HETATM   10  C   UNL     1     -11.603  11.773  67.459  1.00  0.00    -0.291 C  
HETATM   11  O   UNL     1     -12.155  12.131  66.423  1.00  0.00    -0.630 OA 
BRANCH  10  12
HETATM   12  N   UNL     1     -10.935  12.621  68.323  1.00  0.00    -0.235 N  
HETATM   13  H   UNL     1      -9.922  12.736  68.279  1.00  0.00     0.000 HD 
BRANCH  12  14
HETATM   14  C   UNL     1     -11.714  13.320  69.270  1.00  0.00    -0.326 A  
HETATM   15  C   UNL     1     -12.860  14.768  71.357  1.00  0.00    -0.409 A  
HETATM   16  C   UNL     1     -13.353  15.523  72.469  1.00  0.00    -0.497 C  
HETATM   17  N   UNL     1     -13.744  16.132  73.374  1.00  0.00    -0.516 NA 
HETATM   18  C   UNL     1     -12.204  12.642  70.385  1.00  0.00    -0.368 A  
HETATM   19  C   UNL     1     -12.445  15.431  70.199  1.00  0.00    -0.370 A  
HETATM   20  C   UNL     1     -11.874  14.705  69.157  1.00  0.00    -0.347 A  
HETATM   21  C   UNL     1     -12.755  13.373  71.440  1.00  0.00    -0.411 A  
ENDBRANCH  12  14
ENDBRANCH  10  12
ENDBRANCH   8  10
ENDBRANCH   5   8
BRANCH   7  22
HETATM   22  C   UNL     1      -8.475   7.645  66.191  1.00  0.00    -0.143 A  
HETATM   23  N   UNL     1      -9.570   6.979  65.880  1.00  0.00    -0.385 NA 
HETATM   24  N   UNL     1      -7.470   6.782  66.562  1.00  0.00    -0.077 NA 
HETATM   25  C   UNL     1      -9.265   5.657  66.060  1.00  0.00    -0.152 A  
HETATM   26  H   UNL     1     -10.461   7.368  65.569  1.00  0.00     0.000 HD 
HETATM   27  C   UNL     1      -7.955   5.502  66.499  1.00  0.00    -0.101 A  
HETATM   28  C   UNL     1     -10.068   4.525  65.866  1.00  0.00    -0.279 A  
HETATM   29  C   UNL     1      -7.386   4.258  66.775  1.00  0.00    -0.080 A  
HETATM   30  C   UNL     1      -8.202   3.137  66.572  1.00  0.00    -0.090 A  
HETATM   31  C   UNL     1      -9.519   3.265  66.124  1.00  0.00    -0.091 A  
ENDBRANCH   7  22
TORSDOF 5
ENDMDL
MODEL      121
REMARK 921   NORMALIZED FREE ENERGY PREDICTED BY IDOCK:   -5.25 KCAL/MOL
REMARK 922        TOTAL FREE ENERGY PREDICTED BY IDOCK:   -7.56 KCAL/MOL
REMARK 923 INTER-LIGAND FREE ENERGY PREDICTED BY IDOCK:   -7.07 KCAL/MOL
REMARK 924 INTRA-LIGAND FREE ENERGY PREDICTED BY IDOCK:   -0.50 KCAL/MOL
REMARK 927      BINDING AFFINITY PREDICTED BY RF-SCORE:    0.00 PKD
ROOT
HETATM    1  C   UNL     1     -12.063  13.492  69.837  1.00  0.00    -0.341 C  
HETATM    2  N   UNL     1     -11.293  12.679  68.884  1.00  0.00    -0.278 NA 
HETATM    3  C   UNL     1     -12.034  12.512  67.623  1.00  0.00    -0.221 C  
HETATM    4  C   UNL     1     -12.106  13.758  66.747  1.00  0.00    -0.460 C  
HETATM    5  C   UNL     1     -10.725  14.391  66.528  1.00  0.00    -0.306 C  
HETATM    6  C   UNL     1      -9.972  14.568  67.854  1.00  0.00    -0.226 C  
HETATM    7  C   UNL     1      -9.944  13.262  68.664  1.00  0.00    -0.122 C  
ENDROOT
BRANCH   5   8
HETATM    8  N   UNL     1     -10.826  15.638  65.766  1.00  0.00    -0.324 N  
HETATM    9  H   UNL     1     -11.642  15.806  65.179  1.00  0.00     0.000 HD 
BRANCH   8  10
HETATM   10  C   UNL     1      -9.832  16.582  65.835  1.00  0.00    -0.295 C  
HETATM   11  O   UNL     1      -8.652  16.335  65.611  1.00  0.00    -0.260 OA 
BRANCH  10  12
HETATM   12  N   UNL     1     -10.306  17.803  66.280  1.00  0.00    -0.374 N  
HETATM   13  H   UNL     1     -11.270  18.093  66.114  1.00  0.00     0.000 HD 
BRANCH  12  14
HETATM   14  C   UNL     1      -9.398  18.631  66.974  1.00  0.00    -0.294 A  
HETATM   15  C   UNL     1      -7.284  20.009  68.155  1.00  0.00    -0.320 A  
HETATM   16  C   UNL     1      -6.133  20.654  68.711  1.00  0.00    -0.331 C  
HETATM   17  N   UNL     1      -5.195  21.168  69.159  1.00  0.00    -0.325 NA 
HETATM   18  C   UNL     1      -8.947  18.243  68.235  1.00  0.00    -0.318 A  
HETATM   19  C   UNL     1      -7.798  20.445  66.931  1.00  0.00    -0.342 A  
HETATM   20  C   UNL     1      -8.856  19.756  66.344  1.00  0.00    -0.428 A  
HETATM   21  C   UNL     1      -7.871  18.920  68.812  1.00  0.00    -0.359 A  
ENDBRANCH  12  14
ENDBRANCH  10  12
ENDBRANCH   8  10
ENDBRANCH   5   8
BRANCH   7  22
HETATM   22  C   UNL     1      -8.994  12.275  68.025  1.00  0.00    -0.190 A  
HETATM   23  N   UNL     1      -7.806  12.541  67.516  1.00  0.00    -0.157 NA 
HETATM   24  N   UNL     1      -9.286  10.937  67.906  1.00  0.00    -0.149 NA 
HETATM   25  C   UNL     1      -7.324  11.347  67.054  1.00  0.00    -0.144 A  
HETATM   26  H   UNL     1      -7.343  13.449  67.475  1.00  0.00     0.000 HD 
HETATM   27  C   UNL     1      -8.237  10.321  67.275  1.00  0.00    -0.121 A  
HETATM   28  C   UNL     1      -6.103  11.063  66.428  1.00  0.00    -0.141 A  
HETATM   29  C   UNL     1      -8.005   8.999  66.890  1.00  0.00    -0.105 A  
HETATM   30  C   UNL     1      -6.778   8.734  66.269  1.00  0.00    -0.073 A  
HETATM   31  C   UNL     1      -5.841   9.745  66.042  1.00  0.00    -0.062 A  
ENDBRANCH   7  22
TORSDOF 5
ENDMDL
MODEL      122
REMARK 921   NORMALIZED FREE ENERGY PREDICTED BY IDOCK:   -5.22 KCAL/MOL
REMARK 922        TOTAL FREE ENERGY PREDICTED BY IDOCK:   -7.52 KCAL/MOL
REMARK 923 INTER-LIGAND FREE ENERGY PREDICTED BY IDOCK:   -7.47 KCAL/MOL
REMARK 924 INTRA-LIGAND FREE ENERGY PREDICTED BY IDOCK:   -0.05 KCAL/MOL
REMARK 927      BINDING AFFINITY PREDICTED BY RF-SCORE:    0.00 PKD
ROOT
HETATM    1  C   UNL     1      -6.979   9.551  70.444  1.00  0.00    -0.112 C  
HETATM    2  N   UNL     1      -7.804   8.423  70.902  1.00  0.00    -0.089 NA 
HETATM    3  C   UNL     1      -9.097   8.900  71.422  1.00  0.00    -0.248 C  
HETATM    4  C   UNL     1     -10.076   9.394  70.363  1.00  0.00    -0.310 C  
HETATM    5  C   UNL     1     -10.248   8.383  69.220  1.00  0.00    -0.208 C  
HETATM    6  C   UNL     1      -8.892   7.906  68.683  1.00  0.00    -0.134 C  
HETATM    7  C   UNL     1      -7.976   7.421  69.818  1.00  0.00    -0.125 C  
ENDROOT
BRANCH   5   8
HETATM    8  N   UNL     1     -11.116   8.915  68.167  1.00  0.00    -0.449 N  
HETATM    9  H   UNL     1     -11.709   8.280  67.633  1.00  0.00     0.000 HD 
BRANCH   8  10
HETATM   10  C   UNL     1     -11.139  10.259  67.893  1.00  0.00    -0.276 C  
HETATM   11  O   UNL     1     -12.108  10.977  68.120  1.00  0.00    -0.610 OA 
BRANCH  10  12
HETATM   12  N   UNL     1      -9.990  10.677  67.246  1.00  0.00    -0.183 N  
HETATM   13  H   UNL     1      -9.121  10.146  67.309  1.00  0.00     0.000 HD 
BRANCH  12  14
HETATM   14  C   UNL     1     -10.071  11.869  66.495  1.00  0.00    -0.203 A  
HETATM   15  C   UNL     1     -10.588  14.320  65.274  1.00  0.00    -0.396 A  
HETATM   16  C   UNL     1     -10.932  15.592  64.715  1.00  0.00    -0.400 C  
HETATM   17  N   UNL     1     -11.218  16.622  64.267  1.00  0.00    -1.080 NA 
HETATM   18  C   UNL     1     -10.902  11.915  65.376  1.00  0.00    -0.343 A  
HETATM   19  C   UNL     1      -9.689  14.253  66.342  1.00  0.00    -0.315 A  
HETATM   20  C   UNL     1      -9.431  13.027  66.949  1.00  0.00    -0.242 A  
HETATM   21  C   UNL     1     -11.179  13.149  64.783  1.00  0.00    -0.347 A  
ENDBRANCH  12  14
ENDBRANCH  10  12
ENDBRANCH   8  10
ENDBRANCH   5   8
BRANCH   7  22
HETATM   22  C   UNL     1      -8.462   6.090  70.344  1.00  0.00    -0.132 A  
HETATM   23  N   UNL     1      -9.042   5.868  71.509  1.00  0.00    -0.143 NA 
HETATM   24  N   UNL     1      -8.346   4.923  69.628  1.00  0.00    -0.083 NA 
HETATM   25  C   UNL     1      -9.301   4.525  71.545  1.00  0.00    -0.145 A  
HETATM   26  H   UNL     1      -9.254   6.555  72.233  1.00  0.00     0.000 HD 
HETATM   27  C   UNL     1      -8.865   3.901  70.381  1.00  0.00    -0.084 A  
HETATM   28  C   UNL     1      -9.910   3.763  72.551  1.00  0.00    -0.215 A  
HETATM   29  C   UNL     1      -8.991   2.529  70.158  1.00  0.00    -0.160 A  
HETATM   30  C   UNL     1      -9.606   1.784  71.173  1.00  0.00    -0.206 A  
HETATM   31  C   UNL     1     -10.060   2.388  72.349  1.00  0.00    -0.230 A  
ENDBRANCH   7  22
TORSDOF 5
ENDMDL
MODEL      123
REMARK 921   NORMALIZED FREE ENERGY PREDICTED BY IDOCK:   -5.21 KCAL/MOL
REMARK 922        TOTAL FREE ENERGY PREDICTED BY IDOCK:   -7.51 KCAL/MOL
REMARK 923 INTER-LIGAND FREE ENERGY PREDICTED BY IDOCK:   -6.53 KCAL/MOL
REMARK 924 INTRA-LIGAND FREE ENERGY PREDICTED BY IDOCK:   -0.98 KCAL/MOL
REMARK 927      BINDING AFFINITY PREDICTED BY RF-SCORE:    0.00 PKD
ROOT
HETATM    1  C   UNL     1      -9.632  18.324  66.430  1.00  0.00    -0.305 C  
HETATM    2  N   UNL     1      -8.935  17.219  67.106  1.00  0.00    -0.222 NA 
HETATM    3  C   UNL     1      -8.977  17.394  68.568  1.00  0.00    -0.276 C  
HETATM    4  C   UNL     1     -10.337  17.142  69.210  1.00  0.00    -0.257 C  
HETATM    5  C   UNL     1     -10.944  15.803  68.769  1.00  0.00    -0.291 C  
HETATM    6  C   UNL     1     -10.903  15.643  67.243  1.00  0.00    -0.298 C  
HETATM    7  C   UNL     1      -9.495  15.908  66.687  1.00  0.00    -0.241 C  
ENDROOT
BRANCH   5   8
HETATM    8  N   UNL     1     -12.290  15.623  69.319  1.00  0.00    -0.579 N  
HETATM    9  H   UNL     1     -13.017  16.305  69.107  1.00  0.00     0.000 HD 
BRANCH   8  10
HETATM   10  C   UNL     1     -12.580  14.544  70.117  1.00  0.00    -0.288 C  
HETATM   11  O   UNL     1     -13.658  14.396  70.682  1.00  0.00    -0.136 OA 
BRANCH  10  12
HETATM   12  N   UNL     1     -11.488  13.712  70.282  1.00  0.00    -0.510 N  
HETATM   13  H   UNL     1     -10.697  13.981  70.868  1.00  0.00     0.000 HD 
BRANCH  12  14
HETATM   14  C   UNL     1     -11.514  12.474  69.605  1.00  0.00    -0.185 A  
HETATM   15  C   UNL     1     -11.123  10.105  68.191  1.00  0.00    -0.290 A  
HETATM   16  C   UNL     1     -10.822   8.914  67.456  1.00  0.00    -0.038 C  
HETATM   17  N   UNL     1     -10.570   7.953  66.858  1.00  0.00    -0.331 NA 
HETATM   18  C   UNL     1     -11.734  12.454  68.228  1.00  0.00    -0.398 A  
HETATM   19  C   UNL     1     -10.988  10.113  69.582  1.00  0.00    -0.305 A  
HETATM   20  C   UNL     1     -11.186  11.297  70.286  1.00  0.00    -0.049 A  
HETATM   21  C   UNL     1     -11.513  11.270  67.520  1.00  0.00    -0.324 A  
ENDBRANCH  12  14
ENDBRANCH  10  12
ENDBRANCH   8  10
ENDBRANCH   5   8
BRANCH   7  22
HETATM   22  C   UNL     1      -8.576  14.760  67.033  1.00  0.00    -0.234 A  
HETATM   23  N   UNL     1      -8.928  13.508  67.255  1.00  0.00    -0.212 NA 
HETATM   24  N   UNL     1      -7.215  14.911  67.157  1.00  0.00    -0.170 NA 
HETATM   25  C   UNL     1      -7.767  12.838  67.531  1.00  0.00    -0.168 A  
HETATM   26  H   UNL     1      -9.871  13.118  67.225  1.00  0.00     0.000 HD 
HETATM   27  C   UNL     1      -6.674  13.697  67.488  1.00  0.00    -0.124 A  
HETATM   28  C   UNL     1      -7.571  11.484  67.833  1.00  0.00    -0.113 A  
HETATM   29  C   UNL     1      -5.367  13.279  67.745  1.00  0.00    -0.088 A  
HETATM   30  C   UNL     1      -5.189  11.922  68.041  1.00  0.00    -0.050 A  
HETATM   31  C   UNL     1      -6.270  11.036  68.083  1.00  0.00    -0.049 A  
ENDBRANCH   7  22
TORSDOF 5
ENDMDL
MODEL      124
REMARK 921   NORMALIZED FREE ENERGY PREDICTED BY IDOCK:   -5.21 KCAL/MOL
REMARK 922        TOTAL FREE ENERGY PREDICTED BY IDOCK:   -7.51 KCAL/MOL
REMARK 923 INTER-LIGAND FREE ENERGY PREDICTED BY IDOCK:   -7.13 KCAL/MOL
REMARK 924 INTRA-LIGAND FREE ENERGY PREDICTED BY IDOCK:   -0.38 KCAL/MOL
REMARK 927      BINDING AFFINITY PREDICTED BY RF-SCORE:    0.00 PKD
ROOT
HETATM    1  C   UNL     1     -13.465   8.099  71.521  1.00  0.00    -0.286 C  
HETATM    2  N   UNL     1     -12.383   7.103  71.550  1.00  0.00    -0.350 NA 
HETATM    3  C   UNL     1     -11.751   6.981  70.225  1.00  0.00    -0.236 C  
HETATM    4  C   UNL     1     -10.874   8.160  69.817  1.00  0.00    -0.190 C  
HETATM    5  C   UNL     1      -9.861   8.531  70.910  1.00  0.00    -0.189 C  
HETATM    6  C   UNL     1     -10.538   8.665  72.281  1.00  0.00    -0.375 C  
HETATM    7  C   UNL     1     -11.393   7.431  72.609  1.00  0.00    -0.313 C  
ENDROOT
BRANCH   5   8
HETATM    8  N   UNL     1      -9.094   9.723  70.541  1.00  0.00    -0.330 N  
HETATM    9  H   UNL     1      -8.460  10.145  71.218  1.00  0.00     0.000 HD 
BRANCH   8  10
HETATM   10  C   UNL     1      -9.220  10.276  69.291  1.00  0.00    -0.202 C  
HETATM   11  O   UNL     1      -8.702   9.800  68.287  1.00  0.00    -0.118 OA 
BRANCH  10  12
HETATM   12  N   UNL     1      -9.911  11.475  69.322  1.00  0.00    -0.403 N  
HETATM   13  H   UNL     1     -10.137  11.937  70.204  1.00  0.00     0.000 HD 
BRANCH  12  14
HETATM   14  C   UNL     1     -10.289  12.032  68.082  1.00  0.00    -0.198 A  
HETATM   15  C   UNL     1     -11.338  13.371  65.875  1.00  0.00    -0.327 A  
HETATM   16  C   UNL     1     -11.939  14.111  64.807  1.00  0.00    -0.431 C  
HETATM   17  N   UNL     1     -12.433  14.712  63.947  1.00  0.00    -0.792 NA 
HETATM   18  C   UNL     1     -11.341  11.458  67.369  1.00  0.00    -0.359 A  
HETATM   19  C   UNL     1     -10.228  13.897  66.543  1.00  0.00    -0.280 A  
HETATM   20  C   UNL     1      -9.705  13.225  67.644  1.00  0.00    -0.219 A  
HETATM   21  C   UNL     1     -11.881  12.145  66.279  1.00  0.00    -0.320 A  
ENDBRANCH  12  14
ENDBRANCH  10  12
ENDBRANCH   8  10
ENDBRANCH   5   8
BRANCH   7  22
HETATM   22  C   UNL     1     -10.503   6.256  72.940  1.00  0.00    -0.218 A  
HETATM   23  N   UNL     1      -9.233   6.305  73.295  1.00  0.00    -0.132 NA 
HETATM   24  N   UNL     1     -10.948   4.956  72.904  1.00  0.00    -0.255 NA 
HETATM   25  C   UNL     1      -8.851   5.005  73.488  1.00  0.00    -0.115 A  
HETATM   26  H   UNL     1      -8.655   7.138  73.403  1.00  0.00     0.000 HD 
HETATM   27  C   UNL     1      -9.905   4.132  73.239  1.00  0.00    -0.128 A  
HETATM   28  C   UNL     1      -7.606   4.492  73.878  1.00  0.00    -0.089 A  
HETATM   29  C   UNL     1      -9.788   2.746  73.347  1.00  0.00    -0.160 A  
HETATM   30  C   UNL     1      -8.538   2.251  73.742  1.00  0.00    -0.063 A  
HETATM   31  C   UNL     1      -7.465   3.107  74.005  1.00  0.00    -0.052 A  
ENDBRANCH   7  22
TORSDOF 5
ENDMDL
MODEL      125
REMARK 921   NORMALIZED FREE ENERGY PREDICTED BY IDOCK:   -5.18 KCAL/MOL
REMARK 922        TOTAL FREE ENERGY PREDICTED BY IDOCK:   -7.47 KCAL/MOL
REMARK 923 INTER-LIGAND FREE ENERGY PREDICTED BY IDOCK:   -7.11 KCAL/MOL
REMARK 924 INTRA-LIGAND FREE ENERGY PREDICTED BY IDOCK:   -0.35 KCAL/MOL
REMARK 927      BINDING AFFINITY PREDICTED BY RF-SCORE:    0.00 PKD
ROOT
HETATM    1  C   UNL     1      -7.249   9.511  70.555  1.00  0.00    -0.135 C  
HETATM    2  N   UNL     1      -8.213   8.528  71.072  1.00  0.00    -0.126 NA 
HETATM    3  C   UNL     1      -9.575   9.088  71.080  1.00  0.00    -0.279 C  
HETATM    4  C   UNL     1     -10.220   9.235  69.706  1.00  0.00    -0.225 C  
HETATM    5  C   UNL     1     -10.129   7.942  68.884  1.00  0.00    -0.197 C  
HETATM    6  C   UNL     1      -8.701   7.380  68.877  1.00  0.00    -0.132 C  
HETATM    7  C   UNL     1      -8.137   7.259  70.301  1.00  0.00    -0.121 C  
ENDROOT
BRANCH   5   8
HETATM    8  N   UNL     1     -10.667   8.132  67.535  1.00  0.00    -0.487 N  
HETATM    9  H   UNL     1     -11.675   8.099  67.383  1.00  0.00     0.000 HD 
BRANCH   8  10
HETATM   10  C   UNL     1      -9.827   8.352  66.472  1.00  0.00    -0.268 C  
HETATM   11  O   UNL     1      -9.442   7.462  65.721  1.00  0.00     0.081 OA 
BRANCH  10  12
HETATM   12  N   UNL     1      -9.395   9.665  66.415  1.00  0.00    -0.164 N  
HETATM   13  H   UNL     1      -8.472   9.938  66.755  1.00  0.00     0.000 HD 
BRANCH  12  14
HETATM   14  C   UNL     1     -10.286  10.612  65.866  1.00  0.00    -0.251 A  
HETATM   15  C   UNL     1     -11.696  12.771  64.810  1.00  0.00    -0.398 A  
HETATM   16  C   UNL     1     -12.332  13.937  64.276  1.00  0.00    -0.348 C  
HETATM   17  N   UNL     1     -12.841  14.887  63.847  1.00  0.00    -0.563 NA 
HETATM   18  C   UNL     1     -11.017  11.437  66.721  1.00  0.00    -0.347 A  
HETATM   19  C   UNL     1     -11.031  11.891  63.953  1.00  0.00    -0.473 A  
HETATM   20  C   UNL     1     -10.329  10.812  64.482  1.00  0.00    -0.401 A  
HETATM   21  C   UNL     1     -11.701  12.533  66.191  1.00  0.00    -0.466 A  
ENDBRANCH  12  14
ENDBRANCH  10  12
ENDBRANCH   8  10
ENDBRANCH   5   8
BRANCH   7  22
HETATM   22  C   UNL     1      -8.800   6.112  71.028  1.00  0.00    -0.139 A  
HETATM   23  N   UNL     1      -8.836   4.851  70.641  1.00  0.00    -0.115 NA 
HETATM   24  N   UNL     1      -9.463   6.275  72.221  1.00  0.00    -0.150 NA 
HETATM   25  C   UNL     1      -9.542   4.187  71.607  1.00  0.00    -0.164 A  
HETATM   26  H   UNL     1      -8.423   4.453  69.798  1.00  0.00     0.000 HD 
HETATM   27  C   UNL     1      -9.959   5.057  72.608  1.00  0.00    -0.166 A  
HETATM   28  C   UNL     1      -9.870   2.827  71.692  1.00  0.00    -0.211 A  
HETATM   29  C   UNL     1     -10.711   4.647  73.710  1.00  0.00    -0.356 A  
HETATM   30  C   UNL     1     -11.026   3.284  73.781  1.00  0.00    -0.310 A  
HETATM   31  C   UNL     1     -10.613   2.387  72.792  1.00  0.00    -0.205 A  
ENDBRANCH   7  22
TORSDOF 5
ENDMDL
MODEL      126
REMARK 921   NORMALIZED FREE ENERGY PREDICTED BY IDOCK:   -5.18 KCAL/MOL
REMARK 922        TOTAL FREE ENERGY PREDICTED BY IDOCK:   -7.46 KCAL/MOL
REMARK 923 INTER-LIGAND FREE ENERGY PREDICTED BY IDOCK:   -7.34 KCAL/MOL
REMARK 924 INTRA-LIGAND FREE ENERGY PREDICTED BY IDOCK:   -0.12 KCAL/MOL
REMARK 927      BINDING AFFINITY PREDICTED BY RF-SCORE:    0.00 PKD
ROOT
HETATM    1  C   UNL     1     -11.069  14.899  70.888  1.00  0.00    -0.103 C  
HETATM    2  N   UNL     1     -11.263  14.454  69.500  1.00  0.00    -0.257 NA 
HETATM    3  C   UNL     1     -12.241  15.313  68.809  1.00  0.00    -0.049 C  
HETATM    4  C   UNL     1     -11.741  16.710  68.461  1.00  0.00     0.254 C  
HETATM    5  C   UNL     1     -10.388  16.675  67.736  1.00  0.00    -0.306 C  
HETATM    6  C   UNL     1      -9.378  15.786  68.475  1.00  0.00    -0.198 C  
HETATM    7  C   UNL     1      -9.965  14.398  68.777  1.00  0.00    -0.223 C  
ENDROOT
BRANCH   5   8
HETATM    8  N   UNL     1      -9.878  18.027  67.495  1.00  0.00    -0.299 N  
HETATM    9  H   UNL     1      -9.872  18.403  66.548  1.00  0.00     0.000 HD 
BRANCH   8  10
HETATM   10  C   UNL     1      -9.409  18.792  68.534  1.00  0.00    -0.350 C  
HETATM   11  O   UNL     1     -10.128  19.509  69.221  1.00  0.00    -0.406 OA 
BRANCH  10  12
HETATM   12  N   UNL     1      -8.031  18.732  68.641  1.00  0.00    -0.337 N  
HETATM   13  H   UNL     1      -7.575  18.523  69.530  1.00  0.00     0.000 HD 
BRANCH  12  14
HETATM   14  C   UNL     1      -7.283  18.972  67.469  1.00  0.00    -0.217 A  
HETATM   15  C   UNL     1      -6.121  19.193  64.946  1.00  0.00    -0.312 A  
HETATM   16  C   UNL     1      -5.604  19.250  63.612  1.00  0.00    -0.306 C  
HETATM   17  N   UNL     1      -5.191  19.290  62.530  1.00  0.00    -0.305 NA 
HETATM   18  C   UNL     1      -6.313  18.049  67.078  1.00  0.00    -0.194 A  
HETATM   19  C   UNL     1      -7.030  20.162  65.378  1.00  0.00    -0.327 A  
HETATM   20  C   UNL     1      -7.608  20.050  66.640  1.00  0.00    -0.314 A  
HETATM   21  C   UNL     1      -5.752  18.149  65.803  1.00  0.00    -0.238 A  
ENDBRANCH  12  14
ENDBRANCH  10  12
ENDBRANCH   8  10
ENDBRANCH   5   8
BRANCH   7  22
HETATM   22  C   UNL     1     -10.056  13.585  67.507  1.00  0.00    -0.234 A  
HETATM   23  N   UNL     1     -10.396  14.027  66.311  1.00  0.00    -0.286 NA 
HETATM   24  N   UNL     1      -9.778  12.239  67.467  1.00  0.00    -0.187 NA 
HETATM   25  C   UNL     1     -10.340  12.939  65.483  1.00  0.00    -0.291 A  
HETATM   26  H   UNL     1     -10.648  14.982  66.056  1.00  0.00     0.000 HD 
HETATM   27  C   UNL     1      -9.965  11.797  66.183  1.00  0.00    -0.226 A  
HETATM   28  C   UNL     1     -10.601  12.853  64.109  1.00  0.00    -0.442 A  
HETATM   29  C   UNL     1      -9.843  10.542  65.585  1.00  0.00    -0.311 A  
HETATM   30  C   UNL     1     -10.104  10.476  64.210  1.00  0.00    -0.380 A  
HETATM   31  C   UNL     1     -10.475  11.610  63.482  1.00  0.00    -0.498 A  
ENDBRANCH   7  22
TORSDOF 5
ENDMDL
MODEL      127
REMARK 921   NORMALIZED FREE ENERGY PREDICTED BY IDOCK:   -5.13 KCAL/MOL
REMARK 922        TOTAL FREE ENERGY PREDICTED BY IDOCK:   -7.41 KCAL/MOL
REMARK 923 INTER-LIGAND FREE ENERGY PREDICTED BY IDOCK:   -6.51 KCAL/MOL
REMARK 924 INTRA-LIGAND FREE ENERGY PREDICTED BY IDOCK:   -0.90 KCAL/MOL
REMARK 927      BINDING AFFINITY PREDICTED BY RF-SCORE:    0.00 PKD
ROOT
HETATM    1  C   UNL     1      -5.166  20.245  64.746  1.00  0.00    -0.161 C  
HETATM    2  N   UNL     1      -5.246  19.476  65.997  1.00  0.00    -0.152 NA 
HETATM    3  C   UNL     1      -5.533  20.364  67.137  1.00  0.00    -0.167 C  
HETATM    4  C   UNL     1      -6.957  20.906  67.191  1.00  0.00    -0.426 C  
HETATM    5  C   UNL     1      -8.004  19.794  67.045  1.00  0.00    -0.289 C  
HETATM    6  C   UNL     1      -7.697  18.886  65.846  1.00  0.00    -0.165 C  
HETATM    7  C   UNL     1      -6.245  18.382  65.879  1.00  0.00    -0.229 C  
ENDROOT
BRANCH   5   8
HETATM    8  N   UNL     1      -9.361  20.343  67.003  1.00  0.00    -0.511 N  
HETATM    9  H   UNL     1      -9.595  21.058  66.315  1.00  0.00     0.000 HD 
BRANCH   8  10
HETATM   10  C   UNL     1     -10.320  19.905  67.882  1.00  0.00    -0.406 C  
HETATM   11  O   UNL     1     -10.433  20.334  69.025  1.00  0.00    -0.252 OA 
BRANCH  10  12
HETATM   12  N   UNL     1     -11.067  18.865  67.358  1.00  0.00    -0.233 N  
HETATM   13  H   UNL     1     -11.931  19.036  66.843  1.00  0.00     0.000 HD 
BRANCH  12  14
HETATM   14  C   UNL     1     -10.583  17.556  67.568  1.00  0.00    -0.333 A  
HETATM   15  C   UNL     1     -10.063  14.847  67.960  1.00  0.00    -0.221 A  
HETATM   16  C   UNL     1      -9.898  13.437  68.151  1.00  0.00    -0.234 C  
HETATM   17  N   UNL     1      -9.774  12.296  68.308  1.00  0.00    -0.218 NA 
HETATM   18  C   UNL     1     -10.520  17.052  68.866  1.00  0.00    -0.347 A  
HETATM   19  C   UNL     1     -10.043  15.377  66.667  1.00  0.00    -0.273 A  
HETATM   20  C   UNL     1     -10.301  16.731  66.474  1.00  0.00    -0.301 A  
HETATM   21  C   UNL     1     -10.284  15.688  69.057  1.00  0.00    -0.225 A  
ENDBRANCH  12  14
ENDBRANCH  10  12
ENDBRANCH   8  10
ENDBRANCH   5   8
BRANCH   7  22
HETATM   22  C   UNL     1      -6.081  17.343  66.964  1.00  0.00    -0.159 A  
HETATM   23  N   UNL     1      -6.404  16.066  66.887  1.00  0.00    -0.286 NA 
HETATM   24  N   UNL     1      -5.551  17.637  68.198  1.00  0.00    -0.149 NA 
HETATM   25  C   UNL     1      -6.079  15.527  68.102  1.00  0.00    -0.133 A  
HETATM   26  H   UNL     1      -6.813  15.581  66.088  1.00  0.00     0.000 HD 
HETATM   27  C   UNL     1      -5.550  16.493  68.952  1.00  0.00    -0.130 A  
HETATM   28  C   UNL     1      -6.211  14.206  68.553  1.00  0.00    -0.093 A  
HETATM   29  C   UNL     1      -5.146  16.218  70.259  1.00  0.00    -0.165 A  
HETATM   30  C   UNL     1      -5.282  14.893  70.692  1.00  0.00    -0.128 A  
HETATM   31  C   UNL     1      -5.803  13.902  69.856  1.00  0.00    -0.124 A  
ENDBRANCH   7  22
TORSDOF 5
ENDMDL
MODEL      128
REMARK 921   NORMALIZED FREE ENERGY PREDICTED BY IDOCK:   -5.13 KCAL/MOL
REMARK 922        TOTAL FREE ENERGY PREDICTED BY IDOCK:   -7.40 KCAL/MOL
REMARK 923 INTER-LIGAND FREE ENERGY PREDICTED BY IDOCK:   -7.36 KCAL/MOL
REMARK 924 INTRA-LIGAND FREE ENERGY PREDICTED BY IDOCK:   -0.05 KCAL/MOL
REMARK 927      BINDING AFFINITY PREDICTED BY RF-SCORE:    0.00 PKD
ROOT
HETATM    1  C   UNL     1      -8.325   7.978  65.398  1.00  0.00    -0.153 C  
HETATM    2  N   UNL     1      -8.566   7.770  66.834  1.00  0.00    -0.127 NA 
HETATM    3  C   UNL     1      -7.995   8.875  67.624  1.00  0.00    -0.102 C  
HETATM    4  C   UNL     1      -8.749  10.196  67.525  1.00  0.00    -0.125 C  
HETATM    5  C   UNL     1     -10.254  10.023  67.774  1.00  0.00    -0.192 C  
HETATM    6  C   UNL     1     -10.834   8.877  66.935  1.00  0.00     0.010 C  
HETATM    7  C   UNL     1     -10.017   7.586  67.103  1.00  0.00    -0.220 C  
ENDROOT
BRANCH   5   8
HETATM    8  N   UNL     1     -10.973  11.284  67.581  1.00  0.00    -0.240 N  
HETATM    9  H   UNL     1     -11.306  11.805  68.391  1.00  0.00     0.000 HD 
BRANCH   8  10
HETATM   10  C   UNL     1     -11.203  11.771  66.318  1.00  0.00    -0.312 C  
HETATM   11  O   UNL     1     -10.659  11.323  65.314  1.00  0.00    -0.275 OA 
BRANCH  10  12
HETATM   12  N   UNL     1     -12.035  12.876  66.332  1.00  0.00    -0.410 N  
HETATM   13  H   UNL     1     -13.050  12.779  66.365  1.00  0.00     0.000 HD 
BRANCH  12  14
HETATM   14  C   UNL     1     -11.418  14.145  66.298  1.00  0.00    -0.352 A  
HETATM   15  C   UNL     1     -10.625  16.816  66.235  1.00  0.00    -0.190 A  
HETATM   16  C   UNL     1     -10.318  18.214  66.206  1.00  0.00    -0.397 C  
HETATM   17  N   UNL     1     -10.079  19.348  66.181  1.00  0.00    -0.432 NA 
HETATM   18  C   UNL     1     -11.202  14.766  65.069  1.00  0.00    -0.399 A  
HETATM   19  C   UNL     1     -10.761  16.162  67.462  1.00  0.00    -0.304 A  
HETATM   20  C   UNL     1     -11.156  14.827  67.491  1.00  0.00    -0.323 A  
HETATM   21  C   UNL     1     -10.829  16.112  65.041  1.00  0.00    -0.380 A  
ENDBRANCH  12  14
ENDBRANCH  10  12
ENDBRANCH   8  10
ENDBRANCH   5   8
BRANCH   7  22
HETATM   22  C   UNL     1     -10.270   6.985  68.466  1.00  0.00    -0.172 A  
HETATM   23  N   UNL     1     -11.275   7.264  69.275  1.00  0.00    -0.461 NA 
HETATM   24  N   UNL     1      -9.443   6.041  69.025  1.00  0.00    -0.126 NA 
HETATM   25  C   UNL     1     -11.086   6.483  70.384  1.00  0.00    -0.332 A  
HETATM   26  H   UNL     1     -12.035   7.924  69.110  1.00  0.00     0.000 HD 
HETATM   27  C   UNL     1      -9.936   5.712  70.261  1.00  0.00    -0.207 A  
HETATM   28  C   UNL     1     -11.865   6.385  71.545  1.00  0.00    -0.355 A  
HETATM   29  C   UNL     1      -9.497   4.834  71.254  1.00  0.00    -0.216 A  
HETATM   30  C   UNL     1     -10.290   4.745  72.406  1.00  0.00    -0.261 A  
HETATM   31  C   UNL     1     -11.454   5.504  72.551  1.00  0.00    -0.303 A  
ENDBRANCH   7  22
TORSDOF 5
ENDMDL
MODEL      129
REMARK 921   NORMALIZED FREE ENERGY PREDICTED BY IDOCK:   -5.12 KCAL/MOL
REMARK 922        TOTAL FREE ENERGY PREDICTED BY IDOCK:   -7.39 KCAL/MOL
REMARK 923 INTER-LIGAND FREE ENERGY PREDICTED BY IDOCK:   -6.86 KCAL/MOL
REMARK 924 INTRA-LIGAND FREE ENERGY PREDICTED BY IDOCK:   -0.54 KCAL/MOL
REMARK 927      BINDING AFFINITY PREDICTED BY RF-SCORE:    0.00 PKD
ROOT
HETATM    1  C   UNL     1     -10.565  15.379  70.569  1.00  0.00    -0.198 C  
HETATM    2  N   UNL     1     -10.923  14.105  69.925  1.00  0.00    -0.038 NA 
HETATM    3  C   UNL     1     -12.222  14.215  69.240  1.00  0.00    -0.269 C  
HETATM    4  C   UNL     1     -12.209  15.043  67.960  1.00  0.00     0.118 C  
HETATM    5  C   UNL     1     -11.085  14.613  67.006  1.00  0.00    -0.333 C  
HETATM    6  C   UNL     1      -9.738  14.515  67.734  1.00  0.00    -0.216 C  
HETATM    7  C   UNL     1      -9.845  13.658  69.005  1.00  0.00     0.145 C  
ENDROOT
BRANCH   5   8
HETATM    8  N   UNL     1     -11.028  15.481  65.828  1.00  0.00    -0.313 N  
HETATM    9  H   UNL     1     -11.703  15.354  65.074  1.00  0.00     0.000 HD 
BRANCH   8  10
HETATM   10  C   UNL     1     -10.074  16.462  65.727  1.00  0.00    -0.327 C  
HETATM   11  O   UNL     1      -8.924  16.248  65.359  1.00  0.00    -0.194 OA 
BRANCH  10  12
HETATM   12  N   UNL     1     -10.536  17.684  66.184  1.00  0.00    -0.343 N  
HETATM   13  H   UNL     1     -11.490  17.995  66.000  1.00  0.00     0.000 HD 
BRANCH  12  14
HETATM   14  C   UNL     1      -9.631  18.482  66.916  1.00  0.00    -0.307 A  
HETATM   15  C   UNL     1      -7.523  19.781  68.194  1.00  0.00    -0.343 A  
HETATM   16  C   UNL     1      -6.376  20.381  68.804  1.00  0.00    -0.303 C  
HETATM   17  N   UNL     1      -5.441  20.860  69.296  1.00  0.00    -0.372 NA 
HETATM   18  C   UNL     1      -9.270  18.095  68.206  1.00  0.00    -0.307 A  
HETATM   19  C   UNL     1      -7.947  20.218  66.936  1.00  0.00    -0.349 A  
HETATM   20  C   UNL     1      -9.001  19.569  66.301  1.00  0.00    -0.400 A  
HETATM   21  C   UNL     1      -8.196  18.732  68.833  1.00  0.00    -0.255 A  
ENDBRANCH  12  14
ENDBRANCH  10  12
ENDBRANCH   8  10
ENDBRANCH   5   8
BRANCH   7  22
HETATM   22  C   UNL     1      -9.980  12.199  68.637  1.00  0.00    -0.128 A  
HETATM   23  N   UNL     1     -10.088  11.183  69.472  1.00  0.00    -0.433 NA 
HETATM   24  N   UNL     1     -10.009  11.763  67.334  1.00  0.00    -0.184 NA 
HETATM   25  C   UNL     1     -10.183  10.066  68.687  1.00  0.00    -0.180 A  
HETATM   26  H   UNL     1     -10.099  11.221  70.491  1.00  0.00     0.000 HD 
HETATM   27  C   UNL     1     -10.125  10.397  67.338  1.00  0.00    -0.196 A  
HETATM   28  C   UNL     1     -10.321   8.723  69.064  1.00  0.00    -0.227 A  
HETATM   29  C   UNL     1     -10.185   9.448  66.317  1.00  0.00    -0.284 A  
HETATM   30  C   UNL     1     -10.327   8.111  66.712  1.00  0.00    -0.361 A  
HETATM   31  C   UNL     1     -10.395   7.752  68.061  1.00  0.00    -0.263 A  
ENDBRANCH   7  22
TORSDOF 5
ENDMDL
MODEL      130
REMARK 921   NORMALIZED FREE ENERGY PREDICTED BY IDOCK:   -5.11 KCAL/MOL
REMARK 922        TOTAL FREE ENERGY PREDICTED BY IDOCK:   -7.37 KCAL/MOL
REMARK 923 INTER-LIGAND FREE ENERGY PREDICTED BY IDOCK:   -6.86 KCAL/MOL
REMARK 924 INTRA-LIGAND FREE ENERGY PREDICTED BY IDOCK:   -0.51 KCAL/MOL
REMARK 927      BINDING AFFINITY PREDICTED BY RF-SCORE:    0.00 PKD
ROOT
HETATM    1  C   UNL     1      -6.828   9.209  67.956  1.00  0.00    -0.069 C  
HETATM    2  N   UNL     1      -6.656  10.652  67.730  1.00  0.00    -0.060 NA 
HETATM    3  C   UNL     1      -6.897  10.990  66.317  1.00  0.00    -0.096 C  
HETATM    4  C   UNL     1      -8.356  10.934  65.879  1.00  0.00    -0.149 C  
HETATM    5  C   UNL     1      -9.274  11.718  66.828  1.00  0.00    -0.194 C  
HETATM    6  C   UNL     1      -9.018  11.344  68.294  1.00  0.00    -0.175 C  
HETATM    7  C   UNL     1      -7.524  11.436  68.646  1.00  0.00    -0.119 C  
ENDROOT
BRANCH   5   8
HETATM    8  N   UNL     1     -10.681  11.572  66.447  1.00  0.00    -0.264 N  
HETATM    9  H   UNL     1     -11.080  10.641  66.333  1.00  0.00     0.000 HD 
BRANCH   8  10
HETATM   10  C   UNL     1     -11.467  12.679  66.241  1.00  0.00    -0.364 C  
HETATM   11  O   UNL     1     -12.576  12.629  65.719  1.00  0.00    -0.575 OA 
BRANCH  10  12
HETATM   12  N   UNL     1     -10.821  13.848  66.598  1.00  0.00    -0.288 N  
HETATM   13  H   UNL     1     -10.301  14.400  65.915  1.00  0.00     0.000 HD 
BRANCH  12  14
HETATM   14  C   UNL     1     -10.911  14.247  67.949  1.00  0.00    -0.267 A  
HETATM   15  C   UNL     1     -11.408  15.324  70.471  1.00  0.00    -0.340 A  
HETATM   16  C   UNL     1     -11.736  15.938  71.722  1.00  0.00    -0.491 C  
HETATM   17  N   UNL     1     -12.006  16.441  72.730  1.00  0.00    -0.542 NA 
HETATM   18  C   UNL     1     -10.151  15.327  68.394  1.00  0.00    -0.220 A  
HETATM   19  C   UNL     1     -12.106  14.189  70.052  1.00  0.00    -0.409 A  
HETATM   20  C   UNL     1     -11.855  13.651  68.793  1.00  0.00    -0.395 A  
HETATM   21  C   UNL     1     -10.420  15.881  69.648  1.00  0.00    -0.295 A  
ENDBRANCH  12  14
ENDBRANCH  10  12
ENDBRANCH   8  10
ENDBRANCH   5   8
BRANCH   7  22
HETATM   22  C   UNL     1      -7.100  12.884  68.731  1.00  0.00    -0.096 A  
HETATM   23  N   UNL     1      -6.819  13.559  69.829  1.00  0.00    -0.344 NA 
HETATM   24  N   UNL     1      -6.955  13.681  67.620  1.00  0.00    -0.167 NA 
HETATM   25  C   UNL     1      -6.490  14.821  69.415  1.00  0.00    -0.131 A  
HETATM   26  H   UNL     1      -6.842  13.213  70.788  1.00  0.00     0.000 HD 
HETATM   27  C   UNL     1      -6.577  14.932  68.032  1.00  0.00    -0.148 A  
HETATM   28  C   UNL     1      -6.104  15.934  70.175  1.00  0.00    -0.105 A  
HETATM   29  C   UNL     1      -6.308  16.116  67.343  1.00  0.00    -0.210 A  
HETATM   30  C   UNL     1      -5.920  17.217  68.118  1.00  0.00    -0.127 A  
HETATM   31  C   UNL     1      -5.818  17.131  69.510  1.00  0.00    -0.223 A  
ENDBRANCH   7  22
TORSDOF 5
ENDMDL
MODEL      131
REMARK 921   NORMALIZED FREE ENERGY PREDICTED BY IDOCK:   -5.10 KCAL/MOL
REMARK 922        TOTAL FREE ENERGY PREDICTED BY IDOCK:   -7.36 KCAL/MOL
REMARK 923 INTER-LIGAND FREE ENERGY PREDICTED BY IDOCK:   -6.53 KCAL/MOL
REMARK 924 INTRA-LIGAND FREE ENERGY PREDICTED BY IDOCK:   -0.83 KCAL/MOL
REMARK 927      BINDING AFFINITY PREDICTED BY RF-SCORE:    0.00 PKD
ROOT
HETATM    1  C   UNL     1     -10.303   4.797  66.243  1.00  0.00    -0.291 C  
HETATM    2  N   UNL     1     -10.579   6.084  66.900  1.00  0.00    -0.285 NA 
HETATM    3  C   UNL     1     -11.103   5.873  68.260  1.00  0.00    -0.043 C  
HETATM    4  C   UNL     1     -10.077   5.389  69.279  1.00  0.00    -0.301 C  
HETATM    5  C   UNL     1      -8.807   6.253  69.275  1.00  0.00    -0.123 C  
HETATM    6  C   UNL     1      -8.269   6.453  67.852  1.00  0.00    -0.115 C  
HETATM    7  C   UNL     1      -9.369   6.947  66.898  1.00  0.00    -0.148 C  
ENDROOT
BRANCH   5   8
HETATM    8  N   UNL     1      -7.797   5.718  70.190  1.00  0.00    -0.097 N  
HETATM    9  H   UNL     1      -6.895   5.414  69.824  1.00  0.00     0.000 HD 
BRANCH   8  10
HETATM   10  C   UNL     1      -8.053   5.620  71.535  1.00  0.00    -0.118 C  
HETATM   11  O   UNL     1      -8.261   4.555  72.106  1.00  0.00    -0.101 OA 
BRANCH  10  12
HETATM   12  N   UNL     1      -8.146   6.863  72.136  1.00  0.00    -0.098 N  
HETATM   13  H   UNL     1      -7.413   7.211  72.755  1.00  0.00     0.000 HD 
BRANCH  12  14
HETATM   14  C   UNL     1      -9.298   7.628  71.858  1.00  0.00    -0.145 A  
HETATM   15  C   UNL     1     -11.462   9.375  71.681  1.00  0.00    -0.463 A  
HETATM   16  C   UNL     1     -12.537  10.320  71.675  1.00  0.00    -0.432 C  
HETATM   17  N   UNL     1     -13.405  11.088  71.679  1.00  0.00    -0.321 NA 
HETATM   18  C   UNL     1     -10.509   7.281  72.455  1.00  0.00    -0.263 A  
HETATM   19  C   UNL     1     -10.271   9.676  71.013  1.00  0.00    -0.252 A  
HETATM   20  C   UNL     1      -9.193   8.801  71.102  1.00  0.00    -0.299 A  
HETATM   21  C   UNL     1     -11.583   8.171  72.385  1.00  0.00    -0.463 A  
ENDBRANCH  12  14
ENDBRANCH  10  12
ENDBRANCH   8  10
ENDBRANCH   5   8
BRANCH   7  22
HETATM   22  C   UNL     1      -9.700   8.392  67.192  1.00  0.00    -0.190 A  
HETATM   23  N   UNL     1     -10.905   8.915  67.311  1.00  0.00    -0.403 NA 
HETATM   24  N   UNL     1      -8.733   9.351  67.375  1.00  0.00    -0.125 NA 
HETATM   25  C   UNL     1     -10.709  10.244  67.573  1.00  0.00    -0.294 A  
HETATM   26  H   UNL     1     -11.799   8.430  67.227  1.00  0.00     0.000 HD 
HETATM   27  C   UNL     1      -9.353  10.551  67.608  1.00  0.00    -0.149 A  
HETATM   28  C   UNL     1     -11.653  11.256  67.791  1.00  0.00    -0.307 A  
HETATM   29  C   UNL     1      -8.869  11.839  67.842  1.00  0.00    -0.165 A  
HETATM   30  C   UNL     1      -9.827  12.837  68.062  1.00  0.00    -0.226 A  
HETATM   31  C   UNL     1     -11.196  12.554  68.040  1.00  0.00    -0.316 A  
ENDBRANCH   7  22
TORSDOF 5
ENDMDL
MODEL      132
REMARK 921   NORMALIZED FREE ENERGY PREDICTED BY IDOCK:   -5.08 KCAL/MOL
REMARK 922        TOTAL FREE ENERGY PREDICTED BY IDOCK:   -7.34 KCAL/MOL
REMARK 923 INTER-LIGAND FREE ENERGY PREDICTED BY IDOCK:   -7.13 KCAL/MOL
REMARK 924 INTRA-LIGAND FREE ENERGY PREDICTED BY IDOCK:   -0.20 KCAL/MOL
REMARK 927      BINDING AFFINITY PREDICTED BY RF-SCORE:    0.00 PKD
ROOT
HETATM    1  C   UNL     1      -9.336   9.377  65.242  1.00  0.00    -0.238 C  
HETATM    2  N   UNL     1      -9.246   9.170  66.696  1.00  0.00    -0.155 NA 
HETATM    3  C   UNL     1      -8.286  10.110  67.298  1.00  0.00    -0.121 C  
HETATM    4  C   UNL     1      -8.760  11.558  67.372  1.00  0.00    -0.147 C  
HETATM    5  C   UNL     1     -10.157  11.677  67.997  1.00  0.00    -0.189 C  
HETATM    6  C   UNL     1     -11.147  10.699  67.349  1.00  0.00    -0.341 C  
HETATM    7  C   UNL     1     -10.590   9.267  67.325  1.00  0.00    -0.233 C  
ENDROOT
BRANCH   5   8
HETATM    8  N   UNL     1     -10.634  13.061  67.972  1.00  0.00    -0.229 N  
HETATM    9  H   UNL     1     -11.627  13.256  68.095  1.00  0.00     0.000 HD 
BRANCH   8  10
HETATM   10  C   UNL     1      -9.756  14.100  67.783  1.00  0.00    -0.223 C  
HETATM   11  O   UNL     1      -9.331  14.431  66.682  1.00  0.00    -0.258 OA 
BRANCH  10  12
HETATM   12  N   UNL     1      -9.340  14.651  68.982  1.00  0.00    -0.347 N  
HETATM   13  H   UNL     1      -9.362  14.115  69.850  1.00  0.00     0.000 HD 
BRANCH  12  14
HETATM   14  C   UNL     1      -8.884  15.986  68.953  1.00  0.00    -0.233 A  
HETATM   15  C   UNL     1      -7.942  18.559  68.446  1.00  0.00    -0.337 A  
HETATM   16  C   UNL     1      -7.456  19.856  68.085  1.00  0.00    -0.293 C  
HETATM   17  N   UNL     1      -7.060  20.903  67.784  1.00  0.00    -0.274 NA 
HETATM   18  C   UNL     1      -7.515  16.241  69.025  1.00  0.00    -0.220 A  
HETATM   19  C   UNL     1      -9.318  18.314  68.460  1.00  0.00    -0.334 A  
HETATM   20  C   UNL     1      -9.786  17.029  68.715  1.00  0.00    -0.273 A  
HETATM   21  C   UNL     1      -7.045  17.526  68.746  1.00  0.00    -0.248 A  
ENDBRANCH  12  14
ENDBRANCH  10  12
ENDBRANCH   8  10
ENDBRANCH   5   8
BRANCH   7  22
HETATM   22  C   UNL     1     -10.609   8.679  68.717  1.00  0.00    -0.140 A  
HETATM   23  N   UNL     1     -11.175   9.205  69.787  1.00  0.00    -0.420 NA 
HETATM   24  N   UNL     1     -10.013   7.478  69.023  1.00  0.00    -0.171 NA 
HETATM   25  C   UNL     1     -10.933   8.325  70.806  1.00  0.00    -0.243 A  
HETATM   26  H   UNL     1     -11.686  10.086  69.843  1.00  0.00     0.000 HD 
HETATM   27  C   UNL     1     -10.195   7.234  70.359  1.00  0.00    -0.194 A  
HETATM   28  C   UNL     1     -11.317   8.396  72.152  1.00  0.00    -0.437 A  
HETATM   29  C   UNL     1      -9.797   6.190  71.195  1.00  0.00    -0.210 A  
HETATM   30  C   UNL     1     -10.192   6.275  72.536  1.00  0.00    -0.203 A  
HETATM   31  C   UNL     1     -10.940   7.357  73.009  1.00  0.00    -0.422 A  
ENDBRANCH   7  22
TORSDOF 5
ENDMDL
MODEL      133
REMARK 921   NORMALIZED FREE ENERGY PREDICTED BY IDOCK:   -5.06 KCAL/MOL
REMARK 922        TOTAL FREE ENERGY PREDICTED BY IDOCK:   -7.31 KCAL/MOL
REMARK 923 INTER-LIGAND FREE ENERGY PREDICTED BY IDOCK:   -6.09 KCAL/MOL
REMARK 924 INTRA-LIGAND FREE ENERGY PREDICTED BY IDOCK:   -1.22 KCAL/MOL
REMARK 927      BINDING AFFINITY PREDICTED BY RF-SCORE:    0.00 PKD
ROOT
HETATM    1  C   UNL     1      -8.861   8.233  66.622  1.00  0.00    -0.144 C  
HETATM    2  N   UNL     1      -8.253   9.572  66.672  1.00  0.00    -0.115 NA 
HETATM    3  C   UNL     1      -8.200  10.170  65.327  1.00  0.00    -0.157 C  
HETATM    4  C   UNL     1      -9.544  10.625  64.769  1.00  0.00    -0.334 C  
HETATM    5  C   UNL     1     -10.314  11.505  65.764  1.00  0.00    -0.248 C  
HETATM    6  C   UNL     1     -10.370  10.861  67.157  1.00  0.00    -0.262 C  
HETATM    7  C   UNL     1      -8.972  10.442  67.639  1.00  0.00    -0.138 C  
ENDROOT
BRANCH   5   8
HETATM    8  N   UNL     1     -11.641  11.852  65.250  1.00  0.00    -0.269 N  
HETATM    9  H   UNL     1     -12.331  11.118  65.095  1.00  0.00     0.000 HD 
BRANCH   8  10
HETATM   10  C   UNL     1     -11.964  13.158  64.976  1.00  0.00    -0.383 C  
HETATM   11  O   UNL     1     -13.118  13.557  64.864  1.00  0.00    -0.718 OA 
BRANCH  10  12
HETATM   12  N   UNL     1     -10.841  13.932  64.744  1.00  0.00    -0.399 N  
HETATM   13  H   UNL     1     -10.073  13.596  64.162  1.00  0.00     0.000 HD 
BRANCH  12  14
HETATM   14  C   UNL     1     -10.804  15.208  65.346  1.00  0.00    -0.381 A  
HETATM   15  C   UNL     1     -10.318  17.762  66.348  1.00  0.00    -0.351 A  
HETATM   16  C   UNL     1      -9.976  19.073  66.813  1.00  0.00    -0.360 C  
HETATM   17  N   UNL     1      -9.691  20.132  67.187  1.00  0.00    -0.411 NA 
HETATM   18  C   UNL     1     -10.228  15.350  66.607  1.00  0.00    -0.281 A  
HETATM   19  C   UNL     1     -10.973  17.611  65.123  1.00  0.00     0.412 A  
HETATM   20  C   UNL     1     -11.216  16.334  64.625  1.00  0.00    -0.264 A  
HETATM   21  C   UNL     1      -9.963  16.632  67.095  1.00  0.00    -0.268 A  
ENDBRANCH  12  14
ENDBRANCH  10  12
ENDBRANCH   8  10
ENDBRANCH   5   8
BRANCH   7  22
HETATM   22  C   UNL     1      -8.165  11.663  68.015  1.00  0.00    -0.146 A  
HETATM   23  N   UNL     1      -6.863  11.820  67.873  1.00  0.00    -0.072 NA 
HETATM   24  N   UNL     1      -8.734  12.786  68.566  1.00  0.00    -0.103 NA 
HETATM   25  C   UNL     1      -6.586  13.073  68.349  1.00  0.00    -0.090 A  
HETATM   26  H   UNL     1      -6.199  11.147  67.489  1.00  0.00     0.000 HD 
HETATM   27  C   UNL     1      -7.741  13.701  68.802  1.00  0.00    -0.064 A  
HETATM   28  C   UNL     1      -5.358  13.743  68.427  1.00  0.00    -0.100 A  
HETATM   29  C   UNL     1      -7.745  14.984  69.352  1.00  0.00    -0.190 A  
HETATM   30  C   UNL     1      -6.509  15.641  69.418  1.00  0.00    -0.156 A  
HETATM   31  C   UNL     1      -5.335  15.035  68.963  1.00  0.00    -0.097 A  
ENDBRANCH   7  22
TORSDOF 5
ENDMDL
MODEL      134
REMARK 921   NORMALIZED FREE ENERGY PREDICTED BY IDOCK:   -5.04 KCAL/MOL
REMARK 922        TOTAL FREE ENERGY PREDICTED BY IDOCK:   -7.28 KCAL/MOL
REMARK 923 INTER-LIGAND FREE ENERGY PREDICTED BY IDOCK:   -6.91 KCAL/MOL
REMARK 924 INTRA-LIGAND FREE ENERGY PREDICTED BY IDOCK:   -0.37 KCAL/MOL
REMARK 927      BINDING AFFINITY PREDICTED BY RF-SCORE:    0.00 PKD
ROOT
HETATM    1  C   UNL     1      -8.457   8.985  67.372  1.00  0.00    -0.115 C  
HETATM    2  N   UNL     1      -9.164  10.249  67.113  1.00  0.00    -0.145 NA 
HETATM    3  C   UNL     1     -10.598  10.006  66.878  1.00  0.00    -0.192 C  
HETATM    4  C   UNL     1     -11.399   9.625  68.118  1.00  0.00     0.150 C  
HETATM    5  C   UNL     1     -11.159  10.598  69.282  1.00  0.00    -0.252 C  
HETATM    6  C   UNL     1      -9.661  10.830  69.520  1.00  0.00    -0.015 C  
HETATM    7  C   UNL     1      -8.938  11.215  68.220  1.00  0.00    -0.166 C  
ENDROOT
BRANCH   5   8
HETATM    8  N   UNL     1     -11.862  10.163  70.491  1.00  0.00    -0.301 N  
HETATM    9  H   UNL     1     -12.685  10.673  70.808  1.00  0.00     0.000 HD 
BRANCH   8  10
HETATM   10  C   UNL     1     -11.421   9.075  71.202  1.00  0.00    -0.308 C  
HETATM   11  O   UNL     1     -10.377   9.068  71.846  1.00  0.00    -0.341 OA 
BRANCH  10  12
HETATM   12  N   UNL     1     -12.237   7.972  71.023  1.00  0.00    -0.459 N  
HETATM   13  H   UNL     1     -13.250   8.066  70.947  1.00  0.00     0.000 HD 
BRANCH  12  14
HETATM   14  C   UNL     1     -11.608   6.711  70.950  1.00  0.00    -0.361 A  
HETATM   15  C   UNL     1      -9.980   4.451  70.868  1.00  0.00    -0.242 A  
HETATM   16  C   UNL     1      -9.062   3.353  70.844  1.00  0.00    -0.114 C  
HETATM   17  N   UNL     1      -8.311   2.469  70.823  1.00  0.00    -0.049 NA 
HETATM   18  C   UNL     1     -11.122   6.261  69.723  1.00  0.00    -0.473 A  
HETATM   19  C   UNL     1     -10.540   4.858  72.081  1.00  0.00    -0.232 A  
HETATM   20  C   UNL     1     -11.355   5.986  72.119  1.00  0.00    -0.351 A  
HETATM   21  C   UNL     1     -10.286   5.143  69.689  1.00  0.00    -0.337 A  
ENDBRANCH  12  14
ENDBRANCH  10  12
ENDBRANCH   8  10
ENDBRANCH   5   8
BRANCH   7  22
HETATM   22  C   UNL     1      -9.299  12.628  67.824  1.00  0.00    -0.198 A  
HETATM   23  N   UNL     1      -9.443  13.660  68.633  1.00  0.00    -0.376 NA 
HETATM   24  N   UNL     1      -9.522  12.998  66.519  1.00  0.00    -0.255 NA 
HETATM   25  C   UNL     1      -9.771  14.719  67.830  1.00  0.00    -0.213 A  
HETATM   26  H   UNL     1      -9.332  13.669  69.647  1.00  0.00     0.000 HD 
HETATM   27  C   UNL     1      -9.840  14.331  66.496  1.00  0.00    -0.288 A  
HETATM   28  C   UNL     1     -10.029  16.052  68.177  1.00  0.00    -0.228 A  
HETATM   29  C   UNL     1     -10.169  15.210  65.463  1.00  0.00    -0.405 A  
HETATM   30  C   UNL     1     -10.419  16.539  65.827  1.00  0.00    -0.343 A  
HETATM   31  C   UNL     1     -10.350  16.957  67.159  1.00  0.00    -0.304 A  
ENDBRANCH   7  22
TORSDOF 5
ENDMDL
MODEL      135
REMARK 921   NORMALIZED FREE ENERGY PREDICTED BY IDOCK:   -5.02 KCAL/MOL
REMARK 922        TOTAL FREE ENERGY PREDICTED BY IDOCK:   -7.26 KCAL/MOL
REMARK 923 INTER-LIGAND FREE ENERGY PREDICTED BY IDOCK:   -6.91 KCAL/MOL
REMARK 924 INTRA-LIGAND FREE ENERGY PREDICTED BY IDOCK:   -0.35 KCAL/MOL
REMARK 927      BINDING AFFINITY PREDICTED BY RF-SCORE:    0.00 PKD
ROOT
HETATM    1  C   UNL     1     -10.472   9.784  70.365  1.00  0.00    -0.297 C  
HETATM    2  N   UNL     1     -10.609   9.930  68.907  1.00  0.00    -0.211 NA 
HETATM    3  C   UNL     1     -11.867  10.616  68.568  1.00  0.00    -0.013 C  
HETATM    4  C   UNL     1     -11.893  12.108  68.881  1.00  0.00    -0.358 C  
HETATM    5  C   UNL     1     -10.665  12.838  68.318  1.00  0.00    -0.239 C  
HETATM    6  C   UNL     1      -9.363  12.116  68.692  1.00  0.00    -0.031 C  
HETATM    7  C   UNL     1      -9.425  10.623  68.334  1.00  0.00    -0.165 C  
ENDROOT
BRANCH   5   8
HETATM    8  N   UNL     1     -10.660  14.249  68.710  1.00  0.00    -0.248 N  
HETATM    9  H   UNL     1     -10.417  14.507  69.667  1.00  0.00     0.000 HD 
BRANCH   8  10
HETATM   10  C   UNL     1     -10.978  15.228  67.802  1.00  0.00    -0.312 C  
HETATM   11  O   UNL     1     -11.202  15.001  66.618  1.00  0.00    -0.335 OA 
BRANCH  10  12
HETATM   12  N   UNL     1     -10.915  16.493  68.360  1.00  0.00    -0.344 N  
HETATM   13  H   UNL     1     -11.566  16.786  69.089  1.00  0.00     0.000 HD 
BRANCH  12  14
HETATM   14  C   UNL     1      -9.913  17.360  67.876  1.00  0.00    -0.301 A  
HETATM   15  C   UNL     1      -8.044  18.913  66.512  1.00  0.00    -0.298 A  
HETATM   16  C   UNL     1      -7.119  19.668  65.721  1.00  0.00    -0.303 C  
HETATM   17  N   UNL     1      -6.373  20.274  65.075  1.00  0.00    -0.266 NA 
HETATM   18  C   UNL     1      -8.617  16.876  67.701  1.00  0.00    -0.212 A  
HETATM   19  C   UNL     1      -9.318  19.426  66.767  1.00  0.00    -0.395 A  
HETATM   20  C   UNL     1     -10.249  18.650  67.450  1.00  0.00    -0.422 A  
HETATM   21  C   UNL     1      -7.691  17.646  66.994  1.00  0.00    -0.234 A  
ENDBRANCH  12  14
ENDBRANCH  10  12
ENDBRANCH   8  10
ENDBRANCH   5   8
BRANCH   7  22
HETATM   22  C   UNL     1      -9.331  10.443  66.836  1.00  0.00    -0.162 A  
HETATM   23  N   UNL     1      -9.711  11.307  65.914  1.00  0.00    -0.215 NA 
HETATM   24  N   UNL     1      -8.814   9.309  66.257  1.00  0.00    -0.140 NA 
HETATM   25  C   UNL     1      -9.436  10.713  64.713  1.00  0.00    -0.256 A  
HETATM   26  H   UNL     1     -10.125  12.228  66.065  1.00  0.00     0.000 HD 
HETATM   27  C   UNL     1      -8.882   9.451  64.895  1.00  0.00    -0.202 A  
HETATM   28  C   UNL     1      -9.638  11.198  63.414  1.00  0.00    -0.355 A  
HETATM   29  C   UNL     1      -8.518   8.618  63.836  1.00  0.00    -0.075 A  
HETATM   30  C   UNL     1      -8.723   9.120  62.545  1.00  0.00    -0.213 A  
HETATM   31  C   UNL     1      -9.272  10.389  62.334  1.00  0.00    -0.304 A  
ENDBRANCH   7  22
TORSDOF 5
ENDMDL
MODEL      136
REMARK 921   NORMALIZED FREE ENERGY PREDICTED BY IDOCK:   -4.96 KCAL/MOL
REMARK 922        TOTAL FREE ENERGY PREDICTED BY IDOCK:   -7.18 KCAL/MOL
REMARK 923 INTER-LIGAND FREE ENERGY PREDICTED BY IDOCK:   -6.32 KCAL/MOL
REMARK 924 INTRA-LIGAND FREE ENERGY PREDICTED BY IDOCK:   -0.87 KCAL/MOL
REMARK 927      BINDING AFFINITY PREDICTED BY RF-SCORE:    0.00 PKD
ROOT
HETATM    1  C   UNL     1     -11.428  15.559  71.972  1.00  0.00    -0.428 C  
HETATM    2  N   UNL     1     -11.411  14.671  70.799  1.00  0.00    -0.229 NA 
HETATM    3  C   UNL     1     -12.492  15.024  69.863  1.00  0.00    -0.230 C  
HETATM    4  C   UNL     1     -12.276  16.318  69.086  1.00  0.00     0.414 C  
HETATM    5  C   UNL     1     -10.894  16.368  68.421  1.00  0.00    -0.342 C  
HETATM    6  C   UNL     1      -9.779  16.010  69.414  1.00  0.00    -0.248 C  
HETATM    7  C   UNL     1     -10.078  14.690  70.143  1.00  0.00     0.471 C  
ENDROOT
BRANCH   5   8
HETATM    8  N   UNL     1     -10.668  17.656  67.761  1.00  0.00    -0.378 N  
HETATM    9  H   UNL     1     -10.845  18.522  68.270  1.00  0.00     0.000 HD 
BRANCH   8  10
HETATM   10  C   UNL     1     -10.221  17.709  66.464  1.00  0.00    -0.355 C  
HETATM   11  O   UNL     1     -10.495  18.622  65.694  1.00  0.00    -0.603 OA 
BRANCH  10  12
HETATM   12  N   UNL     1      -9.519  16.570  66.111  1.00  0.00    -0.311 N  
HETATM   13  H   UNL     1      -8.552  16.428  66.407  1.00  0.00     0.000 HD 
BRANCH  12  14
HETATM   14  C   UNL     1     -10.196  15.614  65.326  1.00  0.00    -0.324 A  
HETATM   15  C   UNL     1     -11.753  13.620  64.158  1.00  0.00    -0.424 A  
HETATM   16  C   UNL     1     -12.600  12.582  63.651  1.00  0.00    -0.392 C  
HETATM   17  N   UNL     1     -13.287  11.740  63.249  1.00  0.00    -0.358 NA 
HETATM   18  C   UNL     1      -9.708  14.309  65.268  1.00  0.00    -0.068 A  
HETATM   19  C   UNL     1     -12.198  14.945  64.143  1.00  0.00    -0.280 A  
HETATM   20  C   UNL     1     -11.417  15.939  64.725  1.00  0.00    -0.235 A  
HETATM   21  C   UNL     1     -10.502  13.308  64.705  1.00  0.00    -0.420 A  
ENDBRANCH  12  14
ENDBRANCH  10  12
ENDBRANCH   8  10
ENDBRANCH   5   8
BRANCH   7  22
HETATM   22  C   UNL     1      -9.891  13.523  69.202  1.00  0.00     0.332 A  
HETATM   23  N   UNL     1      -8.779  13.188  68.575  1.00  0.00    -0.341 NA 
HETATM   24  N   UNL     1     -10.907  12.651  68.891  1.00  0.00    -0.226 NA 
HETATM   25  C   UNL     1      -9.089  12.076  67.839  1.00  0.00    -0.183 A  
HETATM   26  H   UNL     1      -7.876  13.659  68.626  1.00  0.00     0.000 HD 
HETATM   27  C   UNL     1     -10.423  11.721  68.009  1.00  0.00    -0.199 A  
HETATM   28  C   UNL     1      -8.272  11.312  66.995  1.00  0.00    -0.151 A  
HETATM   29  C   UNL     1     -11.009  10.631  67.364  1.00  0.00    -0.361 A  
HETATM   30  C   UNL     1     -10.177   9.876  66.527  1.00  0.00    -0.292 A  
HETATM   31  C   UNL     1      -8.831  10.208  66.344  1.00  0.00    -0.158 A  
ENDBRANCH   7  22
TORSDOF 5
ENDMDL
MODEL      137
REMARK 921   NORMALIZED FREE ENERGY PREDICTED BY IDOCK:   -4.94 KCAL/MOL
REMARK 922        TOTAL FREE ENERGY PREDICTED BY IDOCK:   -7.16 KCAL/MOL
REMARK 923 INTER-LIGAND FREE ENERGY PREDICTED BY IDOCK:   -6.59 KCAL/MOL
REMARK 924 INTRA-LIGAND FREE ENERGY PREDICTED BY IDOCK:   -0.57 KCAL/MOL
REMARK 927      BINDING AFFINITY PREDICTED BY RF-SCORE:    0.00 PKD
ROOT
HETATM    1  C   UNL     1     -11.781   9.000  71.027  1.00  0.00    -0.296 C  
HETATM    2  N   UNL     1     -11.541   7.571  71.279  1.00  0.00    -0.273 NA 
HETATM    3  C   UNL     1     -11.848   6.772  70.081  1.00  0.00    -0.262 C  
HETATM    4  C   UNL     1     -10.845   6.904  68.941  1.00  0.00    -0.247 C  
HETATM    5  C   UNL     1      -9.400   6.701  69.418  1.00  0.00    -0.147 C  
HETATM    6  C   UNL     1      -9.093   7.550  70.659  1.00  0.00    -0.155 C  
HETATM    7  C   UNL     1     -10.150   7.347  71.755  1.00  0.00    -0.175 C  
ENDROOT
BRANCH   5   8
HETATM    8  N   UNL     1      -8.445   6.927  68.330  1.00  0.00    -0.123 N  
HETATM    9  H   UNL     1      -7.467   6.665  68.454  1.00  0.00     0.000 HD 
BRANCH   8  10
HETATM   10  C   UNL     1      -8.854   7.488  67.146  1.00  0.00    -0.125 C  
HETATM   11  O   UNL     1      -9.339   6.839  66.226  1.00  0.00    -0.161 OA 
BRANCH  10  12
HETATM   12  N   UNL     1      -8.561   8.838  67.083  1.00  0.00    -0.116 N  
HETATM   13  H   UNL     1      -7.632   9.193  67.315  1.00  0.00     0.000 HD 
BRANCH  12  14
HETATM   14  C   UNL     1      -9.601   9.705  66.684  1.00  0.00    -0.187 A  
HETATM   15  C   UNL     1     -11.339  11.742  65.916  1.00  0.00    -0.324 A  
HETATM   16  C   UNL     1     -12.152  12.855  65.527  1.00  0.00    -0.458 C  
HETATM   17  N   UNL     1     -12.803  13.762  65.215  1.00  0.00    -0.737 NA 
HETATM   18  C   UNL     1     -10.339  10.377  67.657  1.00  0.00    -0.260 A  
HETATM   19  C   UNL     1     -10.661  11.006  64.942  1.00  0.00    -0.328 A  
HETATM   20  C   UNL     1      -9.794   9.987  65.328  1.00  0.00    -0.388 A  
HETATM   21  C   UNL     1     -11.190  11.415  67.270  1.00  0.00    -0.370 A  
ENDBRANCH  12  14
ENDBRANCH  10  12
ENDBRANCH   8  10
ENDBRANCH   5   8
BRANCH   7  22
HETATM   22  C   UNL     1      -9.980   5.989  72.395  1.00  0.00    -0.170 A  
HETATM   23  N   UNL     1      -8.850   5.449  72.808  1.00  0.00    -0.123 NA 
HETATM   24  N   UNL     1     -11.037   5.140  72.624  1.00  0.00    -0.248 NA 
HETATM   25  C   UNL     1      -9.186   4.221  73.311  1.00  0.00    -0.109 A  
HETATM   26  H   UNL     1      -7.917   5.860  72.763  1.00  0.00     0.000 HD 
HETATM   27  C   UNL     1     -10.554   3.993  73.199  1.00  0.00    -0.183 A  
HETATM   28  C   UNL     1      -8.366   3.239  73.882  1.00  0.00    -0.074 A  
HETATM   29  C   UNL     1     -11.167   2.813  73.621  1.00  0.00    -0.311 A  
HETATM   30  C   UNL     1     -10.333   1.844  74.193  1.00  0.00    -0.170 A  
HETATM   31  C   UNL     1      -8.956   2.050  74.325  1.00  0.00    -0.071 A  
ENDBRANCH   7  22
TORSDOF 5
ENDMDL
MODEL      138
REMARK 921   NORMALIZED FREE ENERGY PREDICTED BY IDOCK:   -4.92 KCAL/MOL
REMARK 922        TOTAL FREE ENERGY PREDICTED BY IDOCK:   -7.13 KCAL/MOL
REMARK 923 INTER-LIGAND FREE ENERGY PREDICTED BY IDOCK:   -7.21 KCAL/MOL
REMARK 924 INTRA-LIGAND FREE ENERGY PREDICTED BY IDOCK:    0.08 KCAL/MOL
REMARK 927      BINDING AFFINITY PREDICTED BY RF-SCORE:    0.00 PKD
ROOT
HETATM    1  C   UNL     1      -7.462  10.469  69.879  1.00  0.00    -0.080 C  
HETATM    2  N   UNL     1      -8.210   9.379  69.234  1.00  0.00    -0.106 NA 
HETATM    3  C   UNL     1      -9.588   9.316  69.750  1.00  0.00    -0.190 C  
HETATM    4  C   UNL     1     -10.505  10.439  69.280  1.00  0.00    -0.257 C  
HETATM    5  C   UNL     1     -10.465  10.618  67.755  1.00  0.00    -0.221 C  
HETATM    6  C   UNL     1      -9.022  10.694  67.237  1.00  0.00    -0.141 C  
HETATM    7  C   UNL     1      -8.175   9.520  67.755  1.00  0.00    -0.114 C  
ENDROOT
BRANCH   5   8
HETATM    8  N   UNL     1     -11.277  11.761  67.333  1.00  0.00    -0.276 N  
HETATM    9  H   UNL     1     -12.027  11.625  66.656  1.00  0.00     0.000 HD 
BRANCH   8  10
HETATM   10  C   UNL     1     -11.037  13.014  67.840  1.00  0.00    -0.255 C  
HETATM   11  O   UNL     1      -9.923  13.527  67.870  1.00  0.00    -0.231 OA 
BRANCH  10  12
HETATM   12  N   UNL     1     -12.173  13.576  68.394  1.00  0.00    -0.309 N  
HETATM   13  H   UNL     1     -13.059  13.594  67.888  1.00  0.00     0.000 HD 
BRANCH  12  14
HETATM   14  C   UNL     1     -12.055  14.121  69.690  1.00  0.00    -0.349 A  
HETATM   15  C   UNL     1     -12.260  15.303  72.205  1.00  0.00    -0.466 A  
HETATM   16  C   UNL     1     -12.468  15.926  73.478  1.00  0.00    -0.568 C  
HETATM   17  N   UNL     1     -12.643  16.434  74.505  1.00  0.00    -0.776 NA 
HETATM   18  C   UNL     1     -11.765  15.478  69.835  1.00  0.00    -0.368 A  
HETATM   19  C   UNL     1     -12.465  13.928  72.066  1.00  0.00    -0.198 A  
HETATM   20  C   UNL     1     -12.360  13.339  70.809  1.00  0.00    -0.425 A  
HETATM   21  C   UNL     1     -11.894  16.071  71.093  1.00  0.00    -0.465 A  
ENDBRANCH  12  14
ENDBRANCH  10  12
ENDBRANCH   8  10
ENDBRANCH   5   8
BRANCH   7  22
HETATM   22  C   UNL     1      -8.574   8.243  67.052  1.00  0.00    -0.123 A  
HETATM   23  N   UNL     1      -7.934   7.660  66.056  1.00  0.00    -0.107 NA 
HETATM   24  N   UNL     1      -9.694   7.525  67.398  1.00  0.00    -0.150 NA 
HETATM   25  C   UNL     1      -8.663   6.543  65.750  1.00  0.00    -0.120 A  
HETATM   26  H   UNL     1      -7.075   7.976  65.606  1.00  0.00     0.000 HD 
HETATM   27  C   UNL     1      -9.782   6.437  66.569  1.00  0.00    -0.129 A  
HETATM   28  C   UNL     1      -8.426   5.566  64.773  1.00  0.00    -0.125 A  
HETATM   29  C   UNL     1     -10.707   5.397  66.465  1.00  0.00    -0.309 A  
HETATM   30  C   UNL     1     -10.452   4.428  65.486  1.00  0.00    -0.228 A  
HETATM   31  C   UNL     1      -9.332   4.507  64.654  1.00  0.00    -0.128 A  
ENDBRANCH   7  22
TORSDOF 5
ENDMDL
MODEL      139
REMARK 921   NORMALIZED FREE ENERGY PREDICTED BY IDOCK:   -4.92 KCAL/MOL
REMARK 922        TOTAL FREE ENERGY PREDICTED BY IDOCK:   -7.13 KCAL/MOL
REMARK 923 INTER-LIGAND FREE ENERGY PREDICTED BY IDOCK:   -6.62 KCAL/MOL
REMARK 924 INTRA-LIGAND FREE ENERGY PREDICTED BY IDOCK:   -0.51 KCAL/MOL
REMARK 927      BINDING AFFINITY PREDICTED BY RF-SCORE:    0.00 PKD
ROOT
HETATM    1  C   UNL     1     -10.452  11.860  64.468  1.00  0.00    -0.296 C  
HETATM    2  N   UNL     1      -9.859  10.859  65.368  1.00  0.00    -0.239 NA 
HETATM    3  C   UNL     1      -8.754  11.447  66.145  1.00  0.00    -0.153 C  
HETATM    4  C   UNL     1      -9.180  12.416  67.242  1.00  0.00    -0.187 C  
HETATM    5  C   UNL     1     -10.271  11.822  68.145  1.00  0.00    -0.203 C  
HETATM    6  C   UNL     1     -11.419  11.225  67.320  1.00  0.00    -0.265 C  
HETATM    7  C   UNL     1     -10.897  10.258  66.246  1.00  0.00     0.085 C  
ENDROOT
BRANCH   5   8
HETATM    8  N   UNL     1     -10.735  12.800  69.131  1.00  0.00    -0.440 N  
HETATM    9  H   UNL     1     -10.725  12.562  70.123  1.00  0.00     0.000 HD 
BRANCH   8  10
HETATM   10  C   UNL     1     -11.183  14.035  68.734  1.00  0.00    -0.271 C  
HETATM   11  O   UNL     1     -12.102  14.194  67.937  1.00  0.00    -0.358 OA 
BRANCH  10  12
HETATM   12  N   UNL     1     -10.416  15.059  69.260  1.00  0.00    -0.243 N  
HETATM   13  H   UNL     1     -10.178  15.091  70.251  1.00  0.00     0.000 HD 
BRANCH  12  14
HETATM   14  C   UNL     1      -9.977  16.059  68.365  1.00  0.00    -0.220 A  
HETATM   15  C   UNL     1      -8.827  18.153  66.932  1.00  0.00    -0.273 A  
HETATM   16  C   UNL     1      -8.173  19.246  66.278  1.00  0.00    -0.318 C  
HETATM   17  N   UNL     1      -7.640  20.134  65.756  1.00  0.00    -0.282 NA 
HETATM   18  C   UNL     1     -10.557  17.326  68.420  1.00  0.00    -0.368 A  
HETATM   19  C   UNL     1      -8.303  16.863  66.815  1.00  0.00    -0.269 A  
HETATM   20  C   UNL     1      -8.881  15.818  67.530  1.00  0.00    -0.196 A  
HETATM   21  C   UNL     1      -9.962  18.379  67.720  1.00  0.00    -0.365 A  
ENDBRANCH  12  14
ENDBRANCH  10  12
ENDBRANCH   8  10
ENDBRANCH   5   8
BRANCH   7  22
HETATM   22  C   UNL     1     -10.425   8.975  66.889  1.00  0.00    -0.223 A  
HETATM   23  N   UNL     1     -10.756   8.524  68.084  1.00  0.00    -0.439 NA 
HETATM   24  N   UNL     1      -9.564   8.105  66.262  1.00  0.00    -0.207 NA 
HETATM   25  C   UNL     1     -10.088   7.339  68.232  1.00  0.00    -0.170 A  
HETATM   26  H   UNL     1     -11.380   8.967  68.758  1.00  0.00     0.000 HD 
HETATM   27  C   UNL     1      -9.321   7.054  67.108  1.00  0.00    -0.143 A  
HETATM   28  C   UNL     1     -10.090   6.446  69.313  1.00  0.00    -0.203 A  
HETATM   29  C   UNL     1      -8.527   5.911  66.996  1.00  0.00    -0.107 A  
HETATM   30  C   UNL     1      -8.544   5.028  68.084  1.00  0.00    -0.102 A  
HETATM   31  C   UNL     1      -9.312   5.288  69.223  1.00  0.00    -0.167 A  
ENDBRANCH   7  22
TORSDOF 5
ENDMDL
MODEL      140
REMARK 921   NORMALIZED FREE ENERGY PREDICTED BY IDOCK:   -4.91 KCAL/MOL
REMARK 922        TOTAL FREE ENERGY PREDICTED BY IDOCK:   -7.12 KCAL/MOL
REMARK 923 INTER-LIGAND FREE ENERGY PREDICTED BY IDOCK:   -6.72 KCAL/MOL
REMARK 924 INTRA-LIGAND FREE ENERGY PREDICTED BY IDOCK:   -0.40 KCAL/MOL
REMARK 927      BINDING AFFINITY PREDICTED BY RF-SCORE:    0.00 PKD
ROOT
HETATM    1  C   UNL     1      -7.033   8.618  68.371  1.00  0.00    -0.066 C  
HETATM    2  N   UNL     1      -7.922   9.150  67.326  1.00  0.00    -0.102 NA 
HETATM    3  C   UNL     1      -8.192   8.127  66.301  1.00  0.00    -0.114 C  
HETATM    4  C   UNL     1      -9.120   7.000  66.742  1.00  0.00    -0.162 C  
HETATM    5  C   UNL     1     -10.409   7.531  67.384  1.00  0.00    -0.276 C  
HETATM    6  C   UNL     1     -10.109   8.587  68.457  1.00  0.00    -0.214 C  
HETATM    7  C   UNL     1      -9.175   9.684  67.922  1.00  0.00    -0.124 C  
ENDROOT
BRANCH   5   8
HETATM    8  N   UNL     1     -11.243   6.437  67.887  1.00  0.00    -0.573 N  
HETATM    9  H   UNL     1     -11.919   5.991  67.268  1.00  0.00     0.000 HD 
BRANCH   8  10
HETATM   10  C   UNL     1     -11.122   6.006  69.185  1.00  0.00    -0.335 C  
HETATM   11  O   UNL     1     -11.811   6.434  70.104  1.00  0.00    -0.409 OA 
BRANCH  10  12
HETATM   12  N   UNL     1     -10.074   5.116  69.340  1.00  0.00    -0.225 N  
HETATM   13  H   UNL     1      -9.858   4.418  68.628  1.00  0.00     0.000 HD 
BRANCH  12  14
HETATM   14  C   UNL     1      -9.316   5.215  70.527  1.00  0.00    -0.158 A  
HETATM   15  C   UNL     1      -7.523   5.140  72.658  1.00  0.00    -0.096 A  
HETATM   16  C   UNL     1      -6.539   5.042  73.694  1.00  0.00    -0.064 C  
HETATM   17  N   UNL     1      -5.739   4.956  74.528  1.00  0.00    -0.032 NA 
HETATM   18  C   UNL     1      -9.468   4.243  71.516  1.00  0.00    -0.220 A  
HETATM   19  C   UNL     1      -7.430   6.162  71.709  1.00  0.00    -0.095 A  
HETATM   20  C   UNL     1      -8.329   6.198  70.646  1.00  0.00    -0.126 A  
HETATM   21  C   UNL     1      -8.552   4.194  72.569  1.00  0.00    -0.108 A  
ENDBRANCH  12  14
ENDBRANCH  10  12
ENDBRANCH   8  10
ENDBRANCH   5   8
BRANCH   7  22
HETATM   22  C   UNL     1      -9.924  10.580  66.963  1.00  0.00    -0.201 A  
HETATM   23  N   UNL     1      -9.980  10.458  65.651  1.00  0.00    -0.257 NA 
HETATM   24  N   UNL     1     -10.658  11.664  67.382  1.00  0.00    -0.212 NA 
HETATM   25  C   UNL     1     -10.765  11.490  65.214  1.00  0.00    -0.279 A  
HETATM   26  H   UNL     1      -9.531   9.742  65.079  1.00  0.00     0.000 HD 
HETATM   27  C   UNL     1     -11.198  12.273  66.279  1.00  0.00    -0.323 A  
HETATM   28  C   UNL     1     -11.152  11.822  63.909  1.00  0.00    -0.482 A  
HETATM   29  C   UNL     1     -12.003  13.401  66.117  1.00  0.00    -0.460 A  
HETATM   30  C   UNL     1     -12.384  13.716  64.807  1.00  0.00    -0.429 A  
HETATM   31  C   UNL     1     -11.969  12.942  63.720  1.00  0.00    -0.582 A  
ENDBRANCH   7  22
TORSDOF 5
ENDMDL
MODEL      141
REMARK 921   NORMALIZED FREE ENERGY PREDICTED BY IDOCK:   -4.91 KCAL/MOL
REMARK 922        TOTAL FREE ENERGY PREDICTED BY IDOCK:   -7.11 KCAL/MOL
REMARK 923 INTER-LIGAND FREE ENERGY PREDICTED BY IDOCK:   -6.89 KCAL/MOL
REMARK 924 INTRA-LIGAND FREE ENERGY PREDICTED BY IDOCK:   -0.23 KCAL/MOL
REMARK 927      BINDING AFFINITY PREDICTED BY RF-SCORE:    0.00 PKD
ROOT
HETATM    1  C   UNL     1     -10.376  14.787  69.287  1.00  0.00    -0.206 C  
HETATM    2  N   UNL     1     -11.233  13.630  69.587  1.00  0.00    -0.146 NA 
HETATM    3  C   UNL     1     -12.517  13.733  68.873  1.00  0.00     0.193 C  
HETATM    4  C   UNL     1     -12.442  13.491  67.370  1.00  0.00     0.075 C  
HETATM    5  C   UNL     1     -11.693  12.194  67.031  1.00  0.00    -0.303 C  
HETATM    6  C   UNL     1     -10.353  12.109  67.773  1.00  0.00    -0.217 C  
HETATM    7  C   UNL     1     -10.527  12.358  69.280  1.00  0.00     0.219 C  
ENDROOT
BRANCH   5   8
HETATM    8  N   UNL     1     -11.548  12.028  65.583  1.00  0.00    -0.338 N  
HETATM    9  H   UNL     1     -12.376  11.899  65.003  1.00  0.00     0.000 HD 
BRANCH   8  10
HETATM   10  C   UNL     1     -10.305  12.043  64.999  1.00  0.00    -0.281 C  
HETATM   11  O   UNL     1      -9.456  11.182  65.200  1.00  0.00    -0.216 OA 
BRANCH  10  12
HETATM   12  N   UNL     1     -10.100  13.186  64.247  1.00  0.00    -0.616 N  
HETATM   13  H   UNL     1      -9.827  13.135  63.265  1.00  0.00     0.000 HD 
BRANCH  12  14
HETATM   14  C   UNL     1     -10.284  14.425  64.897  1.00  0.00    -0.324 A  
HETATM   15  C   UNL     1     -10.398  17.045  65.840  1.00  0.00    -0.310 A  
HETATM   16  C   UNL     1     -10.402  18.419  66.240  1.00  0.00    -0.415 C  
HETATM   17  N   UNL     1     -10.398  19.534  66.559  1.00  0.00    -0.442 NA 
HETATM   18  C   UNL     1      -9.323  14.869  65.805  1.00  0.00    -0.134 A  
HETATM   19  C   UNL     1     -11.405  16.567  64.997  1.00  0.00     0.038 A  
HETATM   20  C   UNL     1     -11.346  15.257  64.529  1.00  0.00    -0.307 A  
HETATM   21  C   UNL     1      -9.369  16.190  66.255  1.00  0.00    -0.351 A  
ENDBRANCH  12  14
ENDBRANCH  10  12
ENDBRANCH   8  10
ENDBRANCH   5   8
BRANCH   7  22
HETATM   22  C   UNL     1     -11.192  11.167  69.930  1.00  0.00    -0.217 A  
HETATM   23  N   UNL     1     -10.815   9.906  69.836  1.00  0.00    -0.258 NA 
HETATM   24  N   UNL     1     -12.308  11.283  70.724  1.00  0.00    -0.386 NA 
HETATM   25  C   UNL     1     -11.713   9.194  70.583  1.00  0.00    -0.209 A  
HETATM   26  H   UNL     1     -10.019   9.538  69.314  1.00  0.00     0.000 HD 
HETATM   27  C   UNL     1     -12.670  10.031  71.146  1.00  0.00    -0.387 A  
HETATM   28  C   UNL     1     -11.771   7.814  70.826  1.00  0.00    -0.242 A  
HETATM   29  C   UNL     1     -13.715   9.565  71.945  1.00  0.00    -0.410 A  
HETATM   30  C   UNL     1     -13.755   8.184  72.181  1.00  0.00    -0.282 A  
HETATM   31  C   UNL     1     -12.801   7.322  71.634  1.00  0.00    -0.415 A  
ENDBRANCH   7  22
TORSDOF 5
ENDMDL
MODEL      142
REMARK 921   NORMALIZED FREE ENERGY PREDICTED BY IDOCK:   -4.89 KCAL/MOL
REMARK 922        TOTAL FREE ENERGY PREDICTED BY IDOCK:   -7.09 KCAL/MOL
REMARK 923 INTER-LIGAND FREE ENERGY PREDICTED BY IDOCK:   -5.79 KCAL/MOL
REMARK 924 INTRA-LIGAND FREE ENERGY PREDICTED BY IDOCK:   -1.30 KCAL/MOL
REMARK 927      BINDING AFFINITY PREDICTED BY RF-SCORE:    0.00 PKD
ROOT
HETATM    1  C   UNL     1     -11.669   7.250  71.663  1.00  0.00    -0.284 C  
HETATM    2  N   UNL     1     -11.258   8.565  71.148  1.00  0.00    -0.257 NA 
HETATM    3  C   UNL     1     -10.107   9.085  71.906  1.00  0.00    -0.253 C  
HETATM    4  C   UNL     1      -8.782   8.384  71.629  1.00  0.00    -0.240 C  
HETATM    5  C   UNL     1      -8.487   8.280  70.126  1.00  0.00    -0.126 C  
HETATM    6  C   UNL     1      -9.692   7.726  69.354  1.00  0.00    -0.169 C  
HETATM    7  C   UNL     1     -10.978   8.496  69.690  1.00  0.00    -0.086 C  
ENDROOT
BRANCH   5   8
HETATM    8  N   UNL     1      -7.260   7.520  69.877  1.00  0.00    -0.077 N  
HETATM    9  H   UNL     1      -7.174   6.568  70.231  1.00  0.00     0.000 HD 
BRANCH   8  10
HETATM   10  C   UNL     1      -6.223   8.078  69.171  1.00  0.00    -0.039 C  
HETATM   11  O   UNL     1      -5.463   8.918  69.641  1.00  0.00    -0.033 OA 
BRANCH  10  12
HETATM   12  N   UNL     1      -6.207   7.657  67.853  1.00  0.00    -0.047 N  
HETATM   13  H   UNL     1      -5.631   6.870  67.553  1.00  0.00     0.000 HD 
BRANCH  12  14
HETATM   14  C   UNL     1      -7.021   8.363  66.942  1.00  0.00    -0.074 A  
HETATM   15  C   UNL     1      -8.872   9.872  65.507  1.00  0.00    -0.186 A  
HETATM   16  C   UNL     1      -9.870  10.670  64.861  1.00  0.00    -0.302 C  
HETATM   17  N   UNL     1     -10.683  11.316  64.345  1.00  0.00    -0.348 NA 
HETATM   18  C   UNL     1      -8.146   7.738  66.406  1.00  0.00    -0.109 A  
HETATM   19  C   UNL     1      -7.700  10.473  65.973  1.00  0.00    -0.147 A  
HETATM   20  C   UNL     1      -6.776   9.717  66.688  1.00  0.00    -0.079 A  
HETATM   21  C   UNL     1      -9.085   8.503  65.710  1.00  0.00    -0.222 A  
ENDBRANCH  12  14
ENDBRANCH  10  12
ENDBRANCH   8  10
ENDBRANCH   5   8
BRANCH   7  22
HETATM   22  C   UNL     1     -10.945   9.866  69.052  1.00  0.00    -0.190 A  
HETATM   23  N   UNL     1     -11.944  10.476  68.444  1.00  0.00    -0.788 NA 
HETATM   24  N   UNL     1      -9.817  10.651  69.042  1.00  0.00    -0.201 NA 
HETATM   25  C   UNL     1     -11.446  11.681  68.029  1.00  0.00    -0.315 A  
HETATM   26  H   UNL     1     -12.892  10.124  68.311  1.00  0.00     0.000 HD 
HETATM   27  C   UNL     1     -10.107  11.816  68.380  1.00  0.00    -0.201 A  
HETATM   28  C   UNL     1     -12.087  12.718  67.338  1.00  0.00    -0.222 A  
HETATM   29  C   UNL     1      -9.347  12.944  68.068  1.00  0.00    -0.213 A  
HETATM   30  C   UNL     1     -10.005  13.972  67.381  1.00  0.00    -0.243 A  
HETATM   31  C   UNL     1     -11.352  13.865  67.022  1.00  0.00    -0.343 A  
ENDBRANCH   7  22
TORSDOF 5
ENDMDL
MODEL      143
REMARK 921   NORMALIZED FREE ENERGY PREDICTED BY IDOCK:   -4.81 KCAL/MOL
REMARK 922        TOTAL FREE ENERGY PREDICTED BY IDOCK:   -6.99 KCAL/MOL
REMARK 923 INTER-LIGAND FREE ENERGY PREDICTED BY IDOCK:   -6.28 KCAL/MOL
REMARK 924 INTRA-LIGAND FREE ENERGY PREDICTED BY IDOCK:   -0.71 KCAL/MOL
REMARK 927      BINDING AFFINITY PREDICTED BY RF-SCORE:    0.00 PKD
ROOT
HETATM    1  C   UNL     1      -5.790  10.399  68.700  1.00  0.00    -0.040 C  
HETATM    2  N   UNL     1      -6.607   9.193  68.498  1.00  0.00    -0.054 NA 
HETATM    3  C   UNL     1      -7.180   8.732  69.774  1.00  0.00    -0.051 C  
HETATM    4  C   UNL     1      -8.307   9.597  70.325  1.00  0.00    -0.216 C  
HETATM    5  C   UNL     1      -9.388   9.877  69.272  1.00  0.00    -0.206 C  
HETATM    6  C   UNL     1      -8.775  10.368  67.954  1.00  0.00    -0.118 C  
HETATM    7  C   UNL     1      -7.655   9.432  67.471  1.00  0.00    -0.091 C  
ENDROOT
BRANCH   5   8
HETATM    8  N   UNL     1     -10.412  10.787  69.791  1.00  0.00    -0.436 N  
HETATM    9  H   UNL     1     -10.138  11.572  70.381  1.00  0.00     0.000 HD 
BRANCH   8  10
HETATM   10  C   UNL     1     -11.737  10.593  69.489  1.00  0.00    -0.284 C  
HETATM   11  O   UNL     1     -12.252  10.969  68.441  1.00  0.00    -0.586 OA 
BRANCH  10  12
HETATM   12  N   UNL     1     -12.430  10.022  70.541  1.00  0.00    -0.480 N  
HETATM   13  H   UNL     1     -13.283  10.444  70.910  1.00  0.00     0.000 HD 
BRANCH  12  14
HETATM   14  C   UNL     1     -11.907   8.828  71.083  1.00  0.00    -0.295 A  
HETATM   15  C   UNL     1     -11.299   6.395  72.297  1.00  0.00    -0.330 A  
HETATM   16  C   UNL     1     -11.088   5.136  72.945  1.00  0.00    -0.295 C  
HETATM   17  N   UNL     1     -10.925   4.117  73.474  1.00  0.00    -0.251 NA 
HETATM   18  C   UNL     1     -11.475   8.813  72.409  1.00  0.00    -0.301 A  
HETATM   19  C   UNL     1     -11.650   6.427  70.945  1.00  0.00    -0.393 A  
HETATM   20  C   UNL     1     -11.952   7.644  70.340  1.00  0.00     0.059 A  
HETATM   21  C   UNL     1     -11.196   7.589  73.021  1.00  0.00    -0.373 A  
ENDBRANCH  12  14
ENDBRANCH  10  12
ENDBRANCH   8  10
ENDBRANCH   5   8
BRANCH   7  22
HETATM   22  C   UNL     1      -8.245   8.142  66.950  1.00  0.00    -0.111 A  
HETATM   23  N   UNL     1      -9.375   7.581  67.335  1.00  0.00    -0.137 NA 
HETATM   24  N   UNL     1      -7.636   7.390  65.974  1.00  0.00    -0.085 NA 
HETATM   25  C   UNL     1      -9.494   6.438  66.592  1.00  0.00    -0.161 A  
HETATM   26  H   UNL     1     -10.026   7.927  68.040  1.00  0.00     0.000 HD 
HETATM   27  C   UNL     1      -8.410   6.284  65.735  1.00  0.00    -0.145 A  
HETATM   28  C   UNL     1     -10.511   5.474  66.601  1.00  0.00    -0.355 A  
HETATM   29  C   UNL     1      -8.269   5.196  64.872  1.00  0.00    -0.136 A  
HETATM   30  C   UNL     1      -9.297   4.245  64.891  1.00  0.00    -0.165 A  
HETATM   31  C   UNL     1     -10.401   4.379  65.737  1.00  0.00    -0.246 A  
ENDBRANCH   7  22
TORSDOF 5
ENDMDL
MODEL      144
REMARK 921   NORMALIZED FREE ENERGY PREDICTED BY IDOCK:   -4.80 KCAL/MOL
REMARK 922        TOTAL FREE ENERGY PREDICTED BY IDOCK:   -6.98 KCAL/MOL
REMARK 923 INTER-LIGAND FREE ENERGY PREDICTED BY IDOCK:   -6.40 KCAL/MOL
REMARK 924 INTRA-LIGAND FREE ENERGY PREDICTED BY IDOCK:   -0.58 KCAL/MOL
REMARK 927      BINDING AFFINITY PREDICTED BY RF-SCORE:    0.00 PKD
ROOT
HETATM    1  C   UNL     1     -10.727  10.767  69.646  1.00  0.00    -0.211 C  
HETATM    2  N   UNL     1     -10.154  10.021  68.515  1.00  0.00    -0.163 NA 
HETATM    3  C   UNL     1     -11.035  10.100  67.338  1.00  0.00    -0.229 C  
HETATM    4  C   UNL     1     -11.059  11.455  66.639  1.00  0.00    -0.333 C  
HETATM    5  C   UNL     1      -9.646  11.976  66.341  1.00  0.00    -0.228 C  
HETATM    6  C   UNL     1      -8.745  11.897  67.581  1.00  0.00    -0.162 C  
HETATM    7  C   UNL     1      -8.778  10.497  68.213  1.00  0.00    -0.135 C  
ENDROOT
BRANCH   5   8
HETATM    8  N   UNL     1      -9.686  13.319  65.758  1.00  0.00    -0.462 N  
HETATM    9  H   UNL     1      -9.794  13.429  64.750  1.00  0.00     0.000 HD 
BRANCH   8  10
HETATM   10  C   UNL     1      -9.580  14.431  66.556  1.00  0.00    -0.293 C  
HETATM   11  O   UNL     1      -8.512  14.848  66.991  1.00  0.00    -0.211 OA 
BRANCH  10  12
HETATM   12  N   UNL     1     -10.818  14.954  66.885  1.00  0.00    -0.313 N  
HETATM   13  H   UNL     1     -11.467  15.276  66.167  1.00  0.00     0.000 HD 
BRANCH  12  14
HETATM   14  C   UNL     1     -11.144  15.023  68.256  1.00  0.00    -0.286 A  
HETATM   15  C   UNL     1     -12.159  15.382  70.826  1.00  0.00    -0.413 A  
HETATM   16  C   UNL     1     -12.763  15.614  72.103  1.00  0.00    -0.435 C  
HETATM   17  N   UNL     1     -13.258  15.807  73.133  1.00  0.00    -0.553 NA 
HETATM   18  C   UNL     1     -10.764  16.145  68.992  1.00  0.00    -0.287 A  
HETATM   19  C   UNL     1     -12.467  14.219  70.115  1.00  0.00    -0.393 A  
HETATM   20  C   UNL     1     -11.957  14.041  68.832  1.00  0.00    -0.387 A  
HETATM   21  C   UNL     1     -11.295  16.334  70.270  1.00  0.00    -0.299 A  
ENDBRANCH  12  14
ENDBRANCH  10  12
ENDBRANCH   8  10
ENDBRANCH   5   8
BRANCH   7  22
HETATM   22  C   UNL     1      -8.016   9.519  67.349  1.00  0.00    -0.106 A  
HETATM   23  N   UNL     1      -8.331   8.260  67.118  1.00  0.00    -0.122 NA 
HETATM   24  N   UNL     1      -6.862   9.862  66.684  1.00  0.00    -0.083 NA 
HETATM   25  C   UNL     1      -7.356   7.778  66.288  1.00  0.00    -0.079 A  
HETATM   26  H   UNL     1      -9.136   7.749  67.482  1.00  0.00     0.000 HD 
HETATM   27  C   UNL     1      -6.411   8.759  66.006  1.00  0.00    -0.057 A  
HETATM   28  C   UNL     1      -7.212   6.500  65.732  1.00  0.00    -0.070 A  
HETATM   29  C   UNL     1      -5.299   8.535  65.193  1.00  0.00    -0.035 A  
HETATM   30  C   UNL     1      -5.173   7.253  64.643  1.00  0.00    -0.029 A  
HETATM   31  C   UNL     1      -6.112   6.251  64.905  1.00  0.00    -0.030 A  
ENDBRANCH   7  22
TORSDOF 5
ENDMDL
MODEL      145
REMARK 921   NORMALIZED FREE ENERGY PREDICTED BY IDOCK:   -4.78 KCAL/MOL
REMARK 922        TOTAL FREE ENERGY PREDICTED BY IDOCK:   -6.95 KCAL/MOL
REMARK 923 INTER-LIGAND FREE ENERGY PREDICTED BY IDOCK:   -6.70 KCAL/MOL
REMARK 924 INTRA-LIGAND FREE ENERGY PREDICTED BY IDOCK:   -0.25 KCAL/MOL
REMARK 927      BINDING AFFINITY PREDICTED BY RF-SCORE:    0.00 PKD
ROOT
HETATM    1  C   UNL     1      -7.375  10.548  67.481  1.00  0.00    -0.092 C  
HETATM    2  N   UNL     1      -7.763   9.264  68.085  1.00  0.00    -0.087 NA 
HETATM    3  C   UNL     1      -8.174   9.450  69.487  1.00  0.00    -0.124 C  
HETATM    4  C   UNL     1      -9.524  10.132  69.679  1.00  0.00    -0.226 C  
HETATM    5  C   UNL     1     -10.626   9.477  68.834  1.00  0.00    -0.216 C  
HETATM    6  C   UNL     1     -10.186   9.301  67.375  1.00  0.00    -0.304 C  
HETATM    7  C   UNL     1      -8.821   8.601  67.279  1.00  0.00    -0.133 C  
ENDROOT
BRANCH   5   8
HETATM    8  N   UNL     1     -11.893  10.203  68.958  1.00  0.00    -0.496 N  
HETATM    9  H   UNL     1     -12.769   9.685  69.006  1.00  0.00     0.000 HD 
BRANCH   8  10
HETATM   10  C   UNL     1     -11.910  11.575  69.008  1.00  0.00    -0.343 C  
HETATM   11  O   UNL     1     -12.013  12.209  70.052  1.00  0.00    -0.329 OA 
BRANCH  10  12
HETATM   12  N   UNL     1     -11.898  12.140  67.746  1.00  0.00    -0.317 N  
HETATM   13  H   UNL     1     -12.421  11.728  66.972  1.00  0.00     0.000 HD 
BRANCH  12  14
HETATM   14  C   UNL     1     -11.131  13.312  67.573  1.00  0.00    -0.270 A  
HETATM   15  C   UNL     1      -9.625  15.522  66.789  1.00  0.00    -0.251 A  
HETATM   16  C   UNL     1      -8.862  16.625  66.287  1.00  0.00    -0.312 C  
HETATM   17  N   UNL     1      -8.244  17.513  65.873  1.00  0.00    -0.553 NA 
HETATM   18  C   UNL     1      -9.740  13.220  67.551  1.00  0.00    -0.224 A  
HETATM   19  C   UNL     1     -11.014  15.632  66.896  1.00  0.00    -0.243 A  
HETATM   20  C   UNL     1     -11.764  14.527  67.289  1.00  0.00    -0.429 A  
HETATM   21  C   UNL     1      -8.990  14.321  67.133  1.00  0.00    -0.237 A  
ENDBRANCH  12  14
ENDBRANCH  10  12
ENDBRANCH   8  10
ENDBRANCH   5   8
BRANCH   7  22
HETATM   22  C   UNL     1      -8.964   7.136  67.623  1.00  0.00    -0.125 A  
HETATM   23  N   UNL     1      -9.059   6.133  66.771  1.00  0.00    -0.129 NA 
HETATM   24  N   UNL     1      -9.010   6.680  68.919  1.00  0.00    -0.130 NA 
HETATM   25  C   UNL     1      -9.173   5.005  67.537  1.00  0.00    -0.120 A  
HETATM   26  H   UNL     1      -9.050   6.187  65.752  1.00  0.00     0.000 HD 
HETATM   27  C   UNL     1      -9.156   5.318  68.892  1.00  0.00    -0.111 A  
HETATM   28  C   UNL     1      -9.298   3.667  67.137  1.00  0.00    -0.228 A  
HETATM   29  C   UNL     1      -9.271   4.356  69.897  1.00  0.00    -0.202 A  
HETATM   30  C   UNL     1      -9.390   3.024  69.480  1.00  0.00    -0.213 A  
HETATM   31  C   UNL     1      -9.402   2.682  68.125  1.00  0.00    -0.258 A  
ENDBRANCH   7  22
TORSDOF 5
ENDMDL
MODEL      146
REMARK 921   NORMALIZED FREE ENERGY PREDICTED BY IDOCK:   -4.78 KCAL/MOL
REMARK 922        TOTAL FREE ENERGY PREDICTED BY IDOCK:   -6.94 KCAL/MOL
REMARK 923 INTER-LIGAND FREE ENERGY PREDICTED BY IDOCK:   -6.40 KCAL/MOL
REMARK 924 INTRA-LIGAND FREE ENERGY PREDICTED BY IDOCK:   -0.55 KCAL/MOL
REMARK 927      BINDING AFFINITY PREDICTED BY RF-SCORE:    0.00 PKD
ROOT
HETATM    1  C   UNL     1     -12.907  12.486  64.448  1.00  0.00    -0.275 C  
HETATM    2  N   UNL     1     -12.102  13.251  65.413  1.00  0.00    -0.395 NA 
HETATM    3  C   UNL     1     -11.841  12.453  66.623  1.00  0.00    -0.325 C  
HETATM    4  C   UNL     1     -10.840  11.318  66.445  1.00  0.00    -0.306 C  
HETATM    5  C   UNL     1      -9.543  11.792  65.773  1.00  0.00    -0.233 C  
HETATM    6  C   UNL     1      -9.833  12.611  64.508  1.00  0.00    -0.068 C  
HETATM    7  C   UNL     1     -10.845  13.734  64.784  1.00  0.00    -0.401 C  
ENDROOT
BRANCH   5   8
HETATM    8  N   UNL     1      -8.634  10.671  65.523  1.00  0.00    -0.183 N  
HETATM    9  H   UNL     1      -8.870   9.977  64.815  1.00  0.00     0.000 HD 
BRANCH   8  10
HETATM   10  C   UNL     1      -7.466  10.547  66.234  1.00  0.00    -0.133 C  
HETATM   11  O   UNL     1      -6.912  11.489  66.789  1.00  0.00    -0.137 OA 
BRANCH  10  12
HETATM   12  N   UNL     1      -6.949   9.266  66.162  1.00  0.00    -0.085 N  
HETATM   13  H   UNL     1      -6.231   9.019  65.480  1.00  0.00     0.000 HD 
BRANCH  12  14
HETATM   14  C   UNL     1      -7.456   8.314  67.073  1.00  0.00    -0.088 A  
HETATM   15  C   UNL     1      -8.859   6.637  68.800  1.00  0.00    -0.126 A  
HETATM   16  C   UNL     1      -9.666   5.827  69.661  1.00  0.00    -0.161 C  
HETATM   17  N   UNL     1     -10.327   5.177  70.357  1.00  0.00    -0.271 NA 
HETATM   18  C   UNL     1      -7.548   8.645  68.424  1.00  0.00    -0.096 A  
HETATM   19  C   UNL     1      -8.689   6.270  67.462  1.00  0.00    -0.105 A  
HETATM   20  C   UNL     1      -7.986   7.109  66.602  1.00  0.00    -0.111 A  
HETATM   21  C   UNL     1      -8.273   7.815  69.282  1.00  0.00    -0.129 A  
ENDBRANCH  12  14
ENDBRANCH  10  12
ENDBRANCH   8  10
ENDBRANCH   5   8
BRANCH   7  22
HETATM   22  C   UNL     1     -10.192  14.834  65.589  1.00  0.00    -0.358 A  
HETATM   23  N   UNL     1      -9.048  14.760  66.241  1.00  0.00    -0.468 NA 
HETATM   24  N   UNL     1     -10.751  16.082  65.728  1.00  0.00    -0.325 NA 
HETATM   25  C   UNL     1      -8.868  15.988  66.817  1.00  0.00    -0.256 A  
HETATM   26  H   UNL     1      -8.425  13.954  66.303  1.00  0.00     0.000 HD 
HETATM   27  C   UNL     1      -9.928  16.838  66.522  1.00  0.00    -0.298 A  
HETATM   28  C   UNL     1      -7.812  16.450  67.615  1.00  0.00    -0.160 A  
HETATM   29  C   UNL     1     -10.008  18.149  66.994  1.00  0.00    -0.341 A  
HETATM   30  C   UNL     1      -8.942  18.596  67.786  1.00  0.00    -0.301 A  
HETATM   31  C   UNL     1      -7.861  17.764  68.091  1.00  0.00    -0.264 A  
ENDBRANCH   7  22
TORSDOF 5
ENDMDL
MODEL      147
REMARK 921   NORMALIZED FREE ENERGY PREDICTED BY IDOCK:   -4.74 KCAL/MOL
REMARK 922        TOTAL FREE ENERGY PREDICTED BY IDOCK:   -6.90 KCAL/MOL
REMARK 923 INTER-LIGAND FREE ENERGY PREDICTED BY IDOCK:   -6.53 KCAL/MOL
REMARK 924 INTRA-LIGAND FREE ENERGY PREDICTED BY IDOCK:   -0.37 KCAL/MOL
REMARK 927      BINDING AFFINITY PREDICTED BY RF-SCORE:    0.00 PKD
ROOT
HETATM    1  C   UNL     1      -6.799   9.141  68.346  1.00  0.00    -0.064 C  
HETATM    2  N   UNL     1      -7.883   9.459  67.403  1.00  0.00    -0.102 NA 
HETATM    3  C   UNL     1      -8.618   8.241  67.024  1.00  0.00    -0.123 C  
HETATM    4  C   UNL     1      -9.517   7.664  68.113  1.00  0.00    -0.150 C  
HETATM    5  C   UNL     1     -10.437   8.730  68.725  1.00  0.00    -0.191 C  
HETATM    6  C   UNL     1      -9.653   9.987  69.125  1.00  0.00    -0.217 C  
HETATM    7  C   UNL     1      -8.783  10.499  67.966  1.00  0.00    -0.128 C  
ENDROOT
BRANCH   5   8
HETATM    8  N   UNL     1     -11.223   8.180  69.832  1.00  0.00    -0.446 N  
HETATM    9  H   UNL     1     -11.419   7.180  69.865  1.00  0.00     0.000 HD 
BRANCH   8  10
HETATM   10  C   UNL     1     -11.699   8.998  70.826  1.00  0.00    -0.242 C  
HETATM   11  O   UNL     1     -12.453   9.943  70.617  1.00  0.00    -0.262 OA 
BRANCH  10  12
HETATM   12  N   UNL     1     -11.151   8.691  72.058  1.00  0.00    -0.345 N  
HETATM   13  H   UNL     1     -11.368   9.242  72.890  1.00  0.00     0.000 HD 
BRANCH  12  14
HETATM   14  C   UNL     1     -10.279   7.583  72.116  1.00  0.00    -0.196 A  
HETATM   15  C   UNL     1      -8.555   5.420  71.778  1.00  0.00    -0.131 A  
HETATM   16  C   UNL     1      -7.674   4.326  71.501  1.00  0.00    -0.073 C  
HETATM   17  N   UNL     1      -6.963   3.441  71.268  1.00  0.00    -0.032 NA 
HETATM   18  C   UNL     1     -10.806   6.295  72.025  1.00  0.00    -0.286 A  
HETATM   19  C   UNL     1      -8.031   6.703  71.956  1.00  0.00    -0.102 A  
HETATM   20  C   UNL     1      -8.895   7.782  72.127  1.00  0.00    -0.176 A  
HETATM   21  C   UNL     1      -9.940   5.216  71.830  1.00  0.00    -0.239 A  
ENDBRANCH  12  14
ENDBRANCH  10  12
ENDBRANCH   8  10
ENDBRANCH   5   8
BRANCH   7  22
HETATM   22  C   UNL     1      -9.652  11.134  66.906  1.00  0.00    -0.186 A  
HETATM   23  N   UNL     1      -9.532  10.992  65.599  1.00  0.00    -0.208 NA 
HETATM   24  N   UNL     1     -10.707  11.961  67.209  1.00  0.00    -0.227 NA 
HETATM   25  C   UNL     1     -10.530  11.749  65.050  1.00  0.00    -0.285 A  
HETATM   26  H   UNL     1      -8.838  10.433  65.102  1.00  0.00     0.000 HD 
HETATM   27  C   UNL     1     -11.280  12.380  66.037  1.00  0.00    -0.335 A  
HETATM   28  C   UNL     1     -10.857  11.946  63.701  1.00  0.00    -0.510 A  
HETATM   29  C   UNL     1     -12.354  13.225  65.754  1.00  0.00    -0.505 A  
HETATM   30  C   UNL     1     -12.668  13.408  64.401  1.00  0.00    -0.156 A  
HETATM   31  C   UNL     1     -11.936  12.780  63.390  1.00  0.00    -0.613 A  
ENDBRANCH   7  22
TORSDOF 5
ENDMDL
MODEL      148
REMARK 921   NORMALIZED FREE ENERGY PREDICTED BY IDOCK:   -4.73 KCAL/MOL
REMARK 922        TOTAL FREE ENERGY PREDICTED BY IDOCK:   -6.88 KCAL/MOL
REMARK 923 INTER-LIGAND FREE ENERGY PREDICTED BY IDOCK:   -6.46 KCAL/MOL
REMARK 924 INTRA-LIGAND FREE ENERGY PREDICTED BY IDOCK:   -0.43 KCAL/MOL
REMARK 927      BINDING AFFINITY PREDICTED BY RF-SCORE:    0.00 PKD
ROOT
HETATM    1  C   UNL     1     -11.037   6.307  71.994  1.00  0.00    -0.268 C  
HETATM    2  N   UNL     1     -11.135   7.766  72.157  1.00  0.00    -0.260 NA 
HETATM    3  C   UNL     1      -9.952   8.293  72.857  1.00  0.00    -0.226 C  
HETATM    4  C   UNL     1      -8.669   8.311  72.033  1.00  0.00    -0.243 C  
HETATM    5  C   UNL     1      -8.873   8.970  70.661  1.00  0.00    -0.219 C  
HETATM    6  C   UNL     1     -10.103   8.401  69.941  1.00  0.00    -0.195 C  
HETATM    7  C   UNL     1     -11.347   8.430  70.844  1.00  0.00    -0.268 C  
ENDROOT
BRANCH   5   8
HETATM    8  N   UNL     1      -7.657   8.892  69.848  1.00  0.00    -0.060 N  
HETATM    9  H   UNL     1      -7.000   9.672  69.846  1.00  0.00     0.000 HD 
BRANCH   8  10
HETATM   10  C   UNL     1      -7.394   7.779  69.089  1.00  0.00    -0.088 C  
HETATM   11  O   UNL     1      -6.750   6.820  69.500  1.00  0.00    -0.047 OA 
BRANCH  10  12
HETATM   12  N   UNL     1      -7.853   7.917  67.791  1.00  0.00    -0.121 N  
HETATM   13  H   UNL     1      -7.953   8.834  67.356  1.00  0.00     0.000 HD 
BRANCH  12  14
HETATM   14  C   UNL     1      -8.175   6.733  67.094  1.00  0.00    -0.121 A  
HETATM   15  C   UNL     1      -8.677   4.181  66.093  1.00  0.00    -0.115 A  
HETATM   16  C   UNL     1      -8.905   2.832  65.672  1.00  0.00    -0.133 C  
HETATM   17  N   UNL     1      -9.084   1.737  65.338  1.00  0.00    -0.117 NA 
HETATM   18  C   UNL     1      -7.179   6.070  66.378  1.00  0.00    -0.076 A  
HETATM   19  C   UNL     1      -9.698   4.887  66.736  1.00  0.00    -0.195 A  
HETATM   20  C   UNL     1      -9.445   6.163  67.233  1.00  0.00    -0.121 A  
HETATM   21  C   UNL     1      -7.426   4.781  65.901  1.00  0.00    -0.078 A  
ENDBRANCH  12  14
ENDBRANCH  10  12
ENDBRANCH   8  10
ENDBRANCH   5   8
BRANCH   7  22
HETATM   22  C   UNL     1     -11.843   9.849  70.997  1.00  0.00    -0.376 A  
HETATM   23  N   UNL     1     -12.687  10.293  71.909  1.00  0.00    -0.414 NA 
HETATM   24  N   UNL     1     -11.446  10.867  70.164  1.00  0.00    -0.313 NA 
HETATM   25  C   UNL     1     -12.839  11.629  71.654  1.00  0.00    -0.349 A  
HETATM   26  H   UNL     1     -13.133   9.754  72.651  1.00  0.00     0.000 HD 
HETATM   27  C   UNL     1     -12.080  12.018  70.556  1.00  0.00    -0.311 A  
HETATM   28  C   UNL     1     -13.620  12.580  72.326  1.00  0.00    -0.443 A  
HETATM   29  C   UNL     1     -12.059  13.325  70.067  1.00  0.00    -0.385 A  
HETATM   30  C   UNL     1     -12.842  14.262  70.753  1.00  0.00    -0.404 A  
HETATM   31  C   UNL     1     -13.609  13.900  71.864  1.00  0.00    -0.516 A  
ENDBRANCH   7  22
TORSDOF 5
ENDMDL
MODEL      149
REMARK 921   NORMALIZED FREE ENERGY PREDICTED BY IDOCK:   -4.73 KCAL/MOL
REMARK 922        TOTAL FREE ENERGY PREDICTED BY IDOCK:   -6.88 KCAL/MOL
REMARK 923 INTER-LIGAND FREE ENERGY PREDICTED BY IDOCK:   -6.46 KCAL/MOL
REMARK 924 INTRA-LIGAND FREE ENERGY PREDICTED BY IDOCK:   -0.42 KCAL/MOL
REMARK 927      BINDING AFFINITY PREDICTED BY RF-SCORE:    0.00 PKD
ROOT
HETATM    1  C   UNL     1      -7.754  11.059  69.129  1.00  0.00    -0.102 C  
HETATM    2  N   UNL     1      -8.485   9.806  69.374  1.00  0.00    -0.144 NA 
HETATM    3  C   UNL     1      -9.924   9.984  69.121  1.00  0.00    -0.204 C  
HETATM    4  C   UNL     1     -10.311  10.110  67.652  1.00  0.00    -0.265 C  
HETATM    5  C   UNL     1      -9.708   8.986  66.798  1.00  0.00    -0.216 C  
HETATM    6  C   UNL     1      -8.205   8.822  67.065  1.00  0.00    -0.103 C  
HETATM    7  C   UNL     1      -7.912   8.696  68.568  1.00  0.00    -0.116 C  
ENDROOT
BRANCH   5   8
HETATM    8  N   UNL     1     -10.010   9.177  65.377  1.00  0.00    -0.350 N  
HETATM    9  H   UNL     1     -10.653   8.540  64.908  1.00  0.00     0.000 HD 
BRANCH   8  10
HETATM   10  C   UNL     1      -9.436  10.206  64.673  1.00  0.00    -0.297 C  
HETATM   11  O   UNL     1      -8.224  10.365  64.580  1.00  0.00    -0.165 OA 
BRANCH  10  12
HETATM   12  N   UNL     1     -10.382  11.084  64.173  1.00  0.00    -0.349 N  
HETATM   13  H   UNL     1     -10.831  10.925  63.270  1.00  0.00     0.000 HD 
BRANCH  12  14
HETATM   14  C   UNL     1     -10.699  12.208  64.965  1.00  0.00    -0.297 A  
HETATM   15  C   UNL     1     -11.326  14.135  66.877  1.00  0.00    -0.343 A  
HETATM   16  C   UNL     1     -11.644  15.050  67.931  1.00  0.00    -0.333 C  
HETATM   17  N   UNL     1     -11.903  15.783  68.791  1.00  0.00    -0.374 NA 
HETATM   18  C   UNL     1     -12.036  12.503  65.226  1.00  0.00    -0.500 A  
HETATM   19  C   UNL     1      -9.990  13.894  66.548  1.00  0.00    -0.288 A  
HETATM   20  C   UNL     1      -9.679  12.932  65.591  1.00  0.00    -0.116 A  
HETATM   21  C   UNL     1     -12.347  13.451  66.203  1.00  0.00    -0.440 A  
ENDBRANCH  12  14
ENDBRANCH  10  12
ENDBRANCH   8  10
ENDBRANCH   5   8
BRANCH   7  22
HETATM   22  C   UNL     1      -8.353   7.341  69.071  1.00  0.00    -0.126 A  
HETATM   23  N   UNL     1      -8.495   6.243  68.354  1.00  0.00    -0.115 NA 
HETATM   24  N   UNL     1      -8.664   7.106  70.389  1.00  0.00    -0.148 NA 
HETATM   25  C   UNL     1      -8.911   5.278  69.231  1.00  0.00    -0.103 A  
HETATM   26  H   UNL     1      -8.328   6.134  67.354  1.00  0.00     0.000 HD 
HETATM   27  C   UNL     1      -9.038   5.793  70.517  1.00  0.00    -0.147 A  
HETATM   28  C   UNL     1      -9.205   3.928  68.995  1.00  0.00    -0.217 A  
HETATM   29  C   UNL     1      -9.461   5.029  71.605  1.00  0.00    -0.198 A  
HETATM   30  C   UNL     1      -9.746   3.681  71.352  1.00  0.00    -0.241 A  
HETATM   31  C   UNL     1      -9.620   3.137  70.070  1.00  0.00    -0.162 A  
ENDBRANCH   7  22
TORSDOF 5
ENDMDL
MODEL      150
REMARK 921   NORMALIZED FREE ENERGY PREDICTED BY IDOCK:   -4.71 KCAL/MOL
REMARK 922        TOTAL FREE ENERGY PREDICTED BY IDOCK:   -6.86 KCAL/MOL
REMARK 923 INTER-LIGAND FREE ENERGY PREDICTED BY IDOCK:   -5.91 KCAL/MOL
REMARK 924 INTRA-LIGAND FREE ENERGY PREDICTED BY IDOCK:   -0.95 KCAL/MOL
REMARK 927      BINDING AFFINITY PREDICTED BY RF-SCORE:    0.00 PKD
ROOT
HETATM    1  C   UNL     1     -12.259  15.400  70.580  1.00  0.00    -0.394 C  
HETATM    2  N   UNL     1     -12.028  15.115  69.155  1.00  0.00    -0.297 NA 
HETATM    3  C   UNL     1     -11.399  16.268  68.488  1.00  0.00    -0.330 C  
HETATM    4  C   UNL     1      -9.934  16.499  68.844  1.00  0.00    -0.262 C  
HETATM    5  C   UNL     1      -9.097  15.221  68.704  1.00  0.00    -0.193 C  
HETATM    6  C   UNL     1      -9.761  14.033  69.414  1.00  0.00     0.424 C  
HETATM    7  C   UNL     1     -11.229  13.872  68.990  1.00  0.00    -0.274 C  
ENDROOT
BRANCH   5   8
HETATM    8  N   UNL     1      -7.716  15.439  69.141  1.00  0.00    -0.189 N  
HETATM    9  H   UNL     1      -7.435  16.355  69.489  1.00  0.00     0.000 HD 
BRANCH   8  10
HETATM   10  C   UNL     1      -6.796  14.422  69.086  1.00  0.00    -0.120 C  
HETATM   11  O   UNL     1      -6.201  13.998  70.071  1.00  0.00    -0.136 OA 
BRANCH  10  12
HETATM   12  N   UNL     1      -6.554  14.011  67.788  1.00  0.00    -0.168 N  
HETATM   13  H   UNL     1      -6.436  14.684  67.029  1.00  0.00     0.000 HD 
BRANCH  12  14
HETATM   14  C   UNL     1      -6.475  12.621  67.556  1.00  0.00    -0.158 A  
HETATM   15  C   UNL     1      -6.526   9.968  66.705  1.00  0.00    -0.072 A  
HETATM   16  C   UNL     1      -6.596   8.639  66.178  1.00  0.00    -0.061 C  
HETATM   17  N   UNL     1      -6.658   7.565  65.746  1.00  0.00    -0.045 NA 
HETATM   18  C   UNL     1      -7.554  11.809  67.907  1.00  0.00    -0.121 A  
HETATM   19  C   UNL     1      -5.410  10.764  66.431  1.00  0.00    -0.084 A  
HETATM   20  C   UNL     1      -5.386  12.088  66.859  1.00  0.00    -0.049 A  
HETATM   21  C   UNL     1      -7.587  10.488  67.457  1.00  0.00    -0.093 A  
ENDBRANCH  12  14
ENDBRANCH  10  12
ENDBRANCH   8  10
ENDBRANCH   5   8
BRANCH   7  22
HETATM   22  C   UNL     1     -11.305  13.331  67.581  1.00  0.00    -0.296 A  
HETATM   23  N   UNL     1     -10.372  12.645  66.949  1.00  0.00    -0.232 NA 
HETATM   24  N   UNL     1     -12.408  13.504  66.779  1.00  0.00    -0.330 NA 
HETATM   25  C   UNL     1     -10.884  12.374  65.710  1.00  0.00    -0.276 A  
HETATM   26  H   UNL     1      -9.457  12.372  67.310  1.00  0.00     0.000 HD 
HETATM   27  C   UNL     1     -12.159  12.912  65.569  1.00  0.00    -0.458 A  
HETATM   28  C   UNL     1     -10.309  11.670  64.644  1.00  0.00    -0.341 A  
HETATM   29  C   UNL     1     -12.909  12.796  64.397  1.00  0.00    -0.288 A  
HETATM   30  C   UNL     1     -12.320  12.085  63.343  1.00  0.00    -0.635 A  
HETATM   31  C   UNL     1     -11.044  11.529  63.462  1.00  0.00    -0.434 A  
ENDBRANCH   7  22
TORSDOF 5
ENDMDL
MODEL      151
REMARK 921   NORMALIZED FREE ENERGY PREDICTED BY IDOCK:   -4.71 KCAL/MOL
REMARK 922        TOTAL FREE ENERGY PREDICTED BY IDOCK:   -6.86 KCAL/MOL
REMARK 923 INTER-LIGAND FREE ENERGY PREDICTED BY IDOCK:   -5.82 KCAL/MOL
REMARK 924 INTRA-LIGAND FREE ENERGY PREDICTED BY IDOCK:   -1.05 KCAL/MOL
REMARK 927      BINDING AFFINITY PREDICTED BY RF-SCORE:    0.00 PKD
ROOT
HETATM    1  C   UNL     1     -10.396  13.883  67.154  1.00  0.00    -0.265 C  
HETATM    2  N   UNL     1     -10.976  12.629  67.659  1.00  0.00    -0.233 NA 
HETATM    3  C   UNL     1     -11.419  11.774  66.544  1.00  0.00    -0.255 C  
HETATM    4  C   UNL     1     -10.296  11.122  65.745  1.00  0.00    -0.316 C  
HETATM    5  C   UNL     1      -9.280  10.412  66.651  1.00  0.00    -0.156 C  
HETATM    6  C   UNL     1      -8.820  11.321  67.799  1.00  0.00    -0.141 C  
HETATM    7  C   UNL     1     -10.016  11.926  68.551  1.00  0.00    -0.192 C  
ENDROOT
BRANCH   5   8
HETATM    8  N   UNL     1      -8.160   9.875  65.874  1.00  0.00    -0.118 N  
HETATM    9  H   UNL     1      -7.334  10.451  65.714  1.00  0.00     0.000 HD 
BRANCH   8  10
HETATM   10  C   UNL     1      -8.212   8.603  65.360  1.00  0.00    -0.136 C  
HETATM   11  O   UNL     1      -7.574   8.248  64.375  1.00  0.00    -0.099 OA 
BRANCH  10  12
HETATM   12  N   UNL     1      -9.136   7.814  66.021  1.00  0.00    -0.310 N  
HETATM   13  H   UNL     1     -10.138   7.993  65.948  1.00  0.00     0.000 HD 
BRANCH  12  14
HETATM   14  C   UNL     1      -8.634   6.750  66.801  1.00  0.00    -0.119 A  
HETATM   15  C   UNL     1      -8.066   4.615  68.498  1.00  0.00    -0.083 A  
HETATM   16  C   UNL     1      -7.875   3.516  69.396  1.00  0.00    -0.050 C  
HETATM   17  N   UNL     1      -7.729   2.629  70.128  1.00  0.00    -0.043 NA 
HETATM   18  C   UNL     1      -8.190   7.006  68.098  1.00  0.00    -0.120 A  
HETATM   19  C   UNL     1      -8.428   4.369  67.171  1.00  0.00    -0.104 A  
HETATM   20  C   UNL     1      -8.709   5.437  66.324  1.00  0.00    -0.125 A  
HETATM   21  C   UNL     1      -7.931   5.932  68.953  1.00  0.00    -0.102 A  
ENDBRANCH  12  14
ENDBRANCH  10  12
ENDBRANCH   8  10
ENDBRANCH   5   8
BRANCH   7  22
HETATM   22  C   UNL     1     -10.691  10.868  69.391  1.00  0.00    -0.225 A  
HETATM   23  N   UNL     1     -10.389   9.584  69.432  1.00  0.00    -0.204 NA 
HETATM   24  N   UNL     1     -11.736  11.149  70.239  1.00  0.00    -0.333 NA 
HETATM   25  C   UNL     1     -11.264   9.025  70.325  1.00  0.00    -0.205 A  
HETATM   26  H   UNL     1      -9.656   9.106  68.908  1.00  0.00     0.000 HD 
HETATM   27  C   UNL     1     -12.130   9.983  70.841  1.00  0.00    -0.355 A  
HETATM   28  C   UNL     1     -11.376   7.693  70.744  1.00  0.00    -0.296 A  
HETATM   29  C   UNL     1     -13.134   9.684  71.763  1.00  0.00    -0.514 A  
HETATM   30  C   UNL     1     -13.229   8.348  72.175  1.00  0.00    -0.346 A  
HETATM   31  C   UNL     1     -12.366   7.368  71.677  1.00  0.00    -0.373 A  
ENDBRANCH   7  22
TORSDOF 5
ENDMDL
MODEL      152
REMARK 921   NORMALIZED FREE ENERGY PREDICTED BY IDOCK:   -4.71 KCAL/MOL
REMARK 922        TOTAL FREE ENERGY PREDICTED BY IDOCK:   -6.86 KCAL/MOL
REMARK 923 INTER-LIGAND FREE ENERGY PREDICTED BY IDOCK:   -6.13 KCAL/MOL
REMARK 924 INTRA-LIGAND FREE ENERGY PREDICTED BY IDOCK:   -0.73 KCAL/MOL
REMARK 927      BINDING AFFINITY PREDICTED BY RF-SCORE:    0.00 PKD
ROOT
HETATM    1  C   UNL     1     -12.022  10.544  69.845  1.00  0.00    -0.264 C  
HETATM    2  N   UNL     1     -11.134  11.667  69.506  1.00  0.00    -0.207 NA 
HETATM    3  C   UNL     1      -9.737  11.212  69.399  1.00  0.00     0.175 C  
HETATM    4  C   UNL     1      -9.422  10.381  68.160  1.00  0.00    -0.152 C  
HETATM    5  C   UNL     1      -9.912  11.056  66.872  1.00  0.00    -0.196 C  
HETATM    6  C   UNL     1     -11.372  11.513  66.997  1.00  0.00    -0.340 C  
HETATM    7  C   UNL     1     -11.593  12.348  68.268  1.00  0.00    -0.333 C  
ENDROOT
BRANCH   5   8
HETATM    8  N   UNL     1      -9.688  10.200  65.705  1.00  0.00    -0.239 N  
HETATM    9  H   UNL     1     -10.306  10.274  64.897  1.00  0.00     0.000 HD 
BRANCH   8  10
HETATM   10  C   UNL     1      -8.652   9.299  65.687  1.00  0.00    -0.153 C  
HETATM   11  O   UNL     1      -7.472   9.629  65.723  1.00  0.00    -0.095 OA 
BRANCH  10  12
HETATM   12  N   UNL     1      -9.098   8.000  65.526  1.00  0.00    -0.403 N  
HETATM   13  H   UNL     1      -9.322   7.624  64.603  1.00  0.00     0.000 HD 
BRANCH  12  14
HETATM   14  C   UNL     1      -9.229   7.215  66.691  1.00  0.00    -0.160 A  
HETATM   15  C   UNL     1      -9.554   5.317  68.706  1.00  0.00    -0.187 A  
HETATM   16  C   UNL     1      -9.731   4.270  69.666  1.00  0.00    -0.214 C  
HETATM   17  N   UNL     1      -9.878   3.417  70.437  1.00  0.00    -0.062 NA 
HETATM   18  C   UNL     1     -10.498   6.993  67.225  1.00  0.00    -0.363 A  
HETATM   19  C   UNL     1      -8.274   5.607  68.225  1.00  0.00    -0.103 A  
HETATM   20  C   UNL     1      -8.114   6.556  67.220  1.00  0.00    -0.113 A  
HETATM   21  C   UNL     1     -10.661   6.023  68.217  1.00  0.00    -0.325 A  
ENDBRANCH  12  14
ENDBRANCH  10  12
ENDBRANCH   8  10
ENDBRANCH   5   8
BRANCH   7  22
HETATM   22  C   UNL     1     -10.970  13.715  68.106  1.00  0.00    -0.253 A  
HETATM   23  N   UNL     1     -10.535  14.502  69.071  1.00  0.00    -0.243 NA 
HETATM   24  N   UNL     1     -10.781  14.302  66.877  1.00  0.00    -0.288 NA 
HETATM   25  C   UNL     1     -10.060  15.625  68.450  1.00  0.00    -0.214 A  
HETATM   26  H   UNL     1     -10.550  14.314  70.074  1.00  0.00     0.000 HD 
HETATM   27  C   UNL     1     -10.211  15.533  67.070  1.00  0.00    -0.271 A  
HETATM   28  C   UNL     1      -9.482  16.773  69.008  1.00  0.00    -0.217 A  
HETATM   29  C   UNL     1      -9.821  16.546  66.192  1.00  0.00    -0.355 A  
HETATM   30  C   UNL     1      -9.242  17.685  66.767  1.00  0.00    -0.281 A  
HETATM   31  C   UNL     1      -9.072  17.799  68.150  1.00  0.00    -0.274 A  
ENDBRANCH   7  22
TORSDOF 5
ENDMDL
MODEL      153
REMARK 921   NORMALIZED FREE ENERGY PREDICTED BY IDOCK:   -4.70 KCAL/MOL
REMARK 922        TOTAL FREE ENERGY PREDICTED BY IDOCK:   -6.84 KCAL/MOL
REMARK 923 INTER-LIGAND FREE ENERGY PREDICTED BY IDOCK:   -5.44 KCAL/MOL
REMARK 924 INTRA-LIGAND FREE ENERGY PREDICTED BY IDOCK:   -1.40 KCAL/MOL
REMARK 927      BINDING AFFINITY PREDICTED BY RF-SCORE:    0.00 PKD
ROOT
HETATM    1  C   UNL     1     -11.340  14.844  69.004  1.00  0.00    -0.292 C  
HETATM    2  N   UNL     1     -11.760  13.436  69.070  1.00  0.00    -0.302 NA 
HETATM    3  C   UNL     1     -12.393  13.021  67.807  1.00  0.00     0.184 C  
HETATM    4  C   UNL     1     -11.437  12.847  66.632  1.00  0.00    -0.393 C  
HETATM    5  C   UNL     1     -10.233  11.966  66.993  1.00  0.00    -0.210 C  
HETATM    6  C   UNL     1      -9.578  12.420  68.305  1.00  0.00    -0.211 C  
HETATM    7  C   UNL     1     -10.614  12.561  69.432  1.00  0.00     0.269 C  
ENDROOT
BRANCH   5   8
HETATM    8  N   UNL     1      -9.279  11.889  65.884  1.00  0.00    -0.370 N  
HETATM    9  H   UNL     1      -8.709  12.702  65.651  1.00  0.00     0.000 HD 
BRANCH   8  10
HETATM   10  C   UNL     1      -9.147  10.734  65.155  1.00  0.00    -0.203 C  
HETATM   11  O   UNL     1     -10.011  10.316  64.393  1.00  0.00    -0.335 OA 
BRANCH  10  12
HETATM   12  N   UNL     1      -7.978  10.059  65.461  1.00  0.00    -0.133 N  
HETATM   13  H   UNL     1      -7.107  10.253  64.966  1.00  0.00     0.000 HD 
BRANCH  12  14
HETATM   14  C   UNL     1      -8.043   9.091  66.485  1.00  0.00    -0.111 A  
HETATM   15  C   UNL     1      -7.760   7.051  68.361  1.00  0.00    -0.120 A  
HETATM   16  C   UNL     1      -7.521   5.983  69.285  1.00  0.00    -0.089 C  
HETATM   17  N   UNL     1      -7.319   5.116  70.028  1.00  0.00    -0.058 NA 
HETATM   18  C   UNL     1      -8.530   7.818  66.191  1.00  0.00    -0.143 A  
HETATM   19  C   UNL     1      -7.353   8.348  68.682  1.00  0.00    -0.088 A  
HETATM   20  C   UNL     1      -7.497   9.366  67.743  1.00  0.00    -0.087 A  
HETATM   21  C   UNL     1      -8.363   6.792  67.124  1.00  0.00    -0.121 A  
ENDBRANCH  12  14
ENDBRANCH  10  12
ENDBRANCH   8  10
ENDBRANCH   5   8
BRANCH   7  22
HETATM   22  C   UNL     1     -11.065  11.196  69.896  1.00  0.00    -0.162 A  
HETATM   23  N   UNL     1     -11.998  10.937  70.792  1.00  0.00    -0.344 NA 
HETATM   24  N   UNL     1     -10.525  10.031  69.405  1.00  0.00    -0.216 NA 
HETATM   25  C   UNL     1     -12.056   9.573  70.884  1.00  0.00    -0.278 A  
HETATM   26  H   UNL     1     -12.559  11.613  71.310  1.00  0.00     0.000 HD 
HETATM   27  C   UNL     1     -11.134   8.975  70.032  1.00  0.00    -0.182 A  
HETATM   28  C   UNL     1     -12.880   8.770  71.685  1.00  0.00    -0.392 A  
HETATM   29  C   UNL     1     -10.971   7.592  69.935  1.00  0.00    -0.208 A  
HETATM   30  C   UNL     1     -11.806   6.805  70.739  1.00  0.00    -0.446 A  
HETATM   31  C   UNL     1     -12.746   7.381  71.599  1.00  0.00    -0.399 A  
ENDBRANCH   7  22
TORSDOF 5
ENDMDL
MODEL      154
REMARK 921   NORMALIZED FREE ENERGY PREDICTED BY IDOCK:   -4.70 KCAL/MOL
REMARK 922        TOTAL FREE ENERGY PREDICTED BY IDOCK:   -6.84 KCAL/MOL
REMARK 923 INTER-LIGAND FREE ENERGY PREDICTED BY IDOCK:   -6.52 KCAL/MOL
REMARK 924 INTRA-LIGAND FREE ENERGY PREDICTED BY IDOCK:   -0.33 KCAL/MOL
REMARK 927      BINDING AFFINITY PREDICTED BY RF-SCORE:    0.00 PKD
ROOT
HETATM    1  C   UNL     1      -7.330  10.102  68.274  1.00  0.00    -0.081 C  
HETATM    2  N   UNL     1      -7.716   8.828  68.900  1.00  0.00    -0.094 NA 
HETATM    3  C   UNL     1      -8.146   9.041  70.293  1.00  0.00    -0.136 C  
HETATM    4  C   UNL     1      -9.504   9.716  70.453  1.00  0.00    -0.280 C  
HETATM    5  C   UNL     1     -10.590   9.035  69.609  1.00  0.00    -0.224 C  
HETATM    6  C   UNL     1     -10.130   8.831  68.159  1.00  0.00    -0.228 C  
HETATM    7  C   UNL     1      -8.759   8.140  68.096  1.00  0.00    -0.136 C  
ENDROOT
BRANCH   5   8
HETATM    8  N   UNL     1     -11.863   9.753  69.702  1.00  0.00    -0.445 N  
HETATM    9  H   UNL     1     -12.730   9.231  69.823  1.00  0.00     0.000 HD 
BRANCH   8  10
HETATM   10  C   UNL     1     -11.900  11.123  69.625  1.00  0.00    -0.348 C  
HETATM   11  O   UNL     1     -12.039  11.849  70.604  1.00  0.00    -0.373 OA 
BRANCH  10  12
HETATM   12  N   UNL     1     -11.861  11.571  68.317  1.00  0.00    -0.292 N  
HETATM   13  H   UNL     1     -12.329  11.062  67.566  1.00  0.00     0.000 HD 
BRANCH  12  14
HETATM   14  C   UNL     1     -11.149  12.763  68.066  1.00  0.00    -0.250 A  
HETATM   15  C   UNL     1      -9.780  15.003  67.131  1.00  0.00    -0.228 A  
HETATM   16  C   UNL     1      -9.093  16.119  66.553  1.00  0.00    -0.277 C  
HETATM   17  N   UNL     1      -8.537  17.018  66.077  1.00  0.00    -0.518 NA 
HETATM   18  C   UNL     1      -9.761  12.715  67.941  1.00  0.00    -0.216 A  
HETATM   19  C   UNL     1     -11.160  15.071  67.339  1.00  0.00    -0.324 A  
HETATM   20  C   UNL     1     -11.841  13.951  67.808  1.00  0.00    -0.415 A  
HETATM   21  C   UNL     1      -9.081  13.831  67.448  1.00  0.00    -0.221 A  
ENDBRANCH  12  14
ENDBRANCH  10  12
ENDBRANCH   8  10
ENDBRANCH   5   8
BRANCH   7  22
HETATM   22  C   UNL     1      -8.896   6.682  68.469  1.00  0.00    -0.122 A  
HETATM   23  N   UNL     1      -8.985   6.186  69.688  1.00  0.00    -0.133 NA 
HETATM   24  N   UNL     1      -8.945   5.678  67.531  1.00  0.00    -0.109 NA 
HETATM   25  C   UNL     1      -9.090   4.831  69.531  1.00  0.00    -0.103 A  
HETATM   26  H   UNL     1      -8.978   6.705  70.567  1.00  0.00     0.000 HD 
HETATM   27  C   UNL     1      -9.056   4.480  68.186  1.00  0.00    -0.124 A  
HETATM   28  C   UNL     1      -9.216   3.830  70.505  1.00  0.00    -0.210 A  
HETATM   29  C   UNL     1      -9.130   3.159  67.742  1.00  0.00    -0.219 A  
HETATM   30  C   UNL     1      -9.260   2.172  68.727  1.00  0.00    -0.221 A  
HETATM   31  C   UNL     1      -9.304   2.498  70.086  1.00  0.00    -0.187 A  
ENDBRANCH   7  22
TORSDOF 5
ENDMDL
MODEL      155
REMARK 921   NORMALIZED FREE ENERGY PREDICTED BY IDOCK:   -4.69 KCAL/MOL
REMARK 922        TOTAL FREE ENERGY PREDICTED BY IDOCK:   -6.84 KCAL/MOL
REMARK 923 INTER-LIGAND FREE ENERGY PREDICTED BY IDOCK:   -6.64 KCAL/MOL
REMARK 924 INTRA-LIGAND FREE ENERGY PREDICTED BY IDOCK:   -0.20 KCAL/MOL
REMARK 927      BINDING AFFINITY PREDICTED BY RF-SCORE:    0.00 PKD
ROOT
HETATM    1  C   UNL     1      -9.542  16.493  66.243  1.00  0.00    -0.306 C  
HETATM    2  N   UNL     1     -10.383  15.705  67.156  1.00  0.00    -0.279 NA 
HETATM    3  C   UNL     1     -10.637  14.364  66.603  1.00  0.00    -0.282 C  
HETATM    4  C   UNL     1      -9.442  13.417  66.631  1.00  0.00    -0.264 C  
HETATM    5  C   UNL     1      -8.785  13.358  68.017  1.00  0.00    -0.178 C  
HETATM    6  C   UNL     1      -8.517  14.763  68.572  1.00  0.00    -0.159 C  
HETATM    7  C   UNL     1      -9.776  15.642  68.511  1.00  0.00    -0.202 C  
ENDROOT
BRANCH   5   8
HETATM    8  N   UNL     1      -7.583  12.520  67.999  1.00  0.00    -0.115 N  
HETATM    9  H   UNL     1      -6.710  12.897  67.633  1.00  0.00     0.000 HD 
BRANCH   8  10
HETATM   10  C   UNL     1      -7.623  11.232  68.471  1.00  0.00    -0.123 C  
HETATM   11  O   UNL     1      -7.961  10.273  67.785  1.00  0.00    -0.101 OA 
BRANCH  10  12
HETATM   12  N   UNL     1      -7.336  11.165  69.823  1.00  0.00    -0.360 N  
HETATM   13  H   UNL     1      -7.366  11.996  70.415  1.00  0.00     0.000 HD 
BRANCH  12  14
HETATM   14  C   UNL     1      -7.000   9.899  70.348  1.00  0.00    -0.141 A  
HETATM   15  C   UNL     1      -6.509   7.235  70.999  1.00  0.00    -0.043 A  
HETATM   16  C   UNL     1      -6.297   5.839  71.240  1.00  0.00    -0.040 C  
HETATM   17  N   UNL     1      -6.130   4.708  71.429  1.00  0.00    -0.017 NA 
HETATM   18  C   UNL     1      -7.958   9.181  71.064  1.00  0.00    -0.166 A  
HETATM   19  C   UNL     1      -5.521   7.985  70.358  1.00  0.00    -0.022 A  
HETATM   20  C   UNL     1      -5.767   9.317  70.036  1.00  0.00    -0.035 A  
HETATM   21  C   UNL     1      -7.719   7.839  71.366  1.00  0.00    -0.082 A  
ENDBRANCH  12  14
ENDBRANCH  10  12
ENDBRANCH   8  10
ENDBRANCH   5   8
BRANCH   7  22
HETATM   22  C   UNL     1     -10.769  15.199  69.560  1.00  0.00    -0.266 A  
HETATM   23  N   UNL     1     -11.198  13.969  69.768  1.00  0.00    -0.436 NA 
HETATM   24  N   UNL     1     -11.351  16.074  70.446  1.00  0.00    -0.372 NA 
HETATM   25  C   UNL     1     -12.081  14.055  70.810  1.00  0.00    -0.345 A  
HETATM   26  H   UNL     1     -10.928  13.127  69.258  1.00  0.00     0.000 HD 
HETATM   27  C   UNL     1     -12.207  15.368  71.250  1.00  0.00    -0.371 A  
HETATM   28  C   UNL     1     -12.820  13.041  71.436  1.00  0.00    -0.385 A  
HETATM   29  C   UNL     1     -13.054  15.743  72.295  1.00  0.00    -0.524 A  
HETATM   30  C   UNL     1     -13.782  14.717  72.911  1.00  0.00    -0.388 A  
HETATM   31  C   UNL     1     -13.668  13.388  72.492  1.00  0.00    -0.636 A  
ENDBRANCH   7  22
TORSDOF 5
ENDMDL
MODEL      156
REMARK 921   NORMALIZED FREE ENERGY PREDICTED BY IDOCK:   -4.68 KCAL/MOL
REMARK 922        TOTAL FREE ENERGY PREDICTED BY IDOCK:   -6.83 KCAL/MOL
REMARK 923 INTER-LIGAND FREE ENERGY PREDICTED BY IDOCK:   -6.62 KCAL/MOL
REMARK 924 INTRA-LIGAND FREE ENERGY PREDICTED BY IDOCK:   -0.20 KCAL/MOL
REMARK 927      BINDING AFFINITY PREDICTED BY RF-SCORE:    0.00 PKD
ROOT
HETATM    1  C   UNL     1     -10.350  12.530  68.908  1.00  0.00    -0.038 C  
HETATM    2  N   UNL     1     -10.452  11.228  69.585  1.00  0.00     0.013 NA 
HETATM    3  C   UNL     1     -11.540  10.423  69.005  1.00  0.00    -0.150 C  
HETATM    4  C   UNL     1     -11.257   9.860  67.617  1.00  0.00    -0.032 C  
HETATM    5  C   UNL     1      -9.904   9.137  67.552  1.00  0.00    -0.177 C  
HETATM    6  C   UNL     1      -8.780   9.995  68.150  1.00  0.00    -0.122 C  
HETATM    7  C   UNL     1      -9.150  10.512  69.549  1.00  0.00    -0.040 C  
ENDROOT
BRANCH   5   8
HETATM    8  N   UNL     1      -9.606   8.687  66.191  1.00  0.00    -0.334 N  
HETATM    9  H   UNL     1      -9.827   7.731  65.915  1.00  0.00     0.000 HD 
BRANCH   8  10
HETATM   10  C   UNL     1      -9.031   9.541  65.282  1.00  0.00    -0.200 C  
HETATM   11  O   UNL     1      -7.884   9.962  65.385  1.00  0.00    -0.120 OA 
BRANCH  10  12
HETATM   12  N   UNL     1      -9.927   9.940  64.307  1.00  0.00    -0.444 N  
HETATM   13  H   UNL     1     -10.185   9.323  63.536  1.00  0.00     0.000 HD 
BRANCH  12  14
HETATM   14  C   UNL     1     -10.470  11.237  64.423  1.00  0.00    -0.345 A  
HETATM   15  C   UNL     1     -11.243  13.912  64.333  1.00  0.00    -0.341 A  
HETATM   16  C   UNL     1     -11.569  15.301  64.210  1.00  0.00    -0.197 C  
HETATM   17  N   UNL     1     -11.825  16.427  64.107  1.00  0.00    -0.874 NA 
HETATM   18  C   UNL     1      -9.871  12.152  65.288  1.00  0.00    -0.216 A  
HETATM   19  C   UNL     1     -11.898  12.974  63.531  1.00  0.00    -0.582 A  
HETATM   20  C   UNL     1     -11.511  11.638  63.579  1.00  0.00    -0.427 A  
HETATM   21  C   UNL     1     -10.243  13.497  65.222  1.00  0.00    -0.323 A  
ENDBRANCH  12  14
ENDBRANCH  10  12
ENDBRANCH   8  10
ENDBRANCH   5   8
BRANCH   7  22
HETATM   22  C   UNL     1      -9.095   9.383  70.552  1.00  0.00    -0.256 A  
HETATM   23  N   UNL     1      -9.986   9.115  71.487  1.00  0.00    -0.313 NA 
HETATM   24  N   UNL     1      -8.062   8.476  70.590  1.00  0.00    -0.107 NA 
HETATM   25  C   UNL     1      -9.513   8.013  72.146  1.00  0.00    -0.202 A  
HETATM   26  H   UNL     1     -10.849   9.624  71.680  1.00  0.00     0.000 HD 
HETATM   27  C   UNL     1      -8.300   7.594  71.612  1.00  0.00    -0.108 A  
HETATM   28  C   UNL     1     -10.075   7.311  73.222  1.00  0.00    -0.341 A  
HETATM   29  C   UNL     1      -7.588   6.498  72.104  1.00  0.00    -0.097 A  
HETATM   30  C   UNL     1      -8.166   5.807  73.176  1.00  0.00    -0.117 A  
HETATM   31  C   UNL     1      -9.388   6.202  73.727  1.00  0.00    -0.136 A  
ENDBRANCH   7  22
TORSDOF 5
ENDMDL
MODEL      157
REMARK 921   NORMALIZED FREE ENERGY PREDICTED BY IDOCK:   -4.68 KCAL/MOL
REMARK 922        TOTAL FREE ENERGY PREDICTED BY IDOCK:   -6.82 KCAL/MOL
REMARK 923 INTER-LIGAND FREE ENERGY PREDICTED BY IDOCK:   -6.44 KCAL/MOL
REMARK 924 INTRA-LIGAND FREE ENERGY PREDICTED BY IDOCK:   -0.38 KCAL/MOL
REMARK 927      BINDING AFFINITY PREDICTED BY RF-SCORE:    0.00 PKD
ROOT
HETATM    1  C   UNL     1      -7.460   5.992  67.824  1.00  0.00    -0.085 C  
HETATM    2  N   UNL     1      -8.397   6.879  67.118  1.00  0.00    -0.120 NA 
HETATM    3  C   UNL     1      -9.790   6.553  67.469  1.00  0.00    -0.124 C  
HETATM    4  C   UNL     1     -10.213   6.962  68.876  1.00  0.00    -0.184 C  
HETATM    5  C   UNL     1      -9.866   8.426  69.180  1.00  0.00    -0.183 C  
HETATM    6  C   UNL     1      -8.409   8.745  68.818  1.00  0.00    -0.124 C  
HETATM    7  C   UNL     1      -8.076   8.305  67.384  1.00  0.00    -0.121 C  
ENDROOT
BRANCH   5   8
HETATM    8  N   UNL     1     -10.192   8.773  70.565  1.00  0.00    -0.194 N  
HETATM    9  H   UNL     1      -9.604   8.429  71.324  1.00  0.00     0.000 HD 
BRANCH   8  10
HETATM   10  C   UNL     1     -11.282   9.557  70.852  1.00  0.00    -0.341 C  
HETATM   11  O   UNL     1     -11.393  10.719  70.476  1.00  0.00    -0.307 OA 
BRANCH  10  12
HETATM   12  N   UNL     1     -12.177   8.915  71.688  1.00  0.00    -0.322 N  
HETATM   13  H   UNL     1     -13.139   9.241  71.790  1.00  0.00     0.000 HD 
BRANCH  12  14
HETATM   14  C   UNL     1     -11.703   7.789  72.396  1.00  0.00    -0.341 A  
HETATM   15  C   UNL     1     -10.467   5.528  73.454  1.00  0.00    -0.266 A  
HETATM   16  C   UNL     1      -9.766   4.368  73.917  1.00  0.00    -0.122 C  
HETATM   17  N   UNL     1      -9.195   3.429  74.283  1.00  0.00    -0.088 NA 
HETATM   18  C   UNL     1     -12.200   6.526  72.078  1.00  0.00    -0.343 A  
HETATM   19  C   UNL     1     -10.030   6.799  73.835  1.00  0.00    -0.340 A  
HETATM   20  C   UNL     1     -10.651   7.927  73.306  1.00  0.00    -0.239 A  
HETATM   21  C   UNL     1     -11.561   5.394  72.590  1.00  0.00    -0.270 A  
ENDBRANCH  12  14
ENDBRANCH  10  12
ENDBRANCH   8  10
ENDBRANCH   5   8
BRANCH   7  22
HETATM   22  C   UNL     1      -8.736   9.232  66.390  1.00  0.00    -0.132 A  
HETATM   23  N   UNL     1      -8.803   9.067  65.083  1.00  0.00    -0.242 NA 
HETATM   24  N   UNL     1      -9.365  10.395  66.766  1.00  0.00    -0.155 NA 
HETATM   25  C   UNL     1      -9.488  10.152  64.606  1.00  0.00    -0.297 A  
HETATM   26  H   UNL     1      -8.424   8.291  64.540  1.00  0.00     0.000 HD 
HETATM   27  C   UNL     1      -9.845  11.011  65.640  1.00  0.00    -0.239 A  
HETATM   28  C   UNL     1      -9.841  10.471  63.288  1.00  0.00    -0.309 A  
HETATM   29  C   UNL     1     -10.540  12.204  65.433  1.00  0.00    -0.309 A  
HETATM   30  C   UNL     1     -10.889  12.505  64.110  1.00  0.00    -0.420 A  
HETATM   31  C   UNL     1     -10.548  11.655  63.054  1.00  0.00    -0.224 A  
ENDBRANCH   7  22
TORSDOF 5
ENDMDL
MODEL      158
REMARK 921   NORMALIZED FREE ENERGY PREDICTED BY IDOCK:   -4.68 KCAL/MOL
REMARK 922        TOTAL FREE ENERGY PREDICTED BY IDOCK:   -6.82 KCAL/MOL
REMARK 923 INTER-LIGAND FREE ENERGY PREDICTED BY IDOCK:   -6.68 KCAL/MOL
REMARK 924 INTRA-LIGAND FREE ENERGY PREDICTED BY IDOCK:   -0.14 KCAL/MOL
REMARK 927      BINDING AFFINITY PREDICTED BY RF-SCORE:    0.00 PKD
ROOT
HETATM    1  C   UNL     1      -7.064  17.938  66.304  1.00  0.00    -0.286 C  
HETATM    2  N   UNL     1      -6.804  16.866  67.279  1.00  0.00    -0.150 NA 
HETATM    3  C   UNL     1      -7.179  17.295  68.637  1.00  0.00    -0.231 C  
HETATM    4  C   UNL     1      -8.680  17.383  68.894  1.00  0.00    -0.153 C  
HETATM    5  C   UNL     1      -9.415  16.106  68.464  1.00  0.00    -0.216 C  
HETATM    6  C   UNL     1      -9.021  15.681  67.043  1.00  0.00    -0.244 C  
HETATM    7  C   UNL     1      -7.494  15.612  66.880  1.00  0.00    -0.134 C  
ENDROOT
BRANCH   5   8
HETATM    8  N   UNL     1     -10.864  16.246  68.629  1.00  0.00    -0.303 N  
HETATM    9  H   UNL     1     -11.369  16.945  68.085  1.00  0.00     0.000 HD 
BRANCH   8  10
HETATM   10  C   UNL     1     -11.548  15.446  69.510  1.00  0.00    -0.332 C  
HETATM   11  O   UNL     1     -12.295  15.885  70.378  1.00  0.00    -0.366 OA 
BRANCH  10  12
HETATM   12  N   UNL     1     -11.215  14.111  69.364  1.00  0.00    -0.283 N  
HETATM   13  H   UNL     1     -10.753  13.593  70.112  1.00  0.00     0.000 HD 
BRANCH  12  14
HETATM   14  C   UNL     1     -11.542  13.496  68.137  1.00  0.00    -0.333 A  
HETATM   15  C   UNL     1     -11.840  12.519  65.545  1.00  0.00    -0.491 A  
HETATM   16  C   UNL     1     -11.909  12.073  64.186  1.00  0.00    -0.373 C  
HETATM   17  N   UNL     1     -11.959  11.719  63.083  1.00  0.00    -0.252 NA 
HETATM   18  C   UNL     1     -12.395  14.154  67.251  1.00  0.00    -0.182 A  
HETATM   19  C   UNL     1     -11.054  11.818  66.464  1.00  0.00    -0.364 A  
HETATM   20  C   UNL     1     -10.909  12.308  67.759  1.00  0.00    -0.256 A  
HETATM   21  C   UNL     1     -12.522  13.675  65.945  1.00  0.00    -0.502 A  
ENDBRANCH  12  14
ENDBRANCH  10  12
ENDBRANCH   8  10
ENDBRANCH   5   8
BRANCH   7  22
HETATM   22  C   UNL     1      -6.948  14.406  67.608  1.00  0.00    -0.184 A  
HETATM   23  N   UNL     1      -6.801  13.190  67.117  1.00  0.00    -0.427 NA 
HETATM   24  N   UNL     1      -6.528  14.457  68.915  1.00  0.00    -0.089 NA 
HETATM   25  C   UNL     1      -6.278  12.440  68.135  1.00  0.00    -0.065 A  
HETATM   26  H   UNL     1      -7.030  12.874  66.175  1.00  0.00     0.000 HD 
HETATM   27  C   UNL     1      -6.105  13.206  69.283  1.00  0.00    -0.098 A  
HETATM   28  C   UNL     1      -5.925  11.084  68.150  1.00  0.00    -0.049 A  
HETATM   29  C   UNL     1      -5.600  12.688  70.476  1.00  0.00    -0.171 A  
HETATM   30  C   UNL     1      -5.248  11.333  70.471  1.00  0.00    -0.106 A  
HETATM   31  C   UNL     1      -5.405  10.542  69.330  1.00  0.00    -0.038 A  
ENDBRANCH   7  22
TORSDOF 5
ENDMDL
MODEL      159
REMARK 921   NORMALIZED FREE ENERGY PREDICTED BY IDOCK:   -4.65 KCAL/MOL
REMARK 922        TOTAL FREE ENERGY PREDICTED BY IDOCK:   -6.78 KCAL/MOL
REMARK 923 INTER-LIGAND FREE ENERGY PREDICTED BY IDOCK:   -6.72 KCAL/MOL
REMARK 924 INTRA-LIGAND FREE ENERGY PREDICTED BY IDOCK:   -0.07 KCAL/MOL
REMARK 927      BINDING AFFINITY PREDICTED BY RF-SCORE:    0.00 PKD
ROOT
HETATM    1  C   UNL     1     -10.355   9.790  70.140  1.00  0.00    -0.282 C  
HETATM    2  N   UNL     1     -10.154  10.917  69.216  1.00  0.00    -0.183 NA 
HETATM    3  C   UNL     1      -8.719  11.209  69.055  1.00  0.00    -0.017 C  
HETATM    4  C   UNL     1      -7.941  10.188  68.232  1.00  0.00    -0.101 C  
HETATM    5  C   UNL     1      -8.626   9.885  66.892  1.00  0.00    -0.128 C  
HETATM    6  C   UNL     1     -10.116   9.571  67.080  1.00  0.00    -0.290 C  
HETATM    7  C   UNL     1     -10.818  10.655  67.913  1.00  0.00    -0.277 C  
ENDROOT
BRANCH   5   8
HETATM    8  N   UNL     1      -7.917   8.833  66.159  1.00  0.00    -0.101 N  
HETATM    9  H   UNL     1      -6.973   8.569  66.442  1.00  0.00     0.000 HD 
BRANCH   8  10
HETATM   10  C   UNL     1      -8.510   8.200  65.095  1.00  0.00    -0.116 C  
HETATM   11  O   UNL     1      -9.003   8.798  64.145  1.00  0.00     0.013 OA 
BRANCH  10  12
HETATM   12  N   UNL     1      -8.572   6.830  65.276  1.00  0.00    -0.333 N  
HETATM   13  H   UNL     1      -8.298   6.182  64.536  1.00  0.00     0.000 HD 
BRANCH  12  14
HETATM   14  C   UNL     1      -9.031   6.365  66.527  1.00  0.00    -0.145 A  
HETATM   15  C   UNL     1     -10.045   5.882  69.077  1.00  0.00    -0.237 A  
HETATM   16  C   UNL     1     -10.589   5.736  70.393  1.00  0.00    -0.294 C  
HETATM   17  N   UNL     1     -11.030   5.626  71.460  1.00  0.00    -0.234 NA 
HETATM   18  C   UNL     1      -8.170   6.395  67.623  1.00  0.00    -0.118 A  
HETATM   19  C   UNL     1     -10.884   5.771  67.965  1.00  0.00    -0.251 A  
HETATM   20  C   UNL     1     -10.374   6.011  66.692  1.00  0.00    -0.264 A  
HETATM   21  C   UNL     1      -8.687   6.177  68.902  1.00  0.00    -0.123 A  
ENDBRANCH  12  14
ENDBRANCH  10  12
ENDBRANCH   8  10
ENDBRANCH   5   8
BRANCH   7  22
HETATM   22  C   UNL     1     -10.981  11.915  67.094  1.00  0.00    -0.269 A  
HETATM   23  N   UNL     1     -11.960  12.187  66.253  1.00  0.00    -0.613 NA 
HETATM   24  N   UNL     1     -10.082  12.954  67.147  1.00  0.00    -0.240 NA 
HETATM   25  C   UNL     1     -11.684  13.429  65.750  1.00  0.00    -0.349 A  
HETATM   26  H   UNL     1     -12.759  11.595  66.026  1.00  0.00     0.000 HD 
HETATM   27  C   UNL     1     -10.503  13.933  66.285  1.00  0.00    -0.287 A  
HETATM   28  C   UNL     1     -12.404  14.193  64.822  1.00  0.00    -0.436 A  
HETATM   29  C   UNL     1      -9.977  15.177  65.933  1.00  0.00    -0.355 A  
HETATM   30  C   UNL     1     -10.713  15.929  65.008  1.00  0.00    -0.426 A  
HETATM   31  C   UNL     1     -11.906  15.449  64.461  1.00  0.00    -0.257 A  
ENDBRANCH   7  22
TORSDOF 5
ENDMDL
MODEL      160
REMARK 921   NORMALIZED FREE ENERGY PREDICTED BY IDOCK:   -4.59 KCAL/MOL
REMARK 922        TOTAL FREE ENERGY PREDICTED BY IDOCK:   -6.71 KCAL/MOL
REMARK 923 INTER-LIGAND FREE ENERGY PREDICTED BY IDOCK:   -6.21 KCAL/MOL
REMARK 924 INTRA-LIGAND FREE ENERGY PREDICTED BY IDOCK:   -0.50 KCAL/MOL
REMARK 927      BINDING AFFINITY PREDICTED BY RF-SCORE:    0.00 PKD
ROOT
HETATM    1  C   UNL     1     -11.122  16.384  70.027  1.00  0.00    -0.294 C  
HETATM    2  N   UNL     1     -11.137  15.903  68.637  1.00  0.00    -0.316 NA 
HETATM    3  C   UNL     1     -10.601  16.928  67.724  1.00  0.00    -0.340 C  
HETATM    4  C   UNL     1      -9.093  17.138  67.804  1.00  0.00    -0.233 C  
HETATM    5  C   UNL     1      -8.320  15.815  67.708  1.00  0.00    -0.154 C  
HETATM    6  C   UNL     1      -8.884  14.764  68.673  1.00  0.00    -0.180 C  
HETATM    7  C   UNL     1     -10.405  14.615  68.517  1.00  0.00    -0.238 C  
ENDROOT
BRANCH   5   8
HETATM    8  N   UNL     1      -6.881  16.027  67.883  1.00  0.00    -0.131 N  
HETATM    9  H   UNL     1      -6.449  16.879  67.526  1.00  0.00     0.000 HD 
BRANCH   8  10
HETATM   10  C   UNL     1      -6.109  15.089  68.522  1.00  0.00    -0.096 C  
HETATM   11  O   UNL     1      -5.652  15.248  69.649  1.00  0.00    -0.099 OA 
BRANCH  10  12
HETATM   12  N   UNL     1      -5.831  14.004  67.709  1.00  0.00    -0.117 N  
HETATM   13  H   UNL     1      -5.444  14.126  66.773  1.00  0.00     0.000 HD 
BRANCH  12  14
HETATM   14  C   UNL     1      -6.108  12.723  68.230  1.00  0.00    -0.075 A  
HETATM   15  C   UNL     1      -7.037  10.378  69.414  1.00  0.00    -0.102 A  
HETATM   16  C   UNL     1      -7.601   9.225  70.050  1.00  0.00    -0.099 C  
HETATM   17  N   UNL     1      -8.064   8.298  70.570  1.00  0.00    -0.101 NA 
HETATM   18  C   UNL     1      -5.742  12.427  69.543  1.00  0.00    -0.096 A  
HETATM   19  C   UNL     1      -7.328  10.640  68.073  1.00  0.00    -0.088 A  
HETATM   20  C   UNL     1      -6.861  11.811  67.483  1.00  0.00    -0.113 A  
HETATM   21  C   UNL     1      -6.231  11.263  70.141  1.00  0.00    -0.147 A  
ENDBRANCH  12  14
ENDBRANCH  10  12
ENDBRANCH   8  10
ENDBRANCH   5   8
BRANCH   7  22
HETATM   22  C   UNL     1     -10.727  13.896  67.228  1.00  0.00    -0.284 A  
HETATM   23  N   UNL     1     -11.800  14.063  66.479  1.00  0.00    -0.397 NA 
HETATM   24  N   UNL     1      -9.893  12.951  66.678  1.00  0.00    -0.244 NA 
HETATM   25  C   UNL     1     -11.655  13.203  65.424  1.00  0.00    -0.333 A  
HETATM   26  H   UNL     1     -12.577  14.702  66.650  1.00  0.00     0.000 HD 
HETATM   27  C   UNL     1     -10.471  12.482  65.528  1.00  0.00    -0.279 A  
HETATM   28  C   UNL     1     -12.507  12.983  64.333  1.00  0.00    -0.406 A  
HETATM   29  C   UNL     1     -10.079  11.522  64.592  1.00  0.00    -0.318 A  
HETATM   30  C   UNL     1     -10.940  11.318  63.506  1.00  0.00    -0.329 A  
HETATM   31  C   UNL     1     -12.132  12.035  63.375  1.00  0.00    -0.597 A  
ENDBRANCH   7  22
TORSDOF 5
ENDMDL
MODEL      161
REMARK 921   NORMALIZED FREE ENERGY PREDICTED BY IDOCK:   -4.58 KCAL/MOL
REMARK 922        TOTAL FREE ENERGY PREDICTED BY IDOCK:   -6.69 KCAL/MOL
REMARK 923 INTER-LIGAND FREE ENERGY PREDICTED BY IDOCK:   -6.23 KCAL/MOL
REMARK 924 INTRA-LIGAND FREE ENERGY PREDICTED BY IDOCK:   -0.45 KCAL/MOL
REMARK 927      BINDING AFFINITY PREDICTED BY RF-SCORE:    0.00 PKD
ROOT
HETATM    1  C   UNL     1     -11.922   7.610  71.315  1.00  0.00    -0.306 C  
HETATM    2  N   UNL     1     -11.568   9.035  71.240  1.00  0.00    -0.294 NA 
HETATM    3  C   UNL     1     -10.128   9.229  71.483  1.00  0.00    -0.236 C  
HETATM    4  C   UNL     1      -9.216   8.778  70.348  1.00  0.00    -0.204 C  
HETATM    5  C   UNL     1      -9.656   9.349  68.993  1.00  0.00    -0.164 C  
HETATM    6  C   UNL     1     -11.156   9.128  68.751  1.00  0.00     0.100 C  
HETATM    7  C   UNL     1     -11.996   9.617  69.941  1.00  0.00     0.203 C  
ENDROOT
BRANCH   5   8
HETATM    8  N   UNL     1      -8.827   8.829  67.903  1.00  0.00    -0.136 N  
HETATM    9  H   UNL     1      -8.055   8.197  68.112  1.00  0.00     0.000 HD 
BRANCH   8  10
HETATM   10  C   UNL     1      -9.079   9.186  66.601  1.00  0.00    -0.148 C  
HETATM   11  O   UNL     1      -9.190  10.350  66.232  1.00  0.00    -0.160 OA 
BRANCH  10  12
HETATM   12  N   UNL     1      -9.288   8.084  65.792  1.00  0.00    -0.413 N  
HETATM   13  H   UNL     1      -9.438   8.181  64.788  1.00  0.00     0.000 HD 
BRANCH  12  14
HETATM   14  C   UNL     1      -9.286   6.818  66.416  1.00  0.00    -0.136 A  
HETATM   15  C   UNL     1      -9.275   4.552  68.037  1.00  0.00    -0.166 A  
HETATM   16  C   UNL     1      -9.271   3.451  68.953  1.00  0.00    -0.165 C  
HETATM   17  N   UNL     1      -9.266   2.566  69.701  1.00  0.00    -0.122 NA 
HETATM   18  C   UNL     1      -8.070   6.231  66.765  1.00  0.00    -0.109 A  
HETATM   19  C   UNL     1     -10.491   5.095  67.613  1.00  0.00    -0.130 A  
HETATM   20  C   UNL     1     -10.494   6.226  66.802  1.00  0.00    -0.311 A  
HETATM   21  C   UNL     1      -8.068   5.110  67.598  1.00  0.00    -0.099 A  
ENDBRANCH  12  14
ENDBRANCH  10  12
ENDBRANCH   8  10
ENDBRANCH   5   8
BRANCH   7  22
HETATM   22  C   UNL     1     -12.018  11.128  69.975  1.00  0.00    -0.367 A  
HETATM   23  N   UNL     1     -12.231  11.889  71.031  1.00  0.00    -0.343 NA 
HETATM   24  N   UNL     1     -11.807  11.897  68.855  1.00  0.00    -0.311 NA 
HETATM   25  C   UNL     1     -12.160  13.179  70.580  1.00  0.00    -0.306 A  
HETATM   26  H   UNL     1     -12.412  11.581  71.987  1.00  0.00     0.000 HD 
HETATM   27  C   UNL     1     -11.905  13.217  69.213  1.00  0.00    -0.323 A  
HETATM   28  C   UNL     1     -12.306  14.379  71.289  1.00  0.00    -0.432 A  
HETATM   29  C   UNL     1     -11.796  14.406  68.490  1.00  0.00    -0.369 A  
HETATM   30  C   UNL     1     -11.941  15.595  69.216  1.00  0.00    -0.338 A  
HETATM   31  C   UNL     1     -12.190  15.586  70.592  1.00  0.00    -0.445 A  
ENDBRANCH   7  22
TORSDOF 5
ENDMDL
MODEL      162
REMARK 921   NORMALIZED FREE ENERGY PREDICTED BY IDOCK:   -4.53 KCAL/MOL
REMARK 922        TOTAL FREE ENERGY PREDICTED BY IDOCK:   -6.63 KCAL/MOL
REMARK 923 INTER-LIGAND FREE ENERGY PREDICTED BY IDOCK:   -5.72 KCAL/MOL
REMARK 924 INTRA-LIGAND FREE ENERGY PREDICTED BY IDOCK:   -0.91 KCAL/MOL
REMARK 927      BINDING AFFINITY PREDICTED BY RF-SCORE:    0.00 PKD
ROOT
HETATM    1  C   UNL     1     -10.656   8.613  67.289  1.00  0.00    -0.238 C  
HETATM    2  N   UNL     1     -10.565  10.035  67.657  1.00  0.00    -0.251 NA 
HETATM    3  C   UNL     1     -10.371  10.186  69.109  1.00  0.00    -0.219 C  
HETATM    4  C   UNL     1      -8.987   9.800  69.619  1.00  0.00    -0.229 C  
HETATM    5  C   UNL     1      -7.867  10.472  68.812  1.00  0.00    -0.116 C  
HETATM    6  C   UNL     1      -8.079  10.294  67.302  1.00  0.00    -0.120 C  
HETATM    7  C   UNL     1      -9.495  10.713  66.880  1.00  0.00    -0.165 C  
ENDROOT
BRANCH   5   8
HETATM    8  N   UNL     1      -6.547  10.015  69.253  1.00  0.00    -0.048 N  
HETATM    9  H   UNL     1      -5.906   9.596  68.580  1.00  0.00     0.000 HD 
BRANCH   8  10
HETATM   10  C   UNL     1      -6.165  10.146  70.565  1.00  0.00    -0.115 C  
HETATM   11  O   UNL     1      -6.117  11.224  71.148  1.00  0.00    -0.345 OA 
BRANCH  10  12
HETATM   12  N   UNL     1      -5.750   8.943  71.108  1.00  0.00    -0.038 N  
HETATM   13  H   UNL     1      -4.768   8.669  71.106  1.00  0.00     0.000 HD 
BRANCH  12  14
HETATM   14  C   UNL     1      -6.746   8.111  71.664  1.00  0.00    -0.060 A  
HETATM   15  C   UNL     1      -9.001   6.712  72.512  1.00  0.00    -0.136 A  
HETATM   16  C   UNL     1     -10.217   6.053  72.883  1.00  0.00    -0.188 C  
HETATM   17  N   UNL     1     -11.206   5.526  73.180  1.00  0.00    -0.287 NA 
HETATM   18  C   UNL     1      -7.417   8.526  72.813  1.00  0.00    -0.056 A  
HETATM   19  C   UNL     1      -8.273   6.252  71.411  1.00  0.00    -0.122 A  
HETATM   20  C   UNL     1      -7.145   6.952  70.991  1.00  0.00    -0.071 A  
HETATM   21  C   UNL     1      -8.562   7.837  73.221  1.00  0.00    -0.240 A  
ENDBRANCH  12  14
ENDBRANCH  10  12
ENDBRANCH   8  10
ENDBRANCH   5   8
BRANCH   7  22
HETATM   22  C   UNL     1      -9.627  12.218  66.925  1.00  0.00    -0.213 A  
HETATM   23  N   UNL     1      -8.812  13.096  66.372  1.00  0.00    -0.440 NA 
HETATM   24  N   UNL     1     -10.658  12.853  67.574  1.00  0.00    -0.225 NA 
HETATM   25  C   UNL     1      -9.329  14.326  66.678  1.00  0.00    -0.284 A  
HETATM   26  H   UNL     1      -7.971  12.900  65.829  1.00  0.00     0.000 HD 
HETATM   27  C   UNL     1     -10.484  14.206  67.442  1.00  0.00    -0.271 A  
HETATM   28  C   UNL     1      -8.858  15.600  66.332  1.00  0.00    -0.365 A  
HETATM   29  C   UNL     1     -11.210  15.305  67.905  1.00  0.00    -0.333 A  
HETATM   30  C   UNL     1     -10.726  16.570  67.547  1.00  0.00    -0.283 A  
HETATM   31  C   UNL     1      -9.572  16.719  66.773  1.00  0.00    -0.261 A  
ENDBRANCH   7  22
TORSDOF 5
ENDMDL
MODEL      163
REMARK 921   NORMALIZED FREE ENERGY PREDICTED BY IDOCK:   -4.52 KCAL/MOL
REMARK 922        TOTAL FREE ENERGY PREDICTED BY IDOCK:   -6.62 KCAL/MOL
REMARK 923 INTER-LIGAND FREE ENERGY PREDICTED BY IDOCK:   -6.06 KCAL/MOL
REMARK 924 INTRA-LIGAND FREE ENERGY PREDICTED BY IDOCK:   -0.56 KCAL/MOL
REMARK 927      BINDING AFFINITY PREDICTED BY RF-SCORE:    0.00 PKD
ROOT
HETATM    1  C   UNL     1     -13.310   6.905  71.831  1.00  0.00    -0.125 C  
HETATM    2  N   UNL     1     -11.842   6.829  71.895  1.00  0.00    -0.311 NA 
HETATM    3  C   UNL     1     -11.288   6.372  70.609  1.00  0.00    -0.357 C  
HETATM    4  C   UNL     1     -11.346   7.397  69.481  1.00  0.00     0.075 C  
HETATM    5  C   UNL     1     -10.778   8.758  69.907  1.00  0.00    -0.223 C  
HETATM    6  C   UNL     1     -11.374   9.223  71.242  1.00  0.00    -0.423 C  
HETATM    7  C   UNL     1     -11.265   8.131  72.319  1.00  0.00    -0.359 C  
ENDROOT
BRANCH   5   8
HETATM    8  N   UNL     1     -10.930   9.754  68.844  1.00  0.00    -0.367 N  
HETATM    9  H   UNL     1     -11.860  10.091  68.597  1.00  0.00     0.000 HD 
BRANCH   8  10
HETATM   10  C   UNL     1      -9.832  10.237  68.177  1.00  0.00    -0.148 C  
HETATM   11  O   UNL     1      -9.405   9.746  67.137  1.00  0.00    -0.139 OA 
BRANCH  10  12
HETATM   12  N   UNL     1      -9.217  11.267  68.867  1.00  0.00    -0.366 N  
HETATM   13  H   UNL     1      -8.589  11.082  69.650  1.00  0.00     0.000 HD 
BRANCH  12  14
HETATM   14  C   UNL     1      -9.495  12.583  68.441  1.00  0.00    -0.167 A  
HETATM   15  C   UNL     1     -10.054  15.283  68.043  1.00  0.00    -0.229 A  
HETATM   16  C   UNL     1     -10.339  16.683  67.942  1.00  0.00    -0.310 C  
HETATM   17  N   UNL     1     -10.571  17.816  67.870  1.00  0.00    -0.396 NA 
HETATM   18  C   UNL     1     -10.822  12.999  68.332  1.00  0.00    -0.280 A  
HETATM   19  C   UNL     1      -8.728  14.846  68.068  1.00  0.00    -0.165 A  
HETATM   20  C   UNL     1      -8.451  13.496  68.265  1.00  0.00    -0.168 A  
HETATM   21  C   UNL     1     -11.098  14.357  68.158  1.00  0.00    -0.279 A  
ENDBRANCH  12  14
ENDBRANCH  10  12
ENDBRANCH   8  10
ENDBRANCH   5   8
BRANCH   7  22
HETATM   22  C   UNL     1      -9.831   7.996  72.777  1.00  0.00    -0.282 A  
HETATM   23  N   UNL     1      -8.828   8.795  72.470  1.00  0.00    -0.389 NA 
HETATM   24  N   UNL     1      -9.410   6.979  73.601  1.00  0.00    -0.173 NA 
HETATM   25  C   UNL     1      -7.733   8.278  73.107  1.00  0.00    -0.125 A  
HETATM   26  H   UNL     1      -8.860   9.626  71.879  1.00  0.00     0.000 HD 
HETATM   27  C   UNL     1      -8.065   7.129  73.817  1.00  0.00    -0.114 A  
HETATM   28  C   UNL     1      -6.410   8.742  73.121  1.00  0.00    -0.022 A  
HETATM   29  C   UNL     1      -7.134   6.391  74.550  1.00  0.00    -0.089 A  
HETATM   30  C   UNL     1      -5.818   6.871  74.556  1.00  0.00    -0.071 A  
HETATM   31  C   UNL     1      -5.459   8.027  73.856  1.00  0.00    -0.058 A  
ENDBRANCH   7  22
TORSDOF 5
ENDMDL
MODEL      164
REMARK 921   NORMALIZED FREE ENERGY PREDICTED BY IDOCK:   -4.51 KCAL/MOL
REMARK 922        TOTAL FREE ENERGY PREDICTED BY IDOCK:   -6.60 KCAL/MOL
REMARK 923 INTER-LIGAND FREE ENERGY PREDICTED BY IDOCK:   -6.24 KCAL/MOL
REMARK 924 INTRA-LIGAND FREE ENERGY PREDICTED BY IDOCK:   -0.36 KCAL/MOL
REMARK 927      BINDING AFFINITY PREDICTED BY RF-SCORE:    0.00 PKD
ROOT
HETATM    1  C   UNL     1      -9.750   7.891  67.883  1.00  0.00    -0.155 C  
HETATM    2  N   UNL     1     -10.649   8.690  68.730  1.00  0.00    -0.184 NA 
HETATM    3  C   UNL     1     -11.339   7.834  69.710  1.00  0.00     0.093 C  
HETATM    4  C   UNL     1     -10.464   7.319  70.847  1.00  0.00    -0.225 C  
HETATM    5  C   UNL     1      -9.671   8.447  71.521  1.00  0.00    -0.210 C  
HETATM    6  C   UNL     1      -8.948   9.321  70.487  1.00  0.00    -0.296 C  
HETATM    7  C   UNL     1      -9.908   9.799  69.386  1.00  0.00    -0.205 C  
ENDROOT
BRANCH   5   8
HETATM    8  N   UNL     1      -8.765   7.921  72.546  1.00  0.00    -0.138 N  
HETATM    9  H   UNL     1      -7.818   8.291  72.621  1.00  0.00     0.000 HD 
BRANCH   8  10
HETATM   10  C   UNL     1      -9.180   6.936  73.406  1.00  0.00    -0.144 C  
HETATM   11  O   UNL     1     -10.191   7.024  74.095  1.00  0.00    -0.345 OA 
BRANCH  10  12
HETATM   12  N   UNL     1      -8.276   5.891  73.473  1.00  0.00    -0.111 N  
HETATM   13  H   UNL     1      -7.550   5.860  74.189  1.00  0.00     0.000 HD 
BRANCH  12  14
HETATM   14  C   UNL     1      -8.402   4.868  72.509  1.00  0.00    -0.119 A  
HETATM   15  C   UNL     1      -8.915   3.142  70.382  1.00  0.00    -0.170 A  
HETATM   16  C   UNL     1      -9.235   2.332  69.246  1.00  0.00    -0.124 C  
HETATM   17  N   UNL     1      -9.501   1.682  68.324  1.00  0.00    -0.193 NA 
HETATM   18  C   UNL     1      -9.478   3.984  72.588  1.00  0.00    -0.170 A  
HETATM   19  C   UNL     1      -7.790   3.970  70.347  1.00  0.00    -0.051 A  
HETATM   20  C   UNL     1      -7.535   4.830  71.412  1.00  0.00    -0.077 A  
HETATM   21  C   UNL     1      -9.746   3.139  71.510  1.00  0.00    -0.226 A  
ENDBRANCH  12  14
ENDBRANCH  10  12
ENDBRANCH   8  10
ENDBRANCH   5   8
BRANCH   7  22
HETATM   22  C   UNL     1     -10.837  10.860  69.931  1.00  0.00    -0.141 A  
HETATM   23  N   UNL     1     -10.906  12.119  69.545  1.00  0.00    -0.449 NA 
HETATM   24  N   UNL     1     -11.747  10.605  70.929  1.00  0.00    -0.322 NA 
HETATM   25  C   UNL     1     -11.882  12.691  70.316  1.00  0.00    -0.214 A  
HETATM   26  H   UNL     1     -10.349  12.574  68.821  1.00  0.00     0.000 HD 
HETATM   27  C   UNL     1     -12.421  11.766  71.204  1.00  0.00    -0.285 A  
HETATM   28  C   UNL     1     -12.361  14.008  70.313  1.00  0.00    -0.425 A  
HETATM   29  C   UNL     1     -13.426  12.086  72.119  1.00  0.00    -0.338 A  
HETATM   30  C   UNL     1     -13.895  13.405  72.099  1.00  0.00    -0.605 A  
HETATM   31  C   UNL     1     -13.375  14.352  71.212  1.00  0.00    -0.409 A  
ENDBRANCH   7  22
TORSDOF 5
ENDMDL
MODEL      165
REMARK 921   NORMALIZED FREE ENERGY PREDICTED BY IDOCK:   -4.51 KCAL/MOL
REMARK 922        TOTAL FREE ENERGY PREDICTED BY IDOCK:   -6.60 KCAL/MOL
REMARK 923 INTER-LIGAND FREE ENERGY PREDICTED BY IDOCK:   -6.04 KCAL/MOL
REMARK 924 INTRA-LIGAND FREE ENERGY PREDICTED BY IDOCK:   -0.56 KCAL/MOL
REMARK 927      BINDING AFFINITY PREDICTED BY RF-SCORE:    0.00 PKD
ROOT
HETATM    1  C   UNL     1     -10.788  11.201  69.251  1.00  0.00    -0.229 C  
HETATM    2  N   UNL     1     -10.795   9.818  69.752  1.00  0.00    -0.244 NA 
HETATM    3  C   UNL     1     -11.150   8.876  68.677  1.00  0.00     0.244 C  
HETATM    4  C   UNL     1     -10.067   8.659  67.625  1.00  0.00    -0.271 C  
HETATM    5  C   UNL     1      -8.706   8.333  68.255  1.00  0.00    -0.136 C  
HETATM    6  C   UNL     1      -8.347   9.331  69.365  1.00  0.00    -0.127 C  
HETATM    7  C   UNL     1      -9.491   9.479  70.380  1.00  0.00    -0.262 C  
ENDROOT
BRANCH   5   8
HETATM    8  N   UNL     1      -7.661   8.223  67.236  1.00  0.00    -0.096 N  
HETATM    9  H   UNL     1      -6.702   8.019  67.515  1.00  0.00     0.000 HD 
BRANCH   8  10
HETATM   10  C   UNL     1      -7.960   8.392  65.907  1.00  0.00    -0.099 C  
HETATM   11  O   UNL     1      -8.538   7.546  65.233  1.00  0.00    -0.106 OA 
BRANCH  10  12
HETATM   12  N   UNL     1      -7.446   9.575  65.406  1.00  0.00    -0.096 N  
HETATM   13  H   UNL     1      -6.442   9.756  65.393  1.00  0.00     0.000 HD 
BRANCH  12  14
HETATM   14  C   UNL     1      -8.370  10.520  64.913  1.00  0.00    -0.135 A  
HETATM   15  C   UNL     1     -10.508  12.067  64.017  1.00  0.00    -0.410 A  
HETATM   16  C   UNL     1     -11.669  12.782  63.580  1.00  0.00    -0.519 C  
HETATM   17  N   UNL     1     -12.614  13.353  63.227  1.00  0.00    -0.716 NA 
HETATM   18  C   UNL     1      -8.709  10.503  63.560  1.00  0.00    -0.187 A  
HETATM   19  C   UNL     1     -10.108  12.144  65.353  1.00  0.00    -0.282 A  
HETATM   20  C   UNL     1      -9.039  11.372  65.798  1.00  0.00    -0.195 A  
HETATM   21  C   UNL     1      -9.797  11.260  63.120  1.00  0.00    -0.403 A  
ENDBRANCH  12  14
ENDBRANCH  10  12
ENDBRANCH   8  10
ENDBRANCH   5   8
BRANCH   7  22
HETATM   22  C   UNL     1      -9.581   8.243  71.245  1.00  0.00    -0.171 A  
HETATM   23  N   UNL     1      -8.588   7.655  71.885  1.00  0.00    -0.107 NA 
HETATM   24  N   UNL     1     -10.763   7.576  71.464  1.00  0.00    -0.218 NA 
HETATM   25  C   UNL     1      -9.143   6.582  72.527  1.00  0.00    -0.135 A  
HETATM   26  H   UNL     1      -7.609   7.941  71.898  1.00  0.00     0.000 HD 
HETATM   27  C   UNL     1     -10.508   6.499  72.272  1.00  0.00    -0.202 A  
HETATM   28  C   UNL     1      -8.534   5.626  73.351  1.00  0.00    -0.116 A  
HETATM   29  C   UNL     1     -11.320   5.490  72.792  1.00  0.00    -0.359 A  
HETATM   30  C   UNL     1     -10.696   4.546  73.617  1.00  0.00    -0.344 A  
HETATM   31  C   UNL     1      -9.327   4.610  73.894  1.00  0.00    -0.119 A  
ENDBRANCH   7  22
TORSDOF 5
ENDMDL
MODEL      166
REMARK 921   NORMALIZED FREE ENERGY PREDICTED BY IDOCK:   -4.45 KCAL/MOL
REMARK 922        TOTAL FREE ENERGY PREDICTED BY IDOCK:   -6.52 KCAL/MOL
REMARK 923 INTER-LIGAND FREE ENERGY PREDICTED BY IDOCK:   -5.72 KCAL/MOL
REMARK 924 INTRA-LIGAND FREE ENERGY PREDICTED BY IDOCK:   -0.79 KCAL/MOL
REMARK 927      BINDING AFFINITY PREDICTED BY RF-SCORE:    0.00 PKD
ROOT
HETATM    1  C   UNL     1     -10.929   8.457  70.566  1.00  0.00    -0.242 C  
HETATM    2  N   UNL     1     -10.632   9.568  69.649  1.00  0.00    -0.218 NA 
HETATM    3  C   UNL     1      -9.287  10.111  69.906  1.00  0.00    -0.093 C  
HETATM    4  C   UNL     1      -8.135   9.219  69.456  1.00  0.00    -0.111 C  
HETATM    5  C   UNL     1      -8.302   8.748  68.004  1.00  0.00    -0.119 C  
HETATM    6  C   UNL     1      -9.705   8.175  67.758  1.00  0.00    -0.193 C  
HETATM    7  C   UNL     1     -10.800   9.142  68.235  1.00  0.00    -0.051 C  
ENDROOT
BRANCH   5   8
HETATM    8  N   UNL     1      -7.238   7.818  67.622  1.00  0.00    -0.088 N  
HETATM    9  H   UNL     1      -6.590   7.473  68.329  1.00  0.00     0.000 HD 
BRANCH   8  10
HETATM   10  C   UNL     1      -7.104   7.406  66.319  1.00  0.00    -0.070 C  
HETATM   11  O   UNL     1      -7.406   8.104  65.357  1.00  0.00    -0.066 OA 
BRANCH  10  12
HETATM   12  N   UNL     1      -6.689   6.089  66.232  1.00  0.00    -0.058 N  
HETATM   13  H   UNL     1      -5.768   5.798  66.562  1.00  0.00     0.000 HD 
BRANCH  12  14
HETATM   14  C   UNL     1      -7.593   5.165  65.665  1.00  0.00    -0.086 A  
HETATM   15  C   UNL     1      -9.569   3.704  64.353  1.00  0.00    -0.166 A  
HETATM   16  C   UNL     1     -10.619   3.043  63.638  1.00  0.00    -0.221 C  
HETATM   17  N   UNL     1     -11.472   2.516  63.057  1.00  0.00    -0.224 NA 
HETATM   18  C   UNL     1      -8.795   4.899  66.319  1.00  0.00    -0.116 A  
HETATM   19  C   UNL     1      -8.330   3.901  63.739  1.00  0.00    -0.092 A  
HETATM   20  C   UNL     1      -7.343   4.630  64.397  1.00  0.00    -0.066 A  
HETATM   21  C   UNL     1      -9.793   4.188  65.648  1.00  0.00    -0.207 A  
ENDBRANCH  12  14
ENDBRANCH  10  12
ENDBRANCH   8  10
ENDBRANCH   5   8
BRANCH   7  22
HETATM   22  C   UNL     1     -10.897  10.321  67.294  1.00  0.00    -0.250 A  
HETATM   23  N   UNL     1     -10.167  10.529  66.215  1.00  0.00    -0.237 NA 
HETATM   24  N   UNL     1     -11.800  11.341  67.475  1.00  0.00    -0.604 NA 
HETATM   25  C   UNL     1     -10.607  11.715  65.691  1.00  0.00    -0.275 A  
HETATM   26  H   UNL     1      -9.427   9.931  65.846  1.00  0.00     0.000 HD 
HETATM   27  C   UNL     1     -11.626  12.255  66.468  1.00  0.00    -0.377 A  
HETATM   28  C   UNL     1     -10.176  12.396  64.545  1.00  0.00    -0.325 A  
HETATM   29  C   UNL     1     -12.250  13.468  66.171  1.00  0.00    -0.484 A  
HETATM   30  C   UNL     1     -11.809  14.133  65.019  1.00  0.00    -0.390 A  
HETATM   31  C   UNL     1     -10.791  13.608  64.217  1.00  0.00    -0.297 A  
ENDBRANCH   7  22
TORSDOF 5
ENDMDL
MODEL      167
REMARK 921   NORMALIZED FREE ENERGY PREDICTED BY IDOCK:   -4.41 KCAL/MOL
REMARK 922        TOTAL FREE ENERGY PREDICTED BY IDOCK:   -6.47 KCAL/MOL
REMARK 923 INTER-LIGAND FREE ENERGY PREDICTED BY IDOCK:   -6.26 KCAL/MOL
REMARK 924 INTRA-LIGAND FREE ENERGY PREDICTED BY IDOCK:   -0.21 KCAL/MOL
REMARK 927      BINDING AFFINITY PREDICTED BY RF-SCORE:    0.00 PKD
ROOT
HETATM    1  C   UNL     1      -8.172  10.096  64.329  1.00  0.00    -0.165 C  
HETATM    2  N   UNL     1      -8.143   9.119  65.428  1.00  0.00    -0.119 NA 
HETATM    3  C   UNL     1      -7.363   9.637  66.565  1.00  0.00    -0.090 C  
HETATM    4  C   UNL     1      -8.039  10.750  67.359  1.00  0.00    -0.112 C  
HETATM    5  C   UNL     1      -9.474  10.382  67.760  1.00  0.00    -0.145 C  
HETATM    6  C   UNL     1     -10.276   9.856  66.562  1.00  0.00    -0.292 C  
HETATM    7  C   UNL     1      -9.522   8.735  65.829  1.00  0.00    -0.169 C  
ENDROOT
BRANCH   5   8
HETATM    8  N   UNL     1     -10.140  11.498  68.437  1.00  0.00    -0.199 N  
HETATM    9  H   UNL     1     -10.550  11.357  69.360  1.00  0.00     0.000 HD 
BRANCH   8  10
HETATM   10  C   UNL     1     -10.216  12.732  67.841  1.00  0.00    -0.229 C  
HETATM   11  O   UNL     1     -10.934  12.970  66.876  1.00  0.00    -0.258 OA 
BRANCH  10  12
HETATM   12  N   UNL     1      -9.319  13.630  68.391  1.00  0.00    -0.254 N  
HETATM   13  H   UNL     1      -8.618  13.334  69.071  1.00  0.00     0.000 HD 
BRANCH  12  14
HETATM   14  C   UNL     1      -9.417  14.974  67.973  1.00  0.00    -0.193 A  
HETATM   15  C   UNL     1      -9.922  17.477  66.856  1.00  0.00    -0.313 A  
HETATM   16  C   UNL     1     -10.254  18.717  66.221  1.00  0.00    -0.427 C  
HETATM   17  N   UNL     1     -10.527  19.716  65.701  1.00  0.00    -0.475 NA 
HETATM   18  C   UNL     1      -8.649  15.410  66.894  1.00  0.00    -0.291 A  
HETATM   19  C   UNL     1     -10.628  17.068  67.990  1.00  0.00    -0.373 A  
HETATM   20  C   UNL     1     -10.373  15.819  68.548  1.00  0.00    -0.229 A  
HETATM   21  C   UNL     1      -8.922  16.654  66.321  1.00  0.00    -0.340 A  
ENDBRANCH  12  14
ENDBRANCH  10  12
ENDBRANCH   8  10
ENDBRANCH   5   8
BRANCH   7  22
HETATM   22  C   UNL     1      -9.542   7.469  66.655  1.00  0.00    -0.200 A  
HETATM   23  N   UNL     1     -10.047   7.327  67.865  1.00  0.00    -0.168 NA 
HETATM   24  N   UNL     1      -9.014   6.283  66.205  1.00  0.00    -0.156 NA 
HETATM   25  C   UNL     1      -9.834   6.018  68.205  1.00  0.00    -0.131 A  
HETATM   26  H   UNL     1     -10.502   8.043  68.431  1.00  0.00     0.000 HD 
HETATM   27  C   UNL     1      -9.176   5.339  67.185  1.00  0.00    -0.113 A  
HETATM   28  C   UNL     1     -10.179   5.337  69.380  1.00  0.00    -0.321 A  
HETATM   29  C   UNL     1      -8.822   3.991  67.273  1.00  0.00    -0.130 A  
HETATM   30  C   UNL     1      -9.178   3.326  68.453  1.00  0.00    -0.235 A  
HETATM   31  C   UNL     1      -9.846   3.983  69.489  1.00  0.00    -0.134 A  
ENDBRANCH   7  22
TORSDOF 5
ENDMDL
MODEL      168
REMARK 921   NORMALIZED FREE ENERGY PREDICTED BY IDOCK:   -4.35 KCAL/MOL
REMARK 922        TOTAL FREE ENERGY PREDICTED BY IDOCK:   -6.39 KCAL/MOL
REMARK 923 INTER-LIGAND FREE ENERGY PREDICTED BY IDOCK:   -5.13 KCAL/MOL
REMARK 924 INTRA-LIGAND FREE ENERGY PREDICTED BY IDOCK:   -1.26 KCAL/MOL
REMARK 927      BINDING AFFINITY PREDICTED BY RF-SCORE:    0.00 PKD
ROOT
HETATM    1  C   UNL     1     -11.509   7.749  71.422  1.00  0.00    -0.260 C  
HETATM    2  N   UNL     1     -11.024   8.759  70.470  1.00  0.00    -0.235 NA 
HETATM    3  C   UNL     1      -9.779   9.378  70.956  1.00  0.00    -0.223 C  
HETATM    4  C   UNL     1      -8.544   8.486  70.886  1.00  0.00    -0.184 C  
HETATM    5  C   UNL     1      -8.371   7.848  69.500  1.00  0.00    -0.131 C  
HETATM    6  C   UNL     1      -9.674   7.198  69.015  1.00  0.00    -0.150 C  
HETATM    7  C   UNL     1     -10.860   8.171  69.115  1.00  0.00    -0.016 C  
ENDROOT
BRANCH   5   8
HETATM    8  N   UNL     1      -7.237   6.921  69.480  1.00  0.00    -0.079 N  
HETATM    9  H   UNL     1      -7.224   6.124  70.116  1.00  0.00     0.000 HD 
BRANCH   8  10
HETATM   10  C   UNL     1      -6.192   7.115  68.612  1.00  0.00    -0.031 C  
HETATM   11  O   UNL     1      -5.696   8.215  68.390  1.00  0.00    -0.032 OA 
BRANCH  10  12
HETATM   12  N   UNL     1      -5.839   5.950  67.955  1.00  0.00    -0.012 N  
HETATM   13  H   UNL     1      -4.948   5.486  68.134  1.00  0.00     0.000 HD 
BRANCH  12  14
HETATM   14  C   UNL     1      -6.766   5.429  67.027  1.00  0.00    -0.062 A  
HETATM   15  C   UNL     1      -8.911   4.600  65.453  1.00  0.00    -0.141 A  
HETATM   16  C   UNL     1     -10.076   4.226  64.710  1.00  0.00    -0.144 C  
HETATM   17  N   UNL     1     -11.025   3.926  64.115  1.00  0.00    -0.288 NA 
HETATM   18  C   UNL     1      -7.362   4.194  67.277  1.00  0.00    -0.069 A  
HETATM   19  C   UNL     1      -8.254   5.797  65.155  1.00  0.00    -0.140 A  
HETATM   20  C   UNL     1      -7.181   6.208  65.941  1.00  0.00    -0.075 A  
HETATM   21  C   UNL     1      -8.453   3.793  66.502  1.00  0.00    -0.106 A  
ENDBRANCH  12  14
ENDBRANCH  10  12
ENDBRANCH   8  10
ENDBRANCH   5   8
BRANCH   7  22
HETATM   22  C   UNL     1     -10.753   9.231  68.043  1.00  0.00    -0.174 A  
HETATM   23  N   UNL     1     -11.445  10.352  67.973  1.00  0.00    -0.649 NA 
HETATM   24  N   UNL     1      -9.881   9.130  66.985  1.00  0.00    -0.190 NA 
HETATM   25  C   UNL     1     -11.012  10.985  66.840  1.00  0.00    -0.249 A  
HETATM   26  H   UNL     1     -12.157  10.679  68.627  1.00  0.00     0.000 HD 
HETATM   27  C   UNL     1     -10.037  10.236  66.191  1.00  0.00    -0.242 A  
HETATM   28  C   UNL     1     -11.414  12.214  66.299  1.00  0.00    -0.433 A  
HETATM   29  C   UNL     1      -9.430  10.642  65.001  1.00  0.00    -0.293 A  
HETATM   30  C   UNL     1      -9.841  11.875  64.477  1.00  0.00    -0.203 A  
HETATM   31  C   UNL     1     -10.814  12.650  65.114  1.00  0.00    -0.321 A  
ENDBRANCH   7  22
TORSDOF 5
ENDMDL
MODEL      169
REMARK 921   NORMALIZED FREE ENERGY PREDICTED BY IDOCK:   -4.31 KCAL/MOL
REMARK 922        TOTAL FREE ENERGY PREDICTED BY IDOCK:   -6.35 KCAL/MOL
REMARK 923 INTER-LIGAND FREE ENERGY PREDICTED BY IDOCK:   -6.08 KCAL/MOL
REMARK 924 INTRA-LIGAND FREE ENERGY PREDICTED BY IDOCK:   -0.27 KCAL/MOL
REMARK 927      BINDING AFFINITY PREDICTED BY RF-SCORE:    0.00 PKD
ROOT
HETATM    1  C   UNL     1     -10.791   6.734  69.681  1.00  0.00    -0.271 C  
HETATM    2  N   UNL     1     -10.244   6.258  68.401  1.00  0.00    -0.156 NA 
HETATM    3  C   UNL     1     -10.929   6.904  67.268  1.00  0.00    -0.336 C  
HETATM    4  C   UNL     1     -10.578   8.372  67.055  1.00  0.00    -0.316 C  
HETATM    5  C   UNL     1      -9.061   8.605  67.024  1.00  0.00    -0.138 C  
HETATM    6  C   UNL     1      -8.366   7.935  68.217  1.00  0.00    -0.124 C  
HETATM    7  C   UNL     1      -8.772   6.459  68.350  1.00  0.00    -0.113 C  
ENDROOT
BRANCH   5   8
HETATM    8  N   UNL     1      -8.745  10.031  66.915  1.00  0.00    -0.129 N  
HETATM    9  H   UNL     1      -8.458  10.418  66.016  1.00  0.00     0.000 HD 
BRANCH   8  10
HETATM   10  C   UNL     1      -8.830  10.852  68.012  1.00  0.00    -0.135 C  
HETATM   11  O   UNL     1      -7.894  11.050  68.780  1.00  0.00    -0.123 OA 
BRANCH  10  12
HETATM   12  N   UNL     1     -10.111  11.341  68.196  1.00  0.00    -0.177 N  
HETATM   13  H   UNL     1     -10.781  10.862  68.799  1.00  0.00     0.000 HD 
BRANCH  12  14
HETATM   14  C   UNL     1     -10.451  12.529  67.516  1.00  0.00    -0.219 A  
HETATM   15  C   UNL     1     -11.034  14.640  65.793  1.00  0.00    -0.330 A  
HETATM   16  C   UNL     1     -11.314  15.661  64.828  1.00  0.00    -0.343 C  
HETATM   17  N   UNL     1     -11.537  16.481  64.041  1.00  0.00    -1.124 NA 
HETATM   18  C   UNL     1      -9.443  13.429  67.169  1.00  0.00    -0.244 A  
HETATM   19  C   UNL     1     -12.057  13.785  66.213  1.00  0.00    -0.484 A  
HETATM   20  C   UNL     1     -11.763  12.733  67.075  1.00  0.00    -0.440 A  
HETATM   21  C   UNL     1      -9.734  14.471  66.285  1.00  0.00    -0.330 A  
ENDBRANCH  12  14
ENDBRANCH  10  12
ENDBRANCH   8  10
ENDBRANCH   5   8
BRANCH   7  22
HETATM   22  C   UNL     1      -8.124   5.643  67.256  1.00  0.00    -0.102 A  
HETATM   23  N   UNL     1      -8.604   4.544  66.704  1.00  0.00    -0.111 NA 
HETATM   24  N   UNL     1      -6.914   5.979  66.698  1.00  0.00    -0.066 NA 
HETATM   25  C   UNL     1      -7.677   4.162  65.772  1.00  0.00    -0.090 A  
HETATM   26  H   UNL     1      -9.483   4.076  66.925  1.00  0.00     0.000 HD 
HETATM   27  C   UNL     1      -6.598   5.039  65.752  1.00  0.00    -0.041 A  
HETATM   28  C   UNL     1      -7.694   3.065  64.899  1.00  0.00    -0.077 A  
HETATM   29  C   UNL     1      -5.501   4.878  64.904  1.00  0.00    -0.013 A  
HETATM   30  C   UNL     1      -5.536   3.779  64.036  1.00  0.00    -0.013 A  
HETATM   31  C   UNL     1      -6.612   2.887  64.030  1.00  0.00    -0.031 A  
ENDBRANCH   7  22
TORSDOF 5
ENDMDL
MODEL      170
REMARK 921   NORMALIZED FREE ENERGY PREDICTED BY IDOCK:   -4.30 KCAL/MOL
REMARK 922        TOTAL FREE ENERGY PREDICTED BY IDOCK:   -6.34 KCAL/MOL
REMARK 923 INTER-LIGAND FREE ENERGY PREDICTED BY IDOCK:   -6.48 KCAL/MOL
REMARK 924 INTRA-LIGAND FREE ENERGY PREDICTED BY IDOCK:    0.14 KCAL/MOL
REMARK 927      BINDING AFFINITY PREDICTED BY RF-SCORE:    0.00 PKD
ROOT
HETATM    1  C   UNL     1     -12.616  14.064  67.014  1.00  0.00     0.110 C  
HETATM    2  N   UNL     1     -11.719  12.967  66.618  1.00  0.00    -0.362 NA 
HETATM    3  C   UNL     1     -10.511  13.493  65.959  1.00  0.00    -0.299 C  
HETATM    4  C   UNL     1      -9.519  14.185  66.887  1.00  0.00    -0.275 C  
HETATM    5  C   UNL     1      -9.181  13.327  68.114  1.00  0.00    -0.212 C  
HETATM    6  C   UNL     1     -10.451  12.797  68.795  1.00  0.00    -0.179 C  
HETATM    7  C   UNL     1     -11.386  12.112  67.787  1.00  0.00    -0.307 C  
ENDROOT
BRANCH   5   8
HETATM    8  N   UNL     1      -8.303  14.046  69.040  1.00  0.00    -0.347 N  
HETATM    9  H   UNL     1      -8.708  14.619  69.779  1.00  0.00     0.000 HD 
BRANCH   8  10
HETATM   10  C   UNL     1      -6.938  13.955  68.921  1.00  0.00    -0.110 C  
HETATM   11  O   UNL     1      -6.247  13.234  69.632  1.00  0.00    -0.111 OA 
BRANCH  10  12
HETATM   12  N   UNL     1      -6.439  14.841  67.984  1.00  0.00    -0.138 N  
HETATM   13  H   UNL     1      -6.385  14.595  66.995  1.00  0.00     0.000 HD 
BRANCH  12  14
HETATM   14  C   UNL     1      -6.008  16.100  68.453  1.00  0.00    -0.107 A  
HETATM   15  C   UNL     1      -5.597  18.668  69.455  1.00  0.00    -0.229 A  
HETATM   16  C   UNL     1      -5.489  19.993  69.986  1.00  0.00    -0.249 C  
HETATM   17  N   UNL     1      -5.410  21.067  70.414  1.00  0.00    -0.569 NA 
HETATM   18  C   UNL     1      -5.975  17.182  67.573  1.00  0.00    -0.157 A  
HETATM   19  C   UNL     1      -5.546  17.570  70.318  1.00  0.00    -0.236 A  
HETATM   20  C   UNL     1      -5.750  16.288  69.815  1.00  0.00    -0.167 A  
HETATM   21  C   UNL     1      -5.794  18.470  68.083  1.00  0.00    -0.188 A  
ENDBRANCH  12  14
ENDBRANCH  10  12
ENDBRANCH   8  10
ENDBRANCH   5   8
BRANCH   7  22
HETATM   22  C   UNL     1     -10.811  10.778  67.370  1.00  0.00    -0.290 A  
HETATM   23  N   UNL     1     -11.058   9.606  67.924  1.00  0.00    -0.508 NA 
HETATM   24  N   UNL     1      -9.934  10.644  66.321  1.00  0.00    -0.214 NA 
HETATM   25  C   UNL     1     -10.318   8.698  67.217  1.00  0.00    -0.296 A  
HETATM   26  H   UNL     1     -11.674   9.416  68.716  1.00  0.00     0.000 HD 
HETATM   27  C   UNL     1      -9.592   9.322  66.209  1.00  0.00    -0.248 A  
HETATM   28  C   UNL     1     -10.217   7.310  67.385  1.00  0.00    -0.304 A  
HETATM   29  C   UNL     1      -8.740   8.632  65.344  1.00  0.00    -0.208 A  
HETATM   30  C   UNL     1      -8.655   7.245  65.524  1.00  0.00    -0.090 A  
HETATM   31  C   UNL     1      -9.380   6.592  66.524  1.00  0.00    -0.191 A  
ENDBRANCH   7  22
TORSDOF 5
ENDMDL
MODEL      171
REMARK 921   NORMALIZED FREE ENERGY PREDICTED BY IDOCK:   -4.22 KCAL/MOL
REMARK 922        TOTAL FREE ENERGY PREDICTED BY IDOCK:   -6.23 KCAL/MOL
REMARK 923 INTER-LIGAND FREE ENERGY PREDICTED BY IDOCK:   -6.37 KCAL/MOL
REMARK 924 INTRA-LIGAND FREE ENERGY PREDICTED BY IDOCK:    0.14 KCAL/MOL
REMARK 927      BINDING AFFINITY PREDICTED BY RF-SCORE:    0.00 PKD
ROOT
HETATM    1  C   UNL     1     -11.394   7.054  70.541  1.00  0.00    -0.312 C  
HETATM    2  N   UNL     1     -11.389   8.523  70.470  1.00  0.00    -0.249 NA 
HETATM    3  C   UNL     1     -10.744   9.101  71.661  1.00  0.00    -0.371 C  
HETATM    4  C   UNL     1      -9.229   8.939  71.717  1.00  0.00    -0.279 C  
HETATM    5  C   UNL     1      -8.552   9.390  70.416  1.00  0.00    -0.230 C  
HETATM    6  C   UNL     1      -9.229   8.770  69.186  1.00  0.00    -0.149 C  
HETATM    7  C   UNL     1     -10.750   8.988  69.211  1.00  0.00    -0.174 C  
ENDROOT
BRANCH   5   8
HETATM    8  N   UNL     1      -7.109   9.139  70.452  1.00  0.00    -0.067 N  
HETATM    9  H   UNL     1      -6.765   8.200  70.652  1.00  0.00     0.000 HD 
BRANCH   8  10
HETATM   10  C   UNL     1      -6.216  10.155  70.220  1.00  0.00    -0.103 C  
HETATM   11  O   UNL     1      -5.364  10.500  71.031  1.00  0.00    -0.082 OA 
BRANCH  10  12
HETATM   12  N   UNL     1      -6.460  10.796  69.019  1.00  0.00    -0.050 N  
HETATM   13  H   UNL     1      -6.721  10.275  68.181  1.00  0.00     0.000 HD 
BRANCH  12  14
HETATM   14  C   UNL     1      -6.332  12.201  69.002  1.00  0.00    -0.087 A  
HETATM   15  C   UNL     1      -6.528  14.980  69.045  1.00  0.00    -0.102 A  
HETATM   16  C   UNL     1      -6.730  16.397  69.087  1.00  0.00    -0.205 C  
HETATM   17  N   UNL     1      -6.903  17.543  69.121  1.00  0.00    -0.248 NA 
HETATM   18  C   UNL     1      -6.548  12.891  67.809  1.00  0.00    -0.140 A  
HETATM   19  C   UNL     1      -6.227  14.288  70.221  1.00  0.00    -0.163 A  
HETATM   20  C   UNL     1      -6.128  12.900  70.196  1.00  0.00    -0.092 A  
HETATM   21  C   UNL     1      -6.671  14.282  67.839  1.00  0.00    -0.177 A  
ENDBRANCH  12  14
ENDBRANCH  10  12
ENDBRANCH   8  10
ENDBRANCH   5   8
BRANCH   7  22
HETATM   22  C   UNL     1     -11.072  10.434  68.910  1.00  0.00    -0.247 A  
HETATM   23  N   UNL     1     -11.255  11.400  69.789  1.00  0.00    -0.432 NA 
HETATM   24  N   UNL     1     -11.211  10.910  67.628  1.00  0.00    -0.356 NA 
HETATM   25  C   UNL     1     -11.523  12.524  69.056  1.00  0.00    -0.304 A  
HETATM   26  H   UNL     1     -11.207  11.325  70.806  1.00  0.00     0.000 HD 
HETATM   27  C   UNL     1     -11.514  12.245  67.694  1.00  0.00    -0.336 A  
HETATM   28  C   UNL     1     -11.788  13.829  69.494  1.00  0.00    -0.394 A  
HETATM   29  C   UNL     1     -11.770  13.209  66.717  1.00  0.00    -0.439 A  
HETATM   30  C   UNL     1     -12.029  14.508  67.172  1.00  0.00    -0.373 A  
HETATM   31  C   UNL     1     -12.038  14.816  68.535  1.00  0.00    -0.210 A  
ENDBRANCH   7  22
TORSDOF 5
ENDMDL
MODEL      172
REMARK 921   NORMALIZED FREE ENERGY PREDICTED BY IDOCK:   -4.20 KCAL/MOL
REMARK 922        TOTAL FREE ENERGY PREDICTED BY IDOCK:   -6.21 KCAL/MOL
REMARK 923 INTER-LIGAND FREE ENERGY PREDICTED BY IDOCK:   -4.85 KCAL/MOL
REMARK 924 INTRA-LIGAND FREE ENERGY PREDICTED BY IDOCK:   -1.35 KCAL/MOL
REMARK 927      BINDING AFFINITY PREDICTED BY RF-SCORE:    0.00 PKD
ROOT
HETATM    1  C   UNL     1     -12.147  12.774  66.025  1.00  0.00    -0.395 C  
HETATM    2  N   UNL     1     -11.503  11.465  66.214  1.00  0.00    -0.294 NA 
HETATM    3  C   UNL     1     -10.250  11.384  65.443  1.00  0.00    -0.270 C  
HETATM    4  C   UNL     1      -9.096  12.212  65.999  1.00  0.00    -0.057 C  
HETATM    5  C   UNL     1      -8.873  11.958  67.496  1.00  0.00    -0.169 C  
HETATM    6  C   UNL     1     -10.186  12.058  68.285  1.00  0.00    -0.207 C  
HETATM    7  C   UNL     1     -11.286  11.188  67.658  1.00  0.00    -0.284 C  
ENDROOT
BRANCH   5   8
HETATM    8  N   UNL     1      -7.825  12.830  68.033  1.00  0.00    -0.138 N  
HETATM    9  H   UNL     1      -8.080  13.714  68.472  1.00  0.00     0.000 HD 
BRANCH   8  10
HETATM   10  C   UNL     1      -6.504  12.469  67.949  1.00  0.00    -0.105 C  
HETATM   11  O   UNL     1      -5.755  12.857  67.059  1.00  0.00    -0.323 OA 
BRANCH  10  12
HETATM   12  N   UNL     1      -6.155  11.547  68.919  1.00  0.00    -0.049 N  
HETATM   13  H   UNL     1      -5.741  11.838  69.806  1.00  0.00     0.000 HD 
BRANCH  12  14
HETATM   14  C   UNL     1      -6.396  10.187  68.631  1.00  0.00    -0.052 A  
HETATM   15  C   UNL     1      -6.481   7.424  68.279  1.00  0.00    -0.045 A  
HETATM   16  C   UNL     1      -6.435   5.999  68.152  1.00  0.00    -0.046 C  
HETATM   17  N   UNL     1      -6.389   4.845  68.052  1.00  0.00    -0.035 NA 
HETATM   18  C   UNL     1      -5.850   9.627  67.477  1.00  0.00    -0.047 A  
HETATM   19  C   UNL     1      -7.101   8.001  69.390  1.00  0.00    -0.063 A  
HETATM   20  C   UNL     1      -7.059   9.381  69.563  1.00  0.00    -0.062 A  
HETATM   21  C   UNL     1      -5.872   8.239  67.317  1.00  0.00    -0.043 A  
ENDBRANCH  12  14
ENDBRANCH  10  12
ENDBRANCH   8  10
ENDBRANCH   5   8
BRANCH   7  22
HETATM   22  C   UNL     1     -11.006   9.726  67.920  1.00  0.00    -0.188 A  
HETATM   23  N   UNL     1     -11.015   9.121  69.093  1.00  0.00    -0.424 NA 
HETATM   24  N   UNL     1     -10.700   8.838  66.916  1.00  0.00    -0.183 NA 
HETATM   25  C   UNL     1     -10.703   7.813  68.837  1.00  0.00    -0.085 A  
HETATM   26  H   UNL     1     -11.213   9.540  70.001  1.00  0.00     0.000 HD 
HETATM   27  C   UNL     1     -10.489   7.606  67.479  1.00  0.00    -0.266 A  
HETATM   28  C   UNL     1     -10.583   6.737  69.728  1.00  0.00    -0.263 A  
HETATM   29  C   UNL     1     -10.142   6.365  66.942  1.00  0.00    -0.244 A  
HETATM   30  C   UNL     1     -10.031   5.301  67.846  1.00  0.00    -0.206 A  
HETATM   31  C   UNL     1     -10.248   5.480  69.215  1.00  0.00    -0.315 A  
ENDBRANCH   7  22
TORSDOF 5
ENDMDL
MODEL      173
REMARK 921   NORMALIZED FREE ENERGY PREDICTED BY IDOCK:   -4.20 KCAL/MOL
REMARK 922        TOTAL FREE ENERGY PREDICTED BY IDOCK:   -6.20 KCAL/MOL
REMARK 923 INTER-LIGAND FREE ENERGY PREDICTED BY IDOCK:   -6.42 KCAL/MOL
REMARK 924 INTRA-LIGAND FREE ENERGY PREDICTED BY IDOCK:    0.22 KCAL/MOL
REMARK 927      BINDING AFFINITY PREDICTED BY RF-SCORE:    0.00 PKD
ROOT
HETATM    1  C   UNL     1     -12.211  11.989  64.398  1.00  0.00    -0.266 C  
HETATM    2  N   UNL     1     -10.910  11.304  64.461  1.00  0.00    -0.315 NA 
HETATM    3  C   UNL     1      -9.807  12.263  64.286  1.00  0.00    -0.127 C  
HETATM    4  C   UNL     1      -9.559  13.186  65.475  1.00  0.00     0.034 C  
HETATM    5  C   UNL     1      -9.449  12.410  66.795  1.00  0.00    -0.228 C  
HETATM    6  C   UNL     1     -10.612  11.424  66.966  1.00  0.00    -0.286 C  
HETATM    7  C   UNL     1     -10.782  10.533  65.726  1.00  0.00     0.016 C  
ENDROOT
BRANCH   5   8
HETATM    8  N   UNL     1      -9.307  13.318  67.935  1.00  0.00    -0.206 N  
HETATM    9  H   UNL     1      -8.791  13.016  68.761  1.00  0.00     0.000 HD 
BRANCH   8  10
HETATM   10  C   UNL     1      -9.862  14.573  67.902  1.00  0.00    -0.222 C  
HETATM   11  O   UNL     1      -9.201  15.599  67.780  1.00  0.00    -0.192 OA 
BRANCH  10  12
HETATM   12  N   UNL     1     -11.227  14.543  68.122  1.00  0.00    -0.272 N  
HETATM   13  H   UNL     1     -11.874  14.200  67.411  1.00  0.00     0.000 HD 
BRANCH  12  14
HETATM   14  C   UNL     1     -11.688  15.006  69.373  1.00  0.00    -0.326 A  
HETATM   15  C   UNL     1     -12.230  15.715  72.013  1.00  0.00    -0.521 A  
HETATM   16  C   UNL     1     -12.419  16.032  73.396  1.00  0.00    -0.558 C  
HETATM   17  N   UNL     1     -12.566  16.282  74.519  1.00  0.00    -0.773 NA 
HETATM   18  C   UNL     1     -12.490  14.175  70.155  1.00  0.00    -0.391 A  
HETATM   19  C   UNL     1     -11.499  16.583  71.198  1.00  0.00    -0.092 A  
HETATM   20  C   UNL     1     -11.231  16.227  69.879  1.00  0.00    -0.319 A  
HETATM   21  C   UNL     1     -12.738  14.521  71.485  1.00  0.00    -0.409 A  
ENDBRANCH  12  14
ENDBRANCH  10  12
ENDBRANCH   8  10
ENDBRANCH   5   8
BRANCH   7  22
HETATM   22  C   UNL     1      -9.667   9.516  65.661  1.00  0.00    -0.290 A  
HETATM   23  N   UNL     1      -8.424   9.734  65.275  1.00  0.00    -0.137 NA 
HETATM   24  N   UNL     1      -9.842   8.200  66.016  1.00  0.00    -0.017 NA 
HETATM   25  C   UNL     1      -7.785   8.528  65.380  1.00  0.00    -0.095 A  
HETATM   26  H   UNL     1      -8.021  10.618  64.964  1.00  0.00     0.000 HD 
HETATM   27  C   UNL     1      -8.654   7.541  65.833  1.00  0.00    -0.151 A  
HETATM   28  C   UNL     1      -6.451   8.200  65.101  1.00  0.00    -0.052 A  
HETATM   29  C   UNL     1      -8.268   6.212  66.018  1.00  0.00    -0.127 A  
HETATM   30  C   UNL     1      -6.931   5.904  65.738  1.00  0.00    -0.065 A  
HETATM   31  C   UNL     1      -6.035   6.878  65.289  1.00  0.00    -0.036 A  
ENDBRANCH   7  22
TORSDOF 5
ENDMDL
MODEL      174
REMARK 921   NORMALIZED FREE ENERGY PREDICTED BY IDOCK:   -4.18 KCAL/MOL
REMARK 922        TOTAL FREE ENERGY PREDICTED BY IDOCK:   -6.17 KCAL/MOL
REMARK 923 INTER-LIGAND FREE ENERGY PREDICTED BY IDOCK:   -5.06 KCAL/MOL
REMARK 924 INTRA-LIGAND FREE ENERGY PREDICTED BY IDOCK:   -1.11 KCAL/MOL
REMARK 927      BINDING AFFINITY PREDICTED BY RF-SCORE:    0.00 PKD
ROOT
HETATM    1  C   UNL     1     -11.486  12.671  67.795  1.00  0.00    -0.322 C  
HETATM    2  N   UNL     1     -10.334  11.877  67.341  1.00  0.00    -0.205 NA 
HETATM    3  C   UNL     1      -9.395  11.639  68.451  1.00  0.00    -0.191 C  
HETATM    4  C   UNL     1      -9.875  10.640  69.499  1.00  0.00    -0.115 C  
HETATM    5  C   UNL     1     -10.369   9.331  68.866  1.00  0.00    -0.214 C  
HETATM    6  C   UNL     1     -11.354   9.598  67.720  1.00  0.00     0.296 C  
HETATM    7  C   UNL     1     -10.784  10.608  66.711  1.00  0.00    -0.210 C  
ENDROOT
BRANCH   5   8
HETATM    8  N   UNL     1     -10.914   8.424  69.878  1.00  0.00    -0.373 N  
HETATM    9  H   UNL     1     -11.876   8.540  70.195  1.00  0.00     0.000 HD 
BRANCH   8  10
HETATM   10  C   UNL     1     -10.141   7.418  70.404  1.00  0.00    -0.192 C  
HETATM   11  O   UNL     1      -9.037   7.608  70.903  1.00  0.00    -0.147 OA 
BRANCH  10  12
HETATM   12  N   UNL     1     -10.711   6.172  70.211  1.00  0.00    -0.265 N  
HETATM   13  H   UNL     1     -11.520   5.867  70.753  1.00  0.00     0.000 HD 
BRANCH  12  14
HETATM   14  C   UNL     1     -10.124   5.341  69.233  1.00  0.00    -0.230 A  
HETATM   15  C   UNL     1      -9.390   3.552  67.227  1.00  0.00    -0.239 A  
HETATM   16  C   UNL     1      -9.114   2.609  66.186  1.00  0.00    -0.108 C  
HETATM   17  N   UNL     1      -8.898   1.841  65.344  1.00  0.00    -0.118 NA 
HETATM   18  C   UNL     1      -9.748   4.043  69.577  1.00  0.00    -0.227 A  
HETATM   19  C   UNL     1      -9.685   4.878  66.899  1.00  0.00    -0.193 A  
HETATM   20  C   UNL     1     -10.050   5.770  67.904  1.00  0.00    -0.197 A  
HETATM   21  C   UNL     1      -9.405   3.142  68.566  1.00  0.00    -0.240 A  
ENDBRANCH  12  14
ENDBRANCH  10  12
ENDBRANCH   8  10
ENDBRANCH   5   8
BRANCH   7  22
HETATM   22  C   UNL     1      -9.692   9.962  65.890  1.00  0.00    -0.262 A  
HETATM   23  N   UNL     1      -9.481   8.669  65.740  1.00  0.00    -0.428 NA 
HETATM   24  N   UNL     1      -8.768  10.692  65.182  1.00  0.00    -0.190 NA 
HETATM   25  C   UNL     1      -8.391   8.564  64.919  1.00  0.00    -0.160 A  
HETATM   26  H   UNL     1     -10.018   7.904  66.150  1.00  0.00     0.000 HD 
HETATM   27  C   UNL     1      -7.913   9.819  64.560  1.00  0.00    -0.144 A  
HETATM   28  C   UNL     1      -7.748   7.415  64.437  1.00  0.00    -0.120 A  
HETATM   29  C   UNL     1      -6.800  10.005  63.739  1.00  0.00    -0.126 A  
HETATM   30  C   UNL     1      -6.173   8.846  63.263  1.00  0.00    -0.089 A  
HETATM   31  C   UNL     1      -6.637   7.572  63.602  1.00  0.00    -0.053 A  
ENDBRANCH   7  22
TORSDOF 5
ENDMDL
MODEL      175
REMARK 921   NORMALIZED FREE ENERGY PREDICTED BY IDOCK:   -4.14 KCAL/MOL
REMARK 922        TOTAL FREE ENERGY PREDICTED BY IDOCK:   -6.12 KCAL/MOL
REMARK 923 INTER-LIGAND FREE ENERGY PREDICTED BY IDOCK:   -5.00 KCAL/MOL
REMARK 924 INTRA-LIGAND FREE ENERGY PREDICTED BY IDOCK:   -1.12 KCAL/MOL
REMARK 927      BINDING AFFINITY PREDICTED BY RF-SCORE:    0.00 PKD
ROOT
HETATM    1  C   UNL     1      -7.723   4.136  64.859  1.00  0.00    -0.078 C  
HETATM    2  N   UNL     1      -8.588   5.326  64.835  1.00  0.00    -0.150 NA 
HETATM    3  C   UNL     1      -9.986   4.961  65.121  1.00  0.00     0.100 C  
HETATM    4  C   UNL     1     -10.271   4.586  66.571  1.00  0.00    -0.224 C  
HETATM    5  C   UNL     1      -9.733   5.634  67.555  1.00  0.00    -0.124 C  
HETATM    6  C   UNL     1      -8.272   5.994  67.250  1.00  0.00    -0.106 C  
HETATM    7  C   UNL     1      -8.082   6.364  65.770  1.00  0.00    -0.127 C  
ENDROOT
BRANCH   5   8
HETATM    8  N   UNL     1      -9.931   5.211  68.943  1.00  0.00    -0.173 N  
HETATM    9  H   UNL     1      -9.581   4.304  69.250  1.00  0.00     0.000 HD 
BRANCH   8  10
HETATM   10  C   UNL     1     -10.583   6.025  69.836  1.00  0.00    -0.279 C  
HETATM   11  O   UNL     1     -11.781   6.277  69.766  1.00  0.00    -0.403 OA 
BRANCH  10  12
HETATM   12  N   UNL     1      -9.715   6.595  70.749  1.00  0.00    -0.179 N  
HETATM   13  H   UNL     1      -9.652   6.254  71.709  1.00  0.00     0.000 HD 
BRANCH  12  14
HETATM   14  C   UNL     1      -8.919   7.669  70.297  1.00  0.00    -0.146 A  
HETATM   15  C   UNL     1      -7.364   9.934  69.834  1.00  0.00    -0.147 A  
HETATM   16  C   UNL     1      -6.573  11.120  69.698  1.00  0.00    -0.139 C  
HETATM   17  N   UNL     1      -5.935  12.083  69.596  1.00  0.00    -0.106 NA 
HETATM   18  C   UNL     1      -9.536   8.852  69.893  1.00  0.00    -0.185 A  
HETATM   19  C   UNL     1      -6.746   8.723  70.155  1.00  0.00    -0.040 A  
HETATM   20  C   UNL     1      -7.525   7.592  70.384  1.00  0.00    -0.081 A  
HETATM   21  C   UNL     1      -8.756   9.992  69.686  1.00  0.00    -0.210 A  
ENDBRANCH  12  14
ENDBRANCH  10  12
ENDBRANCH   8  10
ENDBRANCH   5   8
BRANCH   7  22
HETATM   22  C   UNL     1      -8.684   7.722  65.493  1.00  0.00    -0.072 A  
HETATM   23  N   UNL     1      -9.532   8.379  66.261  1.00  0.00    -0.263 NA 
HETATM   24  N   UNL     1      -8.394   8.445  64.360  1.00  0.00    -0.137 NA 
HETATM   25  C   UNL     1      -9.798   9.550  65.605  1.00  0.00    -0.272 A  
HETATM   26  H   UNL     1      -9.912   8.077  67.159  1.00  0.00     0.000 HD 
HETATM   27  C   UNL     1      -9.105   9.615  64.401  1.00  0.00    -0.229 A  
HETATM   28  C   UNL     1     -10.630  10.612  65.983  1.00  0.00    -0.195 A  
HETATM   29  C   UNL     1      -9.203  10.696  63.523  1.00  0.00    -0.283 A  
HETATM   30  C   UNL     1     -10.036  11.751  63.919  1.00  0.00    -0.399 A  
HETATM   31  C   UNL     1     -10.738  11.713  65.127  1.00  0.00    -0.351 A  
ENDBRANCH   7  22
TORSDOF 5
ENDMDL
MODEL      176
REMARK 921   NORMALIZED FREE ENERGY PREDICTED BY IDOCK:   -4.14 KCAL/MOL
REMARK 922        TOTAL FREE ENERGY PREDICTED BY IDOCK:   -6.12 KCAL/MOL
REMARK 923 INTER-LIGAND FREE ENERGY PREDICTED BY IDOCK:   -6.20 KCAL/MOL
REMARK 924 INTRA-LIGAND FREE ENERGY PREDICTED BY IDOCK:    0.08 KCAL/MOL
REMARK 927      BINDING AFFINITY PREDICTED BY RF-SCORE:    0.00 PKD
ROOT
HETATM    1  C   UNL     1      -5.207  10.833  69.061  1.00  0.00    -0.041 C  
HETATM    2  N   UNL     1      -6.381   9.990  68.783  1.00  0.00    -0.041 NA 
HETATM    3  C   UNL     1      -7.599  10.590  69.353  1.00  0.00    -0.145 C  
HETATM    4  C   UNL     1      -8.113  11.825  68.621  1.00  0.00    -0.104 C  
HETATM    5  C   UNL     1      -8.234  11.591  67.109  1.00  0.00    -0.161 C  
HETATM    6  C   UNL     1      -6.952  10.977  66.531  1.00  0.00    -0.138 C  
HETATM    7  C   UNL     1      -6.515   9.736  67.325  1.00  0.00    -0.069 C  
ENDROOT
BRANCH   5   8
HETATM    8  N   UNL     1      -8.637  12.815  66.412  1.00  0.00    -0.416 N  
HETATM    9  H   UNL     1      -7.926  13.475  66.099  1.00  0.00     0.000 HD 
BRANCH   8  10
HETATM   10  C   UNL     1      -9.963  13.083  66.178  1.00  0.00    -0.278 C  
HETATM   11  O   UNL     1     -10.349  13.894  65.344  1.00  0.00    -0.315 OA 
BRANCH  10  12
HETATM   12  N   UNL     1     -10.791  12.408  67.057  1.00  0.00    -0.239 N  
HETATM   13  H   UNL     1     -10.958  11.405  66.968  1.00  0.00     0.000 HD 
BRANCH  12  14
HETATM   14  C   UNL     1     -11.395  13.166  68.083  1.00  0.00    -0.292 A  
HETATM   15  C   UNL     1     -12.174  14.671  70.295  1.00  0.00    -0.389 A  
HETATM   16  C   UNL     1     -12.474  15.442  71.463  1.00  0.00    -0.384 C  
HETATM   17  N   UNL     1     -12.709  16.063  72.413  1.00  0.00    -0.443 NA 
HETATM   18  C   UNL     1     -11.876  12.515  69.218  1.00  0.00    -0.360 A  
HETATM   19  C   UNL     1     -11.771  15.317  69.123  1.00  0.00    -0.355 A  
HETATM   20  C   UNL     1     -11.385  14.563  68.019  1.00  0.00    -0.326 A  
HETATM   21  C   UNL     1     -12.242  13.272  70.334  1.00  0.00    -0.404 A  
ENDBRANCH  12  14
ENDBRANCH  10  12
ENDBRANCH   8  10
ENDBRANCH   5   8
BRANCH   7  22
HETATM   22  C   UNL     1      -7.441   8.579  67.032  1.00  0.00    -0.084 A  
HETATM   23  N   UNL     1      -7.387   7.772  65.989  1.00  0.00    -0.073 NA 
HETATM   24  N   UNL     1      -8.480   8.233  67.862  1.00  0.00    -0.131 NA 
HETATM   25  C   UNL     1      -8.419   6.888  66.151  1.00  0.00    -0.136 A  
HETATM   26  H   UNL     1      -6.715   7.800  65.222  1.00  0.00     0.000 HD 
HETATM   27  C   UNL     1      -9.132   7.159  67.313  1.00  0.00    -0.123 A  
HETATM   28  C   UNL     1      -8.811   5.819  65.333  1.00  0.00    -0.093 A  
HETATM   29  C   UNL     1     -10.245   6.419  67.715  1.00  0.00    -0.196 A  
HETATM   30  C   UNL     1     -10.620   5.353  66.888  1.00  0.00    -0.320 A  
HETATM   31  C   UNL     1      -9.916   5.054  65.717  1.00  0.00    -0.147 A  
ENDBRANCH   7  22
TORSDOF 5
ENDMDL
MODEL      177
REMARK 921   NORMALIZED FREE ENERGY PREDICTED BY IDOCK:   -4.13 KCAL/MOL
REMARK 922        TOTAL FREE ENERGY PREDICTED BY IDOCK:   -6.12 KCAL/MOL
REMARK 923 INTER-LIGAND FREE ENERGY PREDICTED BY IDOCK:   -5.83 KCAL/MOL
REMARK 924 INTRA-LIGAND FREE ENERGY PREDICTED BY IDOCK:   -0.28 KCAL/MOL
REMARK 927      BINDING AFFINITY PREDICTED BY RF-SCORE:    0.00 PKD
ROOT
HETATM    1  C   UNL     1      -6.530   9.500  68.569  1.00  0.00    -0.052 C  
HETATM    2  N   UNL     1      -7.136   8.166  68.441  1.00  0.00    -0.076 NA 
HETATM    3  C   UNL     1      -8.080   7.914  69.543  1.00  0.00    -0.121 C  
HETATM    4  C   UNL     1      -9.389   8.692  69.462  1.00  0.00    -0.153 C  
HETATM    5  C   UNL     1     -10.056   8.559  68.086  1.00  0.00    -0.200 C  
HETATM    6  C   UNL     1      -9.061   8.836  66.950  1.00  0.00    -0.169 C  
HETATM    7  C   UNL     1      -7.778   8.005  67.110  1.00  0.00    -0.101 C  
ENDROOT
BRANCH   5   8
HETATM    8  N   UNL     1     -11.259   9.389  67.996  1.00  0.00    -0.492 N  
HETATM    9  H   UNL     1     -12.179   8.953  68.055  1.00  0.00     0.000 HD 
BRANCH   8  10
HETATM   10  C   UNL     1     -11.161  10.748  67.833  1.00  0.00    -0.308 C  
HETATM   11  O   UNL     1     -11.044  11.532  68.769  1.00  0.00    -0.200 OA 
BRANCH  10  12
HETATM   12  N   UNL     1     -11.309  11.124  66.510  1.00  0.00    -0.082 N  
HETATM   13  H   UNL     1     -11.646  10.468  65.805  1.00  0.00     0.000 HD 
BRANCH  12  14
HETATM   14  C   UNL     1     -10.975  12.454  66.178  1.00  0.00    -0.286 A  
HETATM   15  C   UNL     1     -10.433  15.178  65.949  1.00  0.00    -0.350 A  
HETATM   16  C   UNL     1     -10.182  16.588  65.932  1.00  0.00    -0.349 C  
HETATM   17  N   UNL     1      -9.983  17.730  65.926  1.00  0.00    -0.561 NA 
HETATM   18  C   UNL     1     -11.973  13.315  65.722  1.00  0.00    -0.463 A  
HETATM   19  C   UNL     1      -9.414  14.298  66.322  1.00  0.00    -0.277 A  
HETATM   20  C   UNL     1      -9.687  12.937  66.434  1.00  0.00    -0.263 A  
HETATM   21  C   UNL     1     -11.705  14.683  65.633  1.00  0.00    -0.304 A  
ENDBRANCH  12  14
ENDBRANCH  10  12
ENDBRANCH   8  10
ENDBRANCH   5   8
BRANCH   7  22
HETATM   22  C   UNL     1      -8.056   6.556  66.784  1.00  0.00    -0.109 A  
HETATM   23  N   UNL     1      -7.593   5.501  67.428  1.00  0.00    -0.088 NA 
HETATM   24  N   UNL     1      -8.857   6.172  65.735  1.00  0.00    -0.150 NA 
HETATM   25  C   UNL     1      -8.106   4.413  66.775  1.00  0.00    -0.102 A  
HETATM   26  H   UNL     1      -6.981   5.497  68.244  1.00  0.00     0.000 HD 
HETATM   27  C   UNL     1      -8.896   4.803  65.699  1.00  0.00    -0.135 A  
HETATM   28  C   UNL     1      -7.934   3.049  67.049  1.00  0.00    -0.079 A  
HETATM   29  C   UNL     1      -9.532   3.894  64.852  1.00  0.00    -0.170 A  
HETATM   30  C   UNL     1      -9.353   2.535  65.143  1.00  0.00    -0.082 A  
HETATM   31  C   UNL     1      -8.570   2.117  66.223  1.00  0.00    -0.112 A  
ENDBRANCH   7  22
TORSDOF 5
ENDMDL
MODEL      178
REMARK 921   NORMALIZED FREE ENERGY PREDICTED BY IDOCK:   -4.11 KCAL/MOL
REMARK 922        TOTAL FREE ENERGY PREDICTED BY IDOCK:   -6.09 KCAL/MOL
REMARK 923 INTER-LIGAND FREE ENERGY PREDICTED BY IDOCK:   -5.31 KCAL/MOL
REMARK 924 INTRA-LIGAND FREE ENERGY PREDICTED BY IDOCK:   -0.78 KCAL/MOL
REMARK 927      BINDING AFFINITY PREDICTED BY RF-SCORE:    0.00 PKD
ROOT
HETATM    1  C   UNL     1     -10.820   7.524  69.626  1.00  0.00    -0.202 C  
HETATM    2  N   UNL     1     -10.953   8.902  69.128  1.00  0.00    -0.058 NA 
HETATM    3  C   UNL     1     -10.449   9.865  70.122  1.00  0.00    -0.285 C  
HETATM    4  C   UNL     1      -8.933   9.897  70.279  1.00  0.00    -0.094 C  
HETATM    5  C   UNL     1      -8.215  10.029  68.929  1.00  0.00    -0.121 C  
HETATM    6  C   UNL     1      -8.744   9.010  67.910  1.00  0.00    -0.129 C  
HETATM    7  C   UNL     1     -10.277   9.054  67.813  1.00  0.00    -0.230 C  
ENDROOT
BRANCH   5   8
HETATM    8  N   UNL     1      -6.761   9.961  69.091  1.00  0.00    -0.052 N  
HETATM    9  H   UNL     1      -6.154  10.368  68.380  1.00  0.00     0.000 HD 
BRANCH   8  10
HETATM   10  C   UNL     1      -6.208   9.355  70.191  1.00  0.00    -0.055 C  
HETATM   11  O   UNL     1      -6.323   9.793  71.331  1.00  0.00    -0.276 OA 
BRANCH  10  12
HETATM   12  N   UNL     1      -5.432   8.263  69.847  1.00  0.00    -0.023 N  
HETATM   13  H   UNL     1      -4.412   8.309  69.860  1.00  0.00     0.000 HD 
BRANCH  12  14
HETATM   14  C   UNL     1      -6.110   7.082  69.477  1.00  0.00    -0.030 A  
HETATM   15  C   UNL     1      -7.783   5.029  68.611  1.00  0.00    -0.078 A  
HETATM   16  C   UNL     1      -8.711   4.047  68.137  1.00  0.00    -0.101 C  
HETATM   17  N   UNL     1      -9.469   3.259  67.752  1.00  0.00    -0.196 NA 
HETATM   18  C   UNL     1      -6.991   6.490  70.381  1.00  0.00    -0.064 A  
HETATM   19  C   UNL     1      -6.838   5.569  67.735  1.00  0.00    -0.064 A  
HETATM   20  C   UNL     1      -6.002   6.594  68.171  1.00  0.00    -0.024 A  
HETATM   21  C   UNL     1      -7.846   5.479  69.936  1.00  0.00    -0.082 A  
ENDBRANCH  12  14
ENDBRANCH  10  12
ENDBRANCH   8  10
ENDBRANCH   5   8
BRANCH   7  22
HETATM   22  C   UNL     1     -10.716  10.306  67.090  1.00  0.00    -0.241 A  
HETATM   23  N   UNL     1     -11.663  11.144  67.469  1.00  0.00    -0.578 NA 
HETATM   24  N   UNL     1     -10.143  10.720  65.911  1.00  0.00    -0.247 NA 
HETATM   25  C   UNL     1     -11.704  12.117  66.507  1.00  0.00    -0.321 A  
HETATM   26  H   UNL     1     -12.244  11.079  68.305  1.00  0.00     0.000 HD 
HETATM   27  C   UNL     1     -10.768  11.872  65.509  1.00  0.00    -0.283 A  
HETATM   28  C   UNL     1     -12.526  13.249  66.423  1.00  0.00    -0.231 A  
HETATM   29  C   UNL     1     -10.605  12.701  64.397  1.00  0.00    -0.388 A  
HETATM   30  C   UNL     1     -11.432  13.830  64.331  1.00  0.00    -0.392 A  
HETATM   31  C   UNL     1     -12.376  14.103  65.325  1.00  0.00    -0.469 A  
ENDBRANCH   7  22
TORSDOF 5
ENDMDL
MODEL      179
REMARK 921   NORMALIZED FREE ENERGY PREDICTED BY IDOCK:   -4.11 KCAL/MOL
REMARK 922        TOTAL FREE ENERGY PREDICTED BY IDOCK:   -6.08 KCAL/MOL
REMARK 923 INTER-LIGAND FREE ENERGY PREDICTED BY IDOCK:   -5.41 KCAL/MOL
REMARK 924 INTRA-LIGAND FREE ENERGY PREDICTED BY IDOCK:   -0.67 KCAL/MOL
REMARK 927      BINDING AFFINITY PREDICTED BY RF-SCORE:    0.00 PKD
ROOT
HETATM    1  C   UNL     1      -9.944   8.995  70.231  1.00  0.00    -0.195 C  
HETATM    2  N   UNL     1     -10.030  10.076  69.236  1.00  0.00    -0.201 NA 
HETATM    3  C   UNL     1      -8.768  10.831  69.176  1.00  0.00    -0.091 C  
HETATM    4  C   UNL     1      -7.607  10.096  68.514  1.00  0.00    -0.088 C  
HETATM    5  C   UNL     1      -7.997   9.511  67.149  1.00  0.00    -0.102 C  
HETATM    6  C   UNL     1      -9.309   8.718  67.233  1.00  0.00    -0.181 C  
HETATM    7  C   UNL     1     -10.420   9.538  67.906  1.00  0.00    -0.241 C  
ENDROOT
BRANCH   5   8
HETATM    8  N   UNL     1      -6.901   8.729  66.573  1.00  0.00    -0.071 N  
HETATM    9  H   UNL     1      -6.656   7.827  66.980  1.00  0.00     0.000 HD 
BRANCH   8  10
HETATM   10  C   UNL     1      -6.201   9.199  65.491  1.00  0.00    -0.063 C  
HETATM   11  O   UNL     1      -6.238  10.368  65.120  1.00  0.00    -0.122 OA 
BRANCH  10  12
HETATM   12  N   UNL     1      -5.539   8.186  64.821  1.00  0.00    -0.043 N  
HETATM   13  H   UNL     1      -4.549   8.261  64.586  1.00  0.00     0.000 HD 
BRANCH  12  14
HETATM   14  C   UNL     1      -6.292   7.043  64.476  1.00  0.00    -0.036 A  
HETATM   15  C   UNL     1      -8.105   4.970  64.054  1.00  0.00    -0.119 A  
HETATM   16  C   UNL     1      -9.105   3.957  63.896  1.00  0.00    -0.129 C  
HETATM   17  N   UNL     1      -9.919   3.141  63.775  1.00  0.00    -0.152 NA 
HETATM   18  C   UNL     1      -6.270   5.932  65.318  1.00  0.00    -0.037 A  
HETATM   19  C   UNL     1      -8.063   6.046  63.164  1.00  0.00    -0.089 A  
HETATM   20  C   UNL     1      -7.155   7.080  63.376  1.00  0.00    -0.065 A  
HETATM   21  C   UNL     1      -7.197   4.907  65.119  1.00  0.00    -0.064 A  
ENDBRANCH  12  14
ENDBRANCH  10  12
ENDBRANCH   8  10
ENDBRANCH   5   8
BRANCH   7  22
HETATM   22  C   UNL     1     -10.903  10.624  66.972  1.00  0.00    -0.238 A  
HETATM   23  N   UNL     1     -11.627  11.678  67.298  1.00  0.00    -0.547 NA 
HETATM   24  N   UNL     1     -10.620  10.624  65.627  1.00  0.00    -0.161 NA 
HETATM   25  C   UNL     1     -11.818  12.370  66.133  1.00  0.00    -0.376 A  
HETATM   26  H   UNL     1     -11.972  11.926  68.225  1.00  0.00     0.000 HD 
HETATM   27  C   UNL     1     -11.206  11.726  65.063  1.00  0.00    -0.257 A  
HETATM   28  C   UNL     1     -12.513  13.567  65.914  1.00  0.00    -0.484 A  
HETATM   29  C   UNL     1     -11.256  12.209  63.754  1.00  0.00    -0.509 A  
HETATM   30  C   UNL     1     -11.951  13.409  63.554  1.00  0.00    -0.467 A  
HETATM   31  C   UNL     1     -12.569  14.079  64.614  1.00  0.00    -0.281 A  
ENDBRANCH   7  22
TORSDOF 5
ENDMDL
MODEL      180
REMARK 921   NORMALIZED FREE ENERGY PREDICTED BY IDOCK:   -4.07 KCAL/MOL
REMARK 922        TOTAL FREE ENERGY PREDICTED BY IDOCK:   -6.03 KCAL/MOL
REMARK 923 INTER-LIGAND FREE ENERGY PREDICTED BY IDOCK:   -5.66 KCAL/MOL
REMARK 924 INTRA-LIGAND FREE ENERGY PREDICTED BY IDOCK:   -0.37 KCAL/MOL
REMARK 927      BINDING AFFINITY PREDICTED BY RF-SCORE:    0.00 PKD
ROOT
HETATM    1  C   UNL     1      -9.153   6.549  67.080  1.00  0.00    -0.120 C  
HETATM    2  N   UNL     1     -10.125   7.231  67.948  1.00  0.00    -0.168 NA 
HETATM    3  C   UNL     1     -11.091   6.268  68.505  1.00  0.00    -0.308 C  
HETATM    4  C   UNL     1     -10.534   5.346  69.584  1.00  0.00    -0.361 C  
HETATM    5  C   UNL     1      -9.791   6.122  70.680  1.00  0.00    -0.179 C  
HETATM    6  C   UNL     1      -8.781   7.111  70.083  1.00  0.00    -0.141 C  
HETATM    7  C   UNL     1      -9.432   8.002  69.013  1.00  0.00    -0.151 C  
ENDROOT
BRANCH   5   8
HETATM    8  N   UNL     1      -9.181   5.214  71.655  1.00  0.00    -0.144 N  
HETATM    9  H   UNL     1      -8.686   5.596  72.460  1.00  0.00     0.000 HD 
BRANCH   8  10
HETATM   10  C   UNL     1      -9.271   3.854  71.494  1.00  0.00    -0.125 C  
HETATM   11  O   UNL     1     -10.243   3.196  71.851  1.00  0.00    -0.127 OA 
BRANCH  10  12
HETATM   12  N   UNL     1      -8.106   3.314  70.980  1.00  0.00    -0.060 N  
HETATM   13  H   UNL     1      -7.268   3.211  71.553  1.00  0.00     0.000 HD 
BRANCH  12  14
HETATM   14  C   UNL     1      -8.125   2.912  69.627  1.00  0.00    -0.044 A  
HETATM   15  C   UNL     1      -8.476   2.442  66.903  1.00  0.00    -0.104 A  
HETATM   16  C   UNL     1      -8.725   2.280  65.502  1.00  0.00    -0.121 C  
HETATM   17  N   UNL     1      -8.934   2.153  64.369  1.00  0.00    -0.106 NA 
HETATM   18  C   UNL     1      -9.062   1.966  69.210  1.00  0.00    -0.164 A  
HETATM   19  C   UNL     1      -7.481   3.324  67.332  1.00  0.00    -0.062 A  
HETATM   20  C   UNL     1      -7.307   3.556  68.694  1.00  0.00    -0.050 A  
HETATM   21  C   UNL     1      -9.252   1.752  67.843  1.00  0.00    -0.212 A  
ENDBRANCH  12  14
ENDBRANCH  10  12
ENDBRANCH   8  10
ENDBRANCH   5   8
BRANCH   7  22
HETATM   22  C   UNL     1     -10.343   9.016  69.665  1.00  0.00    -0.212 A  
HETATM   23  N   UNL     1     -11.122   8.817  70.711  1.00  0.00    -0.253 NA 
HETATM   24  N   UNL     1     -10.454  10.310  69.215  1.00  0.00    -0.213 NA 
HETATM   25  C   UNL     1     -11.753  10.010  70.937  1.00  0.00    -0.374 A  
HETATM   26  H   UNL     1     -11.231   7.953  71.243  1.00  0.00     0.000 HD 
HETATM   27  C   UNL     1     -11.363  10.965  70.005  1.00  0.00    -0.307 A  
HETATM   28  C   UNL     1     -12.684  10.350  71.928  1.00  0.00    -0.459 A  
HETATM   29  C   UNL     1     -11.864  12.268  69.994  1.00  0.00    -0.372 A  
HETATM   30  C   UNL     1     -12.789  12.592  70.994  1.00  0.00    -0.246 A  
HETATM   31  C   UNL     1     -13.193  11.652  71.947  1.00  0.00    -0.475 A  
ENDBRANCH   7  22
TORSDOF 5
ENDMDL
MODEL      181
REMARK 921   NORMALIZED FREE ENERGY PREDICTED BY IDOCK:   -4.06 KCAL/MOL
REMARK 922        TOTAL FREE ENERGY PREDICTED BY IDOCK:   -6.02 KCAL/MOL
REMARK 923 INTER-LIGAND FREE ENERGY PREDICTED BY IDOCK:   -5.39 KCAL/MOL
REMARK 924 INTRA-LIGAND FREE ENERGY PREDICTED BY IDOCK:   -0.62 KCAL/MOL
REMARK 927      BINDING AFFINITY PREDICTED BY RF-SCORE:    0.00 PKD
ROOT
HETATM    1  C   UNL     1     -10.757   9.111  69.352  1.00  0.00    -0.198 C  
HETATM    2  N   UNL     1     -10.801   7.780  69.976  1.00  0.00    -0.248 NA 
HETATM    3  C   UNL     1     -11.375   6.789  69.050  1.00  0.00    -0.081 C  
HETATM    4  C   UNL     1     -10.469   6.390  67.890  1.00  0.00    -0.276 C  
HETATM    5  C   UNL     1      -9.063   5.995  68.364  1.00  0.00    -0.112 C  
HETATM    6  C   UNL     1      -8.477   7.045  69.319  1.00  0.00    -0.133 C  
HETATM    7  C   UNL     1      -9.454   7.378  70.457  1.00  0.00    -0.161 C  
ENDROOT
BRANCH   5   8
HETATM    8  N   UNL     1      -8.181   5.709  67.231  1.00  0.00    -0.102 N  
HETATM    9  H   UNL     1      -7.411   5.050  67.344  1.00  0.00     0.000 HD 
BRANCH   8  10
HETATM   10  C   UNL     1      -8.381   6.318  66.017  1.00  0.00    -0.138 C  
HETATM   11  O   UNL     1      -9.077   5.838  65.129  1.00  0.00    -0.024 OA 
BRANCH  10  12
HETATM   12  N   UNL     1      -7.631   7.473  65.887  1.00  0.00    -0.085 N  
HETATM   13  H   UNL     1      -6.629   7.482  66.079  1.00  0.00     0.000 HD 
BRANCH  12  14
HETATM   14  C   UNL     1      -8.311   8.640  65.477  1.00  0.00    -0.150 A  
HETATM   15  C   UNL     1      -9.918  10.661  64.429  1.00  0.00    -0.415 A  
HETATM   16  C   UNL     1     -10.799  11.625  63.843  1.00  0.00    -0.405 C  
HETATM   17  N   UNL     1     -11.516  12.399  63.362  1.00  0.00    -0.462 NA 
HETATM   18  C   UNL     1      -7.936   9.266  64.289  1.00  0.00    -0.135 A  
HETATM   19  C   UNL     1     -10.240  10.088  65.662  1.00  0.00    -0.258 A  
HETATM   20  C   UNL     1      -9.435   9.080  66.185  1.00  0.00    -0.318 A  
HETATM   21  C   UNL     1      -8.758  10.261  63.754  1.00  0.00    -0.211 A  
ENDBRANCH  12  14
ENDBRANCH  10  12
ENDBRANCH   8  10
ENDBRANCH   5   8
BRANCH   7  22
HETATM   22  C   UNL     1      -9.519   6.230  71.438  1.00  0.00    -0.156 A  
HETATM   23  N   UNL     1     -10.599   5.765  72.035  1.00  0.00    -0.218 NA 
HETATM   24  N   UNL     1      -8.406   5.520  71.823  1.00  0.00    -0.119 NA 
HETATM   25  C   UNL     1     -10.171   4.734  72.827  1.00  0.00    -0.182 A  
HETATM   26  H   UNL     1     -11.556   6.103  71.929  1.00  0.00     0.000 HD 
HETATM   27  C   UNL     1      -8.795   4.563  72.723  1.00  0.00    -0.112 A  
HETATM   28  C   UNL     1     -10.911   3.893  73.670  1.00  0.00    -0.337 A  
HETATM   29  C   UNL     1      -8.093   3.589  73.435  1.00  0.00    -0.075 A  
HETATM   30  C   UNL     1      -8.849   2.756  74.269  1.00  0.00    -0.080 A  
HETATM   31  C   UNL     1     -10.234   2.901  74.386  1.00  0.00    -0.203 A  
ENDBRANCH   7  22
TORSDOF 5
ENDMDL
MODEL      182
REMARK 921   NORMALIZED FREE ENERGY PREDICTED BY IDOCK:   -4.06 KCAL/MOL
REMARK 922        TOTAL FREE ENERGY PREDICTED BY IDOCK:   -6.01 KCAL/MOL
REMARK 923 INTER-LIGAND FREE ENERGY PREDICTED BY IDOCK:   -4.84 KCAL/MOL
REMARK 924 INTRA-LIGAND FREE ENERGY PREDICTED BY IDOCK:   -1.18 KCAL/MOL
REMARK 927      BINDING AFFINITY PREDICTED BY RF-SCORE:    0.00 PKD
ROOT
HETATM    1  C   UNL     1      -5.145  12.458  70.043  1.00  0.00    -0.086 C  
HETATM    2  N   UNL     1      -5.669  11.549  69.011  1.00  0.00    -0.047 NA 
HETATM    3  C   UNL     1      -7.124  11.376  69.161  1.00  0.00    -0.115 C  
HETATM    4  C   UNL     1      -7.963  12.582  68.753  1.00  0.00     0.060 C  
HETATM    5  C   UNL     1      -7.582  13.107  67.362  1.00  0.00    -0.131 C  
HETATM    6  C   UNL     1      -6.065  13.293  67.228  1.00  0.00     0.195 C  
HETATM    7  C   UNL     1      -5.303  12.028  67.652  1.00  0.00    -0.080 C  
ENDROOT
BRANCH   5   8
HETATM    8  N   UNL     1      -8.331  14.321  67.029  1.00  0.00    -0.351 N  
HETATM    9  H   UNL     1      -7.922  15.235  67.220  1.00  0.00     0.000 HD 
BRANCH   8  10
HETATM   10  C   UNL     1      -9.579  14.240  66.462  1.00  0.00    -0.297 C  
HETATM   11  O   UNL     1     -10.564  14.809  66.919  1.00  0.00    -0.284 OA 
BRANCH  10  12
HETATM   12  N   UNL     1      -9.605  13.368  65.388  1.00  0.00    -0.506 N  
HETATM   13  H   UNL     1      -9.388  13.683  64.442  1.00  0.00     0.000 HD 
BRANCH  12  14
HETATM   14  C   UNL     1      -9.944  12.025  65.657  1.00  0.00    -0.245 A  
HETATM   15  C   UNL     1     -10.284   9.392  66.501  1.00  0.00    -0.308 A  
HETATM   16  C   UNL     1     -10.384   8.055  67.005  1.00  0.00    -0.344 C  
HETATM   17  N   UNL     1     -10.457   6.974  67.417  1.00  0.00    -0.239 NA 
HETATM   18  C   UNL     1      -9.249  11.004  65.010  1.00  0.00    -0.219 A  
HETATM   19  C   UNL     1     -11.041  10.411  67.086  1.00  0.00    -0.195 A  
HETATM   20  C   UNL     1     -10.870  11.725  66.661  1.00  0.00    -0.318 A  
HETATM   21  C   UNL     1      -9.403   9.688  65.453  1.00  0.00    -0.320 A  
ENDBRANCH  12  14
ENDBRANCH  10  12
ENDBRANCH   8  10
ENDBRANCH   5   8
BRANCH   7  22
HETATM   22  C   UNL     1      -5.466  10.949  66.607  1.00  0.00    -0.082 A  
HETATM   23  N   UNL     1      -5.525  11.121  65.300  1.00  0.00    -0.493 NA 
HETATM   24  N   UNL     1      -5.570   9.616  66.927  1.00  0.00    -0.046 NA 
HETATM   25  C   UNL     1      -5.676   9.870  64.767  1.00  0.00    -0.093 A  
HETATM   26  H   UNL     1      -5.470  12.004  64.792  1.00  0.00     0.000 HD 
HETATM   27  C   UNL     1      -5.719   8.904  65.766  1.00  0.00    -0.050 A  
HETATM   28  C   UNL     1      -5.787   9.483  63.424  1.00  0.00    -0.092 A  
HETATM   29  C   UNL     1      -5.881   7.542  65.503  1.00  0.00    -0.037 A  
HETATM   30  C   UNL     1      -5.985   7.173  64.155  1.00  0.00    -0.037 A  
HETATM   31  C   UNL     1      -5.938   8.123  63.132  1.00  0.00    -0.076 A  
ENDBRANCH   7  22
TORSDOF 5
ENDMDL
MODEL      183
REMARK 921   NORMALIZED FREE ENERGY PREDICTED BY IDOCK:   -4.04 KCAL/MOL
REMARK 922        TOTAL FREE ENERGY PREDICTED BY IDOCK:   -6.00 KCAL/MOL
REMARK 923 INTER-LIGAND FREE ENERGY PREDICTED BY IDOCK:   -5.13 KCAL/MOL
REMARK 924 INTRA-LIGAND FREE ENERGY PREDICTED BY IDOCK:   -0.87 KCAL/MOL
REMARK 927      BINDING AFFINITY PREDICTED BY RF-SCORE:    0.00 PKD
ROOT
HETATM    1  C   UNL     1     -10.782   9.721  70.811  1.00  0.00    -0.323 C  
HETATM    2  N   UNL     1     -11.270  10.244  69.525  1.00  0.00    -0.253 NA 
HETATM    3  C   UNL     1     -12.532  10.980  69.707  1.00  0.00    -0.183 C  
HETATM    4  C   UNL     1     -12.396  12.336  70.391  1.00  0.00    -0.309 C  
HETATM    5  C   UNL     1     -11.309  13.203  69.741  1.00  0.00    -0.049 C  
HETATM    6  C   UNL     1      -9.997  12.425  69.570  1.00  0.00     1.013 C  
HETATM    7  C   UNL     1     -10.230  11.078  68.868  1.00  0.00    -0.203 C  
ENDROOT
BRANCH   5   8
HETATM    8  N   UNL     1     -11.127  14.461  70.470  1.00  0.00    -0.486 N  
HETATM    9  H   UNL     1     -10.982  14.444  71.479  1.00  0.00     0.000 HD 
BRANCH   8  10
HETATM   10  C   UNL     1     -11.150  15.663  69.806  1.00  0.00    -0.313 C  
HETATM   11  O   UNL     1     -12.133  16.079  69.202  1.00  0.00    -0.293 OA 
BRANCH  10  12
HETATM   12  N   UNL     1      -9.916  16.287  69.820  1.00  0.00    -0.139 N  
HETATM   13  H   UNL     1      -9.764  17.156  70.333  1.00  0.00     0.000 HD 
BRANCH  12  14
HETATM   14  C   UNL     1      -8.875  15.671  69.093  1.00  0.00    -0.251 A  
HETATM   15  C   UNL     1      -7.018  14.063  67.777  1.00  0.00    -0.188 A  
HETATM   16  C   UNL     1      -6.120  13.154  67.131  1.00  0.00     0.375 C  
HETATM   17  N   UNL     1      -5.396  12.411  66.614  1.00  0.00    -0.224 NA 
HETATM   18  C   UNL     1      -7.720  15.270  69.763  1.00  0.00    -0.079 A  
HETATM   19  C   UNL     1      -8.136  14.539  67.086  1.00  0.00    -0.196 A  
HETATM   20  C   UNL     1      -9.061  15.344  67.745  1.00  0.00    -0.178 A  
HETATM   21  C   UNL     1      -6.804  14.443  69.108  1.00  0.00    -0.120 A  
ENDBRANCH  12  14
ENDBRANCH  10  12
ENDBRANCH   8  10
ENDBRANCH   5   8
BRANCH   7  22
HETATM   22  C   UNL     1     -10.522  11.301  67.402  1.00  0.00    -0.212 A  
HETATM   23  N   UNL     1     -11.590  11.885  66.892  1.00  0.00    -0.534 NA 
HETATM   24  N   UNL     1      -9.664  10.901  66.406  1.00  0.00    -0.195 NA 
HETATM   25  C   UNL     1     -11.417  11.856  65.535  1.00  0.00    -0.252 A  
HETATM   26  H   UNL     1     -12.381  12.278  67.403  1.00  0.00     0.000 HD 
HETATM   27  C   UNL     1     -10.220  11.234  65.198  1.00  0.00    -0.289 A  
HETATM   28  C   UNL     1     -12.251  12.347  64.521  1.00  0.00    -0.509 A  
HETATM   29  C   UNL     1      -9.799  11.055  63.879  1.00  0.00    -0.368 A  
HETATM   30  C   UNL     1     -10.643  11.555  62.879  1.00  0.00    -0.050 A  
HETATM   31  C   UNL     1     -11.848  12.192  63.191  1.00  0.00    -0.320 A  
ENDBRANCH   7  22
TORSDOF 5
ENDMDL
MODEL      184
REMARK 921   NORMALIZED FREE ENERGY PREDICTED BY IDOCK:   -4.03 KCAL/MOL
REMARK 922        TOTAL FREE ENERGY PREDICTED BY IDOCK:   -5.99 KCAL/MOL
REMARK 923 INTER-LIGAND FREE ENERGY PREDICTED BY IDOCK:   -5.56 KCAL/MOL
REMARK 924 INTRA-LIGAND FREE ENERGY PREDICTED BY IDOCK:   -0.42 KCAL/MOL
REMARK 927      BINDING AFFINITY PREDICTED BY RF-SCORE:    0.00 PKD
ROOT
HETATM    1  C   UNL     1     -12.230  13.983  66.279  1.00  0.00    -0.462 C  
HETATM    2  N   UNL     1     -11.038  13.227  65.867  1.00  0.00    -0.284 NA 
HETATM    3  C   UNL     1      -9.872  13.608  66.682  1.00  0.00    -0.284 C  
HETATM    4  C   UNL     1      -9.895  13.100  68.120  1.00  0.00    -0.228 C  
HETATM    5  C   UNL     1     -10.187  11.594  68.194  1.00  0.00    -0.197 C  
HETATM    6  C   UNL     1     -11.411  11.217  67.349  1.00  0.00    -0.261 C  
HETATM    7  C   UNL     1     -11.297  11.764  65.918  1.00  0.00    -0.263 C  
ENDROOT
BRANCH   5   8
HETATM    8  N   UNL     1     -10.300  11.143  69.583  1.00  0.00    -0.440 N  
HETATM    9  H   UNL     1     -10.706  11.763  70.284  1.00  0.00     0.000 HD 
BRANCH   8  10
HETATM   10  C   UNL     1      -9.865   9.895  69.951  1.00  0.00    -0.245 C  
HETATM   11  O   UNL     1      -9.737   8.966  69.160  1.00  0.00    -0.163 OA 
BRANCH  10  12
HETATM   12  N   UNL     1      -9.688   9.788  71.319  1.00  0.00    -0.032 N  
HETATM   13  H   UNL     1      -9.996  10.525  71.954  1.00  0.00     0.000 HD 
BRANCH  12  14
HETATM   14  C   UNL     1      -9.064   8.617  71.798  1.00  0.00    -0.247 A  
HETATM   15  C   UNL     1      -7.748   6.214  72.307  1.00  0.00    -0.100 A  
HETATM   16  C   UNL     1      -7.055   4.971  72.465  1.00  0.00    -0.082 C  
HETATM   17  N   UNL     1      -6.495   3.963  72.584  1.00  0.00    -0.020 NA 
HETATM   18  C   UNL     1      -9.801   7.436  71.881  1.00  0.00    -0.187 A  
HETATM   19  C   UNL     1      -7.029   7.412  72.307  1.00  0.00    -0.063 A  
HETATM   20  C   UNL     1      -7.689   8.611  72.054  1.00  0.00    -0.096 A  
HETATM   21  C   UNL     1      -9.135   6.230  72.111  1.00  0.00    -0.141 A  
ENDBRANCH  12  14
ENDBRANCH  10  12
ENDBRANCH   8  10
ENDBRANCH   5   8
BRANCH   7  22
HETATM   22  C   UNL     1     -10.268  10.977  65.141  1.00  0.00    -0.291 A  
HETATM   23  N   UNL     1      -9.603  11.384  64.077  1.00  0.00    -0.349 NA 
HETATM   24  N   UNL     1      -9.901   9.697  65.484  1.00  0.00    -0.313 NA 
HETATM   25  C   UNL     1      -8.792  10.340  63.723  1.00  0.00    -0.221 A  
HETATM   26  H   UNL     1      -9.677  12.290  63.613  1.00  0.00     0.000 HD 
HETATM   27  C   UNL     1      -8.965   9.260  64.582  1.00  0.00    -0.154 A  
HETATM   28  C   UNL     1      -7.876  10.244  62.667  1.00  0.00    -0.155 A  
HETATM   29  C   UNL     1      -8.272   8.057  64.443  1.00  0.00    -0.085 A  
HETATM   30  C   UNL     1      -7.357   7.980  63.385  1.00  0.00    -0.107 A  
HETATM   31  C   UNL     1      -7.159   9.053  62.511  1.00  0.00    -0.094 A  
ENDBRANCH   7  22
TORSDOF 5
ENDMDL
MODEL      185
REMARK 921   NORMALIZED FREE ENERGY PREDICTED BY IDOCK:   -4.03 KCAL/MOL
REMARK 922        TOTAL FREE ENERGY PREDICTED BY IDOCK:   -5.98 KCAL/MOL
REMARK 923 INTER-LIGAND FREE ENERGY PREDICTED BY IDOCK:   -5.69 KCAL/MOL
REMARK 924 INTRA-LIGAND FREE ENERGY PREDICTED BY IDOCK:   -0.29 KCAL/MOL
REMARK 927      BINDING AFFINITY PREDICTED BY RF-SCORE:    0.00 PKD
ROOT
HETATM    1  C   UNL     1      -6.669  16.136  67.221  1.00  0.00    -0.198 C  
HETATM    2  N   UNL     1      -8.005  15.642  67.590  1.00  0.00    -0.143 NA 
HETATM    3  C   UNL     1      -8.470  14.629  66.627  1.00  0.00    -0.017 C  
HETATM    4  C   UNL     1      -7.769  13.279  66.723  1.00  0.00     0.484 C  
HETATM    5  C   UNL     1      -7.742  12.743  68.161  1.00  0.00    -0.137 C  
HETATM    6  C   UNL     1      -7.244  13.807  69.148  1.00  0.00    -0.016 C  
HETATM    7  C   UNL     1      -8.011  15.129  68.984  1.00  0.00    -0.188 C  
ENDROOT
BRANCH   5   8
HETATM    8  N   UNL     1      -6.982  11.493  68.249  1.00  0.00    -0.069 N  
HETATM    9  H   UNL     1      -6.194  11.426  68.892  1.00  0.00     0.000 HD 
BRANCH   8  10
HETATM   10  C   UNL     1      -7.321  10.413  67.473  1.00  0.00    -0.092 C  
HETATM   11  O   UNL     1      -6.563   9.911  66.649  1.00  0.00    -0.069 OA 
BRANCH  10  12
HETATM   12  N   UNL     1      -8.637  10.032  67.660  1.00  0.00    -0.118 N  
HETATM   13  H   UNL     1      -8.904   9.388  68.406  1.00  0.00     0.000 HD 
BRANCH  12  14
HETATM   14  C   UNL     1      -9.596  10.572  66.777  1.00  0.00    -0.170 A  
HETATM   15  C   UNL     1     -11.246  12.022  65.063  1.00  0.00    -0.374 A  
HETATM   16  C   UNL     1     -12.029  12.848  64.194  1.00  0.00    -0.423 C  
HETATM   17  N   UNL     1     -12.658  13.524  63.493  1.00  0.00    -0.738 NA 
HETATM   18  C   UNL     1     -10.696  11.252  67.298  1.00  0.00    -0.295 A  
HETATM   19  C   UNL     1     -10.192  11.268  64.539  1.00  0.00    -0.370 A  
HETATM   20  C   UNL     1      -9.371  10.544  65.397  1.00  0.00    -0.255 A  
HETATM   21  C   UNL     1     -11.506  11.998  66.439  1.00  0.00    -0.417 A  
ENDBRANCH  12  14
ENDBRANCH  10  12
ENDBRANCH   8  10
ENDBRANCH   5   8
BRANCH   7  22
HETATM   22  C   UNL     1      -9.412  14.987  69.532  1.00  0.00    -0.073 A  
HETATM   23  N   UNL     1     -10.174  13.911  69.479  1.00  0.00    -0.322 NA 
HETATM   24  N   UNL     1     -10.065  16.013  70.174  1.00  0.00    -0.055 NA 
HETATM   25  C   UNL     1     -11.346  14.254  70.097  1.00  0.00    -0.129 A  
HETATM   26  H   UNL     1      -9.938  13.009  69.064  1.00  0.00     0.000 HD 
HETATM   27  C   UNL     1     -11.312  15.574  70.534  1.00  0.00    -0.351 A  
HETATM   28  C   UNL     1     -12.493  13.481  70.320  1.00  0.00    -0.309 A  
HETATM   29  C   UNL     1     -12.382  16.188  71.186  1.00  0.00    -0.125 A  
HETATM   30  C   UNL     1     -13.519  15.400  71.404  1.00  0.00    -0.607 A  
HETATM   31  C   UNL     1     -13.576  14.069  70.981  1.00  0.00    -0.115 A  
ENDBRANCH   7  22
TORSDOF 5
ENDMDL
MODEL      186
REMARK 921   NORMALIZED FREE ENERGY PREDICTED BY IDOCK:   -4.00 KCAL/MOL
REMARK 922        TOTAL FREE ENERGY PREDICTED BY IDOCK:   -5.94 KCAL/MOL
REMARK 923 INTER-LIGAND FREE ENERGY PREDICTED BY IDOCK:   -5.63 KCAL/MOL
REMARK 924 INTRA-LIGAND FREE ENERGY PREDICTED BY IDOCK:   -0.31 KCAL/MOL
REMARK 927      BINDING AFFINITY PREDICTED BY RF-SCORE:    0.00 PKD
ROOT
HETATM    1  C   UNL     1     -12.733  10.593  69.856  1.00  0.00    -0.015 C  
HETATM    2  N   UNL     1     -11.751  11.633  69.511  1.00  0.00    -0.316 NA 
HETATM    3  C   UNL     1     -10.393  11.216  69.899  1.00  0.00     0.430 C  
HETATM    4  C   UNL     1      -9.780  10.123  69.029  1.00  0.00    -0.212 C  
HETATM    5  C   UNL     1      -9.881  10.452  67.533  1.00  0.00    -0.172 C  
HETATM    6  C   UNL     1     -11.305  10.873  67.145  1.00  0.00    -0.168 C  
HETATM    7  C   UNL     1     -11.836  11.980  68.069  1.00  0.00    -0.269 C  
ENDROOT
BRANCH   5   8
HETATM    8  N   UNL     1      -9.376   9.350  66.711  1.00  0.00    -0.151 N  
HETATM    9  H   UNL     1      -8.739   9.546  65.939  1.00  0.00     0.000 HD 
BRANCH   8  10
HETATM   10  C   UNL     1      -9.751   8.055  66.971  1.00  0.00    -0.211 C  
HETATM   11  O   UNL     1     -10.909   7.660  66.887  1.00  0.00    -0.328 OA 
BRANCH  10  12
HETATM   12  N   UNL     1      -8.693   7.290  67.428  1.00  0.00    -0.121 N  
HETATM   13  H   UNL     1      -7.795   7.279  66.943  1.00  0.00     0.000 HD 
BRANCH  12  14
HETATM   14  C   UNL     1      -8.909   6.525  68.594  1.00  0.00    -0.121 A  
HETATM   15  C   UNL     1      -9.727   5.241  70.928  1.00  0.00    -0.244 A  
HETATM   16  C   UNL     1     -10.235   4.638  72.122  1.00  0.00    -0.193 C  
HETATM   17  N   UNL     1     -10.653   4.156  73.090  1.00  0.00    -0.173 NA 
HETATM   18  C   UNL     1      -8.528   7.045  69.831  1.00  0.00    -0.140 A  
HETATM   19  C   UNL     1     -10.031   4.681  69.685  1.00  0.00    -0.281 A  
HETATM   20  C   UNL     1      -9.620   5.323  68.520  1.00  0.00    -0.180 A  
HETATM   21  C   UNL     1      -8.961   6.412  70.998  1.00  0.00    -0.146 A  
ENDBRANCH  12  14
ENDBRANCH  10  12
ENDBRANCH   8  10
ENDBRANCH   5   8
BRANCH   7  22
HETATM   22  C   UNL     1     -11.149  13.290  67.758  1.00  0.00    -0.265 A  
HETATM   23  N   UNL     1     -10.182  13.483  66.881  1.00  0.00    -0.253 NA 
HETATM   24  N   UNL     1     -11.479  14.467  68.385  1.00  0.00    -0.286 NA 
HETATM   25  C   UNL     1      -9.880  14.816  66.949  1.00  0.00    -0.243 A  
HETATM   26  H   UNL     1      -9.749  12.783  66.277  1.00  0.00     0.000 HD 
HETATM   27  C   UNL     1     -10.671  15.459  67.894  1.00  0.00    -0.286 A  
HETATM   28  C   UNL     1      -8.929  15.550  66.227  1.00  0.00    -0.362 A  
HETATM   29  C   UNL     1     -10.563  16.822  68.178  1.00  0.00    -0.350 A  
HETATM   30  C   UNL     1      -9.611  17.541  67.444  1.00  0.00    -0.265 A  
HETATM   31  C   UNL     1      -8.808  16.919  66.483  1.00  0.00    -0.305 A  
ENDBRANCH   7  22
TORSDOF 5
ENDMDL
MODEL      187
REMARK 921   NORMALIZED FREE ENERGY PREDICTED BY IDOCK:   -3.99 KCAL/MOL
REMARK 922        TOTAL FREE ENERGY PREDICTED BY IDOCK:   -5.93 KCAL/MOL
REMARK 923 INTER-LIGAND FREE ENERGY PREDICTED BY IDOCK:   -5.55 KCAL/MOL
REMARK 924 INTRA-LIGAND FREE ENERGY PREDICTED BY IDOCK:   -0.38 KCAL/MOL
REMARK 927      BINDING AFFINITY PREDICTED BY RF-SCORE:    0.00 PKD
ROOT
HETATM    1  C   UNL     1     -11.222  10.594  67.461  1.00  0.00    -0.253 C  
HETATM    2  N   UNL     1     -10.856   9.384  68.215  1.00  0.00    -0.162 NA 
HETATM    3  C   UNL     1      -9.850   8.598  67.482  1.00  0.00    -0.180 C  
HETATM    4  C   UNL     1      -8.450   9.202  67.459  1.00  0.00    -0.116 C  
HETATM    5  C   UNL     1      -7.968   9.595  68.862  1.00  0.00    -0.089 C  
HETATM    6  C   UNL     1      -9.024  10.424  69.607  1.00  0.00    -0.061 C  
HETATM    7  C   UNL     1     -10.398   9.736  69.584  1.00  0.00    -0.238 C  
ENDROOT
BRANCH   5   8
HETATM    8  N   UNL     1      -6.664  10.260  68.810  1.00  0.00    -0.052 N  
HETATM    9  H   UNL     1      -5.815   9.701  68.732  1.00  0.00     0.000 HD 
BRANCH   8  10
HETATM   10  C   UNL     1      -6.574  11.628  68.865  1.00  0.00    -0.079 C  
HETATM   11  O   UNL     1      -6.362  12.248  69.901  1.00  0.00    -0.130 OA 
BRANCH  10  12
HETATM   12  N   UNL     1      -6.849  12.216  67.643  1.00  0.00    -0.105 N  
HETATM   13  H   UNL     1      -6.575  11.772  66.765  1.00  0.00     0.000 HD 
BRANCH  12  14
HETATM   14  C   UNL     1      -7.524  13.455  67.661  1.00  0.00    -0.178 A  
HETATM   15  C   UNL     1      -8.816  15.874  68.150  1.00  0.00    -0.176 A  
HETATM   16  C   UNL     1      -9.463  17.102  68.503  1.00  0.00    -0.282 C  
HETATM   17  N   UNL     1      -9.987  18.093  68.797  1.00  0.00    -0.380 NA 
HETATM   18  C   UNL     1      -8.911  13.474  67.802  1.00  0.00    -0.198 A  
HETATM   19  C   UNL     1      -7.438  15.858  67.923  1.00  0.00    -0.145 A  
HETATM   20  C   UNL     1      -6.795  14.649  67.677  1.00  0.00    -0.204 A  
HETATM   21  C   UNL     1      -9.552  14.685  68.072  1.00  0.00    -0.212 A  
ENDBRANCH  12  14
ENDBRANCH  10  12
ENDBRANCH   8  10
ENDBRANCH   5   8
BRANCH   7  22
HETATM   22  C   UNL     1     -10.395   8.539  70.508  1.00  0.00    -0.200 A  
HETATM   23  N   UNL     1     -10.236   7.277  70.160  1.00  0.00    -0.200 NA 
HETATM   24  N   UNL     1     -10.563   8.652  71.867  1.00  0.00    -0.314 NA 
HETATM   25  C   UNL     1     -10.308   6.559  71.323  1.00  0.00    -0.204 A  
HETATM   26  H   UNL     1     -10.090   6.910  69.219  1.00  0.00     0.000 HD 
HETATM   27  C   UNL     1     -10.524   7.395  72.413  1.00  0.00    -0.233 A  
HETATM   28  C   UNL     1     -10.199   5.176  71.523  1.00  0.00    -0.274 A  
HETATM   29  C   UNL     1     -10.652   6.925  73.721  1.00  0.00    -0.333 A  
HETATM   30  C   UNL     1     -10.536   5.541  73.902  1.00  0.00    -0.308 A  
HETATM   31  C   UNL     1     -10.311   4.679  72.825  1.00  0.00    -0.244 A  
ENDBRANCH   7  22
TORSDOF 5
ENDMDL
MODEL      188
REMARK 921   NORMALIZED FREE ENERGY PREDICTED BY IDOCK:   -3.95 KCAL/MOL
REMARK 922        TOTAL FREE ENERGY PREDICTED BY IDOCK:   -5.88 KCAL/MOL
REMARK 923 INTER-LIGAND FREE ENERGY PREDICTED BY IDOCK:   -6.25 KCAL/MOL
REMARK 924 INTRA-LIGAND FREE ENERGY PREDICTED BY IDOCK:    0.37 KCAL/MOL
REMARK 927      BINDING AFFINITY PREDICTED BY RF-SCORE:    0.00 PKD
ROOT
HETATM    1  C   UNL     1      -7.182   9.248  66.599  1.00  0.00    -0.082 C  
HETATM    2  N   UNL     1      -8.273  10.058  66.036  1.00  0.00    -0.123 NA 
HETATM    3  C   UNL     1      -9.421   9.209  65.676  1.00  0.00    -0.240 C  
HETATM    4  C   UNL     1     -10.218   8.667  66.858  1.00  0.00    -0.367 C  
HETATM    5  C   UNL     1     -10.604   9.774  67.850  1.00  0.00    -0.259 C  
HETATM    6  C   UNL     1      -9.394  10.641  68.222  1.00  0.00    -0.156 C  
HETATM    7  C   UNL     1      -8.658  11.147  66.971  1.00  0.00    -0.147 C  
ENDROOT
BRANCH   5   8
HETATM    8  N   UNL     1     -11.285   9.222  69.023  1.00  0.00    -0.442 N  
HETATM    9  H   UNL     1     -12.291   9.349  69.130  1.00  0.00     0.000 HD 
BRANCH   8  10
HETATM   10  C   UNL     1     -10.581   8.534  69.980  1.00  0.00    -0.227 C  
HETATM   11  O   UNL     1     -10.487   8.907  71.145  1.00  0.00    -0.222 OA 
BRANCH  10  12
HETATM   12  N   UNL     1      -9.919   7.441  69.452  1.00  0.00    -0.173 N  
HETATM   13  H   UNL     1      -9.823   7.312  68.444  1.00  0.00     0.000 HD 
BRANCH  12  14
HETATM   14  C   UNL     1      -9.381   6.510  70.367  1.00  0.00    -0.162 A  
HETATM   15  C   UNL     1      -8.359   5.007  72.479  1.00  0.00    -0.117 A  
HETATM   16  C   UNL     1      -7.851   4.317  73.626  1.00  0.00    -0.086 C  
HETATM   17  N   UNL     1      -7.439   3.767  74.559  1.00  0.00    -0.061 NA 
HETATM   18  C   UNL     1      -8.005   6.494  70.593  1.00  0.00    -0.111 A  
HETATM   19  C   UNL     1      -9.726   4.961  72.192  1.00  0.00    -0.213 A  
HETATM   20  C   UNL     1     -10.233   5.711  71.135  1.00  0.00    -0.280 A  
HETATM   21  C   UNL     1      -7.499   5.760  71.669  1.00  0.00    -0.094 A  
ENDBRANCH  12  14
ENDBRANCH  10  12
ENDBRANCH   8  10
ENDBRANCH   5   8
BRANCH   7  22
HETATM   22  C   UNL     1      -9.473  12.222  66.289  1.00  0.00    -0.231 A  
HETATM   23  N   UNL     1     -10.446  12.038  65.417  1.00  0.00    -0.264 NA 
HETATM   24  N   UNL     1      -9.274  13.562  66.521  1.00  0.00    -0.217 NA 
HETATM   25  C   UNL     1     -10.880  13.290  65.076  1.00  0.00    -0.322 A  
HETATM   26  H   UNL     1     -10.801  11.147  65.069  1.00  0.00     0.000 HD 
HETATM   27  C   UNL     1     -10.155  14.270  65.745  1.00  0.00    -0.335 A  
HETATM   28  C   UNL     1     -11.899  13.667  64.190  1.00  0.00    -0.463 A  
HETATM   29  C   UNL     1     -10.381  15.636  65.573  1.00  0.00    -0.421 A  
HETATM   30  C   UNL     1     -11.406  15.995  64.687  1.00  0.00    -0.312 A  
HETATM   31  C   UNL     1     -12.155  15.030  64.008  1.00  0.00    -0.119 A  
ENDBRANCH   7  22
TORSDOF 5
ENDMDL
MODEL      189
REMARK 921   NORMALIZED FREE ENERGY PREDICTED BY IDOCK:   -3.92 KCAL/MOL
REMARK 922        TOTAL FREE ENERGY PREDICTED BY IDOCK:   -5.84 KCAL/MOL
REMARK 923 INTER-LIGAND FREE ENERGY PREDICTED BY IDOCK:   -5.03 KCAL/MOL
REMARK 924 INTRA-LIGAND FREE ENERGY PREDICTED BY IDOCK:   -0.81 KCAL/MOL
REMARK 927      BINDING AFFINITY PREDICTED BY RF-SCORE:    0.00 PKD
ROOT
HETATM    1  C   UNL     1     -12.148  14.269  66.401  1.00  0.00    -0.419 C  
HETATM    2  N   UNL     1     -11.158  13.241  66.043  1.00  0.00    -0.282 NA 
HETATM    3  C   UNL     1      -9.865  13.859  65.703  1.00  0.00    -0.205 C  
HETATM    4  C   UNL     1      -9.088  14.423  66.888  1.00  0.00    -0.269 C  
HETATM    5  C   UNL     1      -8.963  13.407  68.032  1.00  0.00    -0.190 C  
HETATM    6  C   UNL     1     -10.321  12.783  68.381  1.00  0.00    -0.248 C  
HETATM    7  C   UNL     1     -11.026  12.236  67.130  1.00  0.00    -0.262 C  
ENDROOT
BRANCH   5   8
HETATM    8  N   UNL     1      -8.298  13.997  69.196  1.00  0.00    -0.342 N  
HETATM    9  H   UNL     1      -8.856  14.448  69.921  1.00  0.00     0.000 HD 
BRANCH   8  10
HETATM   10  C   UNL     1      -6.932  13.950  69.321  1.00  0.00    -0.067 C  
HETATM   11  O   UNL     1      -6.169  14.598  68.613  1.00  0.00    -0.081 OA 
BRANCH  10  12
HETATM   12  N   UNL     1      -6.529  13.018  70.260  1.00  0.00    -0.367 N  
HETATM   13  H   UNL     1      -6.503  13.242  71.255  1.00  0.00     0.000 HD 
BRANCH  12  14
HETATM   14  C   UNL     1      -6.154  11.744  69.783  1.00  0.00    -0.136 A  
HETATM   15  C   UNL     1      -5.855   9.176  68.744  1.00  0.00    -0.041 A  
HETATM   16  C   UNL     1      -5.804   7.857  68.189  1.00  0.00    -0.040 C  
HETATM   17  N   UNL     1      -5.771   6.788  67.741  1.00  0.00    -0.018 NA 
HETATM   18  C   UNL     1      -6.230  10.646  70.639  1.00  0.00    -0.045 A  
HETATM   19  C   UNL     1      -5.695  10.285  67.909  1.00  0.00    -0.041 A  
HETATM   20  C   UNL     1      -5.843  11.567  68.431  1.00  0.00    -0.045 A  
HETATM   21  C   UNL     1      -6.105   9.359  70.110  1.00  0.00    -0.042 A  
ENDBRANCH  12  14
ENDBRANCH  10  12
ENDBRANCH   8  10
ENDBRANCH   5   8
BRANCH   7  22
HETATM   22  C   UNL     1     -10.341  10.974  66.657  1.00  0.00    -0.240 A  
HETATM   23  N   UNL     1      -9.459  10.875  65.681  1.00  0.00    -0.204 NA 
HETATM   24  N   UNL     1     -10.578   9.745  67.226  1.00  0.00    -0.264 NA 
HETATM   25  C   UNL     1      -9.124   9.550  65.617  1.00  0.00    -0.201 A  
HETATM   26  H   UNL     1      -9.101  11.630  65.095  1.00  0.00     0.000 HD 
HETATM   27  C   UNL     1      -9.819   8.812  66.568  1.00  0.00    -0.279 A  
HETATM   28  C   UNL     1      -8.224   8.901  64.760  1.00  0.00    -0.164 A  
HETATM   29  C   UNL     1      -9.678   7.431  66.714  1.00  0.00    -0.271 A  
HETATM   30  C   UNL     1      -8.772   6.800  65.852  1.00  0.00    -0.147 A  
HETATM   31  C   UNL     1      -8.055   7.519  64.892  1.00  0.00    -0.121 A  
ENDBRANCH   7  22
TORSDOF 5
ENDMDL
MODEL      190
REMARK 921   NORMALIZED FREE ENERGY PREDICTED BY IDOCK:   -3.91 KCAL/MOL
REMARK 922        TOTAL FREE ENERGY PREDICTED BY IDOCK:   -5.82 KCAL/MOL
REMARK 923 INTER-LIGAND FREE ENERGY PREDICTED BY IDOCK:   -5.55 KCAL/MOL
REMARK 924 INTRA-LIGAND FREE ENERGY PREDICTED BY IDOCK:   -0.27 KCAL/MOL
REMARK 927      BINDING AFFINITY PREDICTED BY RF-SCORE:    0.00 PKD
ROOT
HETATM    1  C   UNL     1      -6.610   8.803  68.818  1.00  0.00    -0.054 C  
HETATM    2  N   UNL     1      -7.202   9.690  67.805  1.00  0.00    -0.085 NA 
HETATM    3  C   UNL     1      -7.173   9.055  66.476  1.00  0.00    -0.085 C  
HETATM    4  C   UNL     1      -8.163   7.912  66.285  1.00  0.00    -0.117 C  
HETATM    5  C   UNL     1      -9.585   8.302  66.709  1.00  0.00    -0.224 C  
HETATM    6  C   UNL     1      -9.598   8.951  68.100  1.00  0.00    -0.161 C  
HETATM    7  C   UNL     1      -8.577  10.095  68.198  1.00  0.00    -0.118 C  
ENDROOT
BRANCH   5   8
HETATM    8  N   UNL     1     -10.501   7.164  66.609  1.00  0.00    -0.502 N  
HETATM    9  H   UNL     1     -11.035   7.019  65.752  1.00  0.00     0.000 HD 
BRANCH   8  10
HETATM   10  C   UNL     1     -10.648   6.291  67.658  1.00  0.00    -0.271 C  
HETATM   11  O   UNL     1     -11.527   6.399  68.506  1.00  0.00    -0.228 OA 
BRANCH  10  12
HETATM   12  N   UNL     1      -9.637   5.348  67.694  1.00  0.00    -0.122 N  
HETATM   13  H   UNL     1      -9.196   5.007  66.839  1.00  0.00     0.000 HD 
BRANCH  12  14
HETATM   14  C   UNL     1      -9.240   4.877  68.963  1.00  0.00    -0.119 A  
HETATM   15  C   UNL     1      -8.887   4.026  71.593  1.00  0.00    -0.144 A  
HETATM   16  C   UNL     1      -8.808   3.607  72.960  1.00  0.00    -0.093 C  
HETATM   17  N   UNL     1      -8.752   3.272  74.068  1.00  0.00    -0.080 NA 
HETATM   18  C   UNL     1      -8.819   5.791  69.929  1.00  0.00    -0.130 A  
HETATM   19  C   UNL     1      -9.226   3.099  70.603  1.00  0.00    -0.208 A  
HETATM   20  C   UNL     1      -9.399   3.527  69.290  1.00  0.00    -0.242 A  
HETATM   21  C   UNL     1      -8.668   5.366  71.251  1.00  0.00    -0.136 A  
ENDBRANCH  12  14
ENDBRANCH  10  12
ENDBRANCH   8  10
ENDBRANCH   5   8
BRANCH   7  22
HETATM   22  C   UNL     1      -9.062  11.292  67.414  1.00  0.00    -0.151 A  
HETATM   23  N   UNL     1      -9.953  11.288  66.441  1.00  0.00    -0.208 NA 
HETATM   24  N   UNL     1      -8.605  12.567  67.650  1.00  0.00    -0.166 NA 
HETATM   25  C   UNL     1     -10.068  12.591  66.037  1.00  0.00    -0.253 A  
HETATM   26  H   UNL     1     -10.453  10.481  66.066  1.00  0.00     0.000 HD 
HETATM   27  C   UNL     1      -9.225  13.417  66.771  1.00  0.00    -0.236 A  
HETATM   28  C   UNL     1     -10.881  13.144  65.038  1.00  0.00    -0.331 A  
HETATM   29  C   UNL     1      -9.131  14.793  66.557  1.00  0.00    -0.291 A  
HETATM   30  C   UNL     1      -9.953  15.329  65.558  1.00  0.00    -0.383 A  
HETATM   31  C   UNL     1     -10.815  14.522  64.811  1.00  0.00    -0.410 A  
ENDBRANCH   7  22
TORSDOF 5
ENDMDL
MODEL      191
REMARK 921   NORMALIZED FREE ENERGY PREDICTED BY IDOCK:   -3.91 KCAL/MOL
REMARK 922        TOTAL FREE ENERGY PREDICTED BY IDOCK:   -5.82 KCAL/MOL
REMARK 923 INTER-LIGAND FREE ENERGY PREDICTED BY IDOCK:   -5.53 KCAL/MOL
REMARK 924 INTRA-LIGAND FREE ENERGY PREDICTED BY IDOCK:   -0.29 KCAL/MOL
REMARK 927      BINDING AFFINITY PREDICTED BY RF-SCORE:    0.00 PKD
ROOT
HETATM    1  C   UNL     1      -6.856   6.460  68.726  1.00  0.00    -0.074 C  
HETATM    2  N   UNL     1      -8.005   7.226  68.220  1.00  0.00    -0.122 NA 
HETATM    3  C   UNL     1      -9.219   6.393  68.201  1.00  0.00    -0.111 C  
HETATM    4  C   UNL     1      -9.818   6.092  69.571  1.00  0.00    -0.193 C  
HETATM    5  C   UNL     1     -10.001   7.363  70.412  1.00  0.00    -0.188 C  
HETATM    6  C   UNL     1      -8.723   8.214  70.431  1.00  0.00    -0.136 C  
HETATM    7  C   UNL     1      -8.198   8.471  69.009  1.00  0.00    -0.116 C  
ENDROOT
BRANCH   5   8
HETATM    8  N   UNL     1     -10.486   7.045  71.757  1.00  0.00    -0.202 N  
HETATM    9  H   UNL     1      -9.818   6.864  72.505  1.00  0.00     0.000 HD 
BRANCH   8  10
HETATM   10  C   UNL     1     -11.833   6.989  72.019  1.00  0.00    -0.298 C  
HETATM   11  O   UNL     1     -12.581   7.955  71.911  1.00  0.00    -0.309 OA 
BRANCH  10  12
HETATM   12  N   UNL     1     -12.214   5.753  72.510  1.00  0.00    -0.446 N  
HETATM   13  H   UNL     1     -13.197   5.486  72.573  1.00  0.00     0.000 HD 
BRANCH  12  14
HETATM   14  C   UNL     1     -11.186   4.878  72.919  1.00  0.00    -0.240 A  
HETATM   15  C   UNL     1      -8.873   3.470  73.576  1.00  0.00    -0.088 A  
HETATM   16  C   UNL     1      -7.629   2.828  73.878  1.00  0.00    -0.051 C  
HETATM   17  N   UNL     1      -6.618   2.314  74.117  1.00  0.00    -0.020 NA 
HETATM   18  C   UNL     1     -10.642   3.986  71.995  1.00  0.00     0.062 A  
HETATM   19  C   UNL     1      -9.473   4.300  74.526  1.00  0.00    -0.132 A  
HETATM   20  C   UNL     1     -10.630   5.000  74.196  1.00  0.00    -0.338 A  
HETATM   21  C   UNL     1      -9.468   3.302  72.319  1.00  0.00    -0.186 A  
ENDBRANCH  12  14
ENDBRANCH  10  12
ENDBRANCH   8  10
ENDBRANCH   5   8
BRANCH   7  22
HETATM   22  C   UNL     1      -9.088   9.463  68.298  1.00  0.00    -0.128 A  
HETATM   23  N   UNL     1      -9.996  10.245  68.852  1.00  0.00    -0.190 NA 
HETATM   24  N   UNL     1      -9.038   9.663  66.939  1.00  0.00    -0.137 NA 
HETATM   25  C   UNL     1     -10.546  10.961  67.824  1.00  0.00    -0.217 A  
HETATM   26  H   UNL     1     -10.238  10.303  69.841  1.00  0.00     0.000 HD 
HETATM   27  C   UNL     1      -9.972  10.609  66.607  1.00  0.00    -0.212 A  
HETATM   28  C   UNL     1     -11.552  11.937  67.858  1.00  0.00    -0.393 A  
HETATM   29  C   UNL     1     -10.356  11.177  65.391  1.00  0.00    -0.331 A  
HETATM   30  C   UNL     1     -11.360  12.153  65.444  1.00  0.00    -0.388 A  
HETATM   31  C   UNL     1     -11.948  12.529  66.655  1.00  0.00    -0.351 A  
ENDBRANCH   7  22
TORSDOF 5
ENDMDL
MODEL      192
REMARK 921   NORMALIZED FREE ENERGY PREDICTED BY IDOCK:   -3.89 KCAL/MOL
REMARK 922        TOTAL FREE ENERGY PREDICTED BY IDOCK:   -5.80 KCAL/MOL
REMARK 923 INTER-LIGAND FREE ENERGY PREDICTED BY IDOCK:   -7.20 KCAL/MOL
REMARK 924 INTRA-LIGAND FREE ENERGY PREDICTED BY IDOCK:    1.40 KCAL/MOL
REMARK 927      BINDING AFFINITY PREDICTED BY RF-SCORE:    0.00 PKD
ROOT
HETATM    1  C   UNL     1     -12.389  13.412  65.847  1.00  0.00    -0.437 C  
HETATM    2  N   UNL     1     -11.685  12.198  66.287  1.00  0.00    -0.544 NA 
HETATM    3  C   UNL     1     -10.297  12.192  65.796  1.00  0.00    -0.258 C  
HETATM    4  C   UNL     1      -9.363  13.178  66.489  1.00  0.00    -0.222 C  
HETATM    5  C   UNL     1      -9.437  13.065  68.018  1.00  0.00    -0.217 C  
HETATM    6  C   UNL     1     -10.889  13.084  68.514  1.00  0.00    -0.282 C  
HETATM    7  C   UNL     1     -11.753  12.056  67.765  1.00  0.00    -0.309 C  
ENDROOT
BRANCH   5   8
HETATM    8  N   UNL     1      -8.607  14.083  68.667  1.00  0.00    -0.288 N  
HETATM    9  H   UNL     1      -9.027  14.961  68.968  1.00  0.00     0.000 HD 
BRANCH   8  10
HETATM   10  C   UNL     1      -7.267  13.865  68.874  1.00  0.00    -0.103 C  
HETATM   11  O   UNL     1      -6.747  12.756  68.806  1.00  0.00    -0.083 OA 
BRANCH  10  12
HETATM   12  N   UNL     1      -6.607  15.017  69.260  1.00  0.00    -0.120 N  
HETATM   13  H   UNL     1      -5.658  14.988  69.633  1.00  0.00     0.000 HD 
BRANCH  12  14
HETATM   14  C   UNL     1      -7.304  16.236  69.117  1.00  0.00    -0.218 A  
HETATM   15  C   UNL     1      -8.612  18.586  68.390  1.00  0.00    -0.355 A  
HETATM   16  C   UNL     1      -9.266  19.769  67.916  1.00  0.00    -0.340 C  
HETATM   17  N   UNL     1      -9.791  20.725  67.524  1.00  0.00    -0.384 NA 
HETATM   18  C   UNL     1      -6.585  17.429  69.055  1.00  0.00    -0.232 A  
HETATM   19  C   UNL     1      -9.342  17.404  68.537  1.00  0.00    -0.281 A  
HETATM   20  C   UNL     1      -8.686  16.231  68.903  1.00  0.00    -0.253 A  
HETATM   21  C   UNL     1      -7.239  18.600  68.665  1.00  0.00    -0.315 A  
ENDBRANCH  12  14
ENDBRANCH  10  12
ENDBRANCH   8  10
ENDBRANCH   5   8
BRANCH   7  22
HETATM   22  C   UNL     1     -11.405  10.657  68.219  1.00  0.00    -0.289 A  
HETATM   23  N   UNL     1     -11.414  10.207  69.459  1.00  0.00    -0.395 NA 
HETATM   24  N   UNL     1     -11.028   9.667  67.344  1.00  0.00    -0.177 NA 
HETATM   25  C   UNL     1     -11.029   8.896  69.380  1.00  0.00    -0.048 A  
HETATM   26  H   UNL     1     -11.657  10.727  70.302  1.00  0.00     0.000 HD 
HETATM   27  C   UNL     1     -10.769   8.530  68.064  1.00  0.00    -0.059 A  
HETATM   28  C   UNL     1     -10.878   7.950  70.404  1.00  0.00    -0.244 A  
HETATM   29  C   UNL     1     -10.345   7.251  67.698  1.00  0.00    -0.290 A  
HETATM   30  C   UNL     1     -10.203   6.318  68.734  1.00  0.00    -0.213 A  
HETATM   31  C   UNL     1     -10.466   6.658  70.064  1.00  0.00    -0.250 A  
ENDBRANCH   7  22
TORSDOF 5
ENDMDL
MODEL      193
REMARK 921   NORMALIZED FREE ENERGY PREDICTED BY IDOCK:   -3.86 KCAL/MOL
REMARK 922        TOTAL FREE ENERGY PREDICTED BY IDOCK:   -5.76 KCAL/MOL
REMARK 923 INTER-LIGAND FREE ENERGY PREDICTED BY IDOCK:   -5.72 KCAL/MOL
REMARK 924 INTRA-LIGAND FREE ENERGY PREDICTED BY IDOCK:   -0.05 KCAL/MOL
REMARK 927      BINDING AFFINITY PREDICTED BY RF-SCORE:    0.00 PKD
ROOT
HETATM    1  C   UNL     1     -11.187   7.468  73.109  1.00  0.00    -0.267 C  
HETATM    2  N   UNL     1     -10.553   6.677  72.043  1.00  0.00    -0.209 NA 
HETATM    3  C   UNL     1     -11.351   6.735  70.806  1.00  0.00    -0.325 C  
HETATM    4  C   UNL     1     -11.300   8.068  70.068  1.00  0.00    -0.014 C  
HETATM    5  C   UNL     1      -9.860   8.554  69.852  1.00  0.00    -0.186 C  
HETATM    6  C   UNL     1      -9.047   8.498  71.153  1.00  0.00    -0.238 C  
HETATM    7  C   UNL     1      -9.151   7.118  71.822  1.00  0.00    -0.139 C  
ENDROOT
BRANCH   5   8
HETATM    8  N   UNL     1      -9.834   9.879  69.228  1.00  0.00    -0.195 N  
HETATM    9  H   UNL     1      -8.992  10.195  68.749  1.00  0.00     0.000 HD 
BRANCH   8  10
HETATM   10  C   UNL     1     -10.934  10.699  69.283  1.00  0.00    -0.245 C  
HETATM   11  O   UNL     1     -11.504  10.991  70.328  1.00  0.00    -0.301 OA 
BRANCH  10  12
HETATM   12  N   UNL     1     -11.370  11.067  68.023  1.00  0.00    -0.298 N  
HETATM   13  H   UNL     1     -11.860  10.409  67.416  1.00  0.00     0.000 HD 
BRANCH  12  14
HETATM   14  C   UNL     1     -11.109  12.392  67.612  1.00  0.00    -0.259 A  
HETATM   15  C   UNL     1     -10.733  14.868  66.392  1.00  0.00    -0.316 A  
HETATM   16  C   UNL     1     -10.577  16.099  65.677  1.00  0.00    -0.363 C  
HETATM   17  N   UNL     1     -10.451  17.090  65.090  1.00  0.00    -0.655 NA 
HETATM   18  C   UNL     1      -9.865  12.703  67.064  1.00  0.00    -0.225 A  
HETATM   19  C   UNL     1     -11.949  14.581  67.019  1.00  0.00    -0.371 A  
HETATM   20  C   UNL     1     -12.133  13.344  67.630  1.00  0.00    -0.311 A  
HETATM   21  C   UNL     1      -9.689  13.936  66.431  1.00  0.00    -0.309 A  
ENDBRANCH  12  14
ENDBRANCH  10  12
ENDBRANCH   8  10
ENDBRANCH   5   8
BRANCH   7  22
HETATM   22  C   UNL     1      -8.351   6.101  71.041  1.00  0.00    -0.124 A  
HETATM   23  N   UNL     1      -8.830   5.085  70.349  1.00  0.00    -0.110 NA 
HETATM   24  N   UNL     1      -6.979   6.135  70.969  1.00  0.00    -0.066 NA 
HETATM   25  C   UNL     1      -7.740   4.448  69.822  1.00  0.00    -0.054 A  
HETATM   26  H   UNL     1      -9.810   4.828  70.231  1.00  0.00     0.000 HD 
HETATM   27  C   UNL     1      -6.561   5.078  70.204  1.00  0.00    -0.036 A  
HETATM   28  C   UNL     1      -7.684   3.312  69.003  1.00  0.00    -0.051 A  
HETATM   29  C   UNL     1      -5.297   4.628  69.818  1.00  0.00    -0.007 A  
HETATM   30  C   UNL     1      -5.260   3.494  68.996  1.00  0.00    -0.012 A  
HETATM   31  C   UNL     1      -6.431   2.846  68.592  1.00  0.00    -0.029 A  
ENDBRANCH   7  22
TORSDOF 5
ENDMDL
MODEL      194
REMARK 921   NORMALIZED FREE ENERGY PREDICTED BY IDOCK:   -3.85 KCAL/MOL
REMARK 922        TOTAL FREE ENERGY PREDICTED BY IDOCK:   -5.75 KCAL/MOL
REMARK 923 INTER-LIGAND FREE ENERGY PREDICTED BY IDOCK:   -5.58 KCAL/MOL
REMARK 924 INTRA-LIGAND FREE ENERGY PREDICTED BY IDOCK:   -0.17 KCAL/MOL
REMARK 927      BINDING AFFINITY PREDICTED BY RF-SCORE:    0.00 PKD
ROOT
HETATM    1  C   UNL     1      -5.339  12.758  70.327  1.00  0.00    -0.124 C  
HETATM    2  N   UNL     1      -6.137  12.166  69.242  1.00  0.00    -0.081 NA 
HETATM    3  C   UNL     1      -7.529  12.645  69.297  1.00  0.00     0.306 C  
HETATM    4  C   UNL     1      -7.730  14.095  68.870  1.00  0.00    -0.091 C  
HETATM    5  C   UNL     1      -7.066  14.396  67.519  1.00  0.00    -0.175 C  
HETATM    6  C   UNL     1      -5.614  13.901  67.483  1.00  0.00     0.130 C  
HETATM    7  C   UNL     1      -5.509  12.431  67.921  1.00  0.00    -0.087 C  
ENDROOT
BRANCH   5   8
HETATM    8  N   UNL     1      -7.187  15.813  67.171  1.00  0.00    -0.213 N  
HETATM    9  H   UNL     1      -6.515  16.484  67.544  1.00  0.00     0.000 HD 
BRANCH   8  10
HETATM   10  C   UNL     1      -8.196  16.248  66.349  1.00  0.00    -0.319 C  
HETATM   11  O   UNL     1      -8.208  17.357  65.825  1.00  0.00    -0.540 OA 
BRANCH  10  12
HETATM   12  N   UNL     1      -9.229  15.332  66.267  1.00  0.00    -0.302 N  
HETATM   13  H   UNL     1      -9.255  14.622  65.534  1.00  0.00     0.000 HD 
BRANCH  12  14
HETATM   14  C   UNL     1     -10.247  15.421  67.240  1.00  0.00    -0.254 A  
HETATM   15  C   UNL     1     -11.949  15.420  69.446  1.00  0.00    -0.351 A  
HETATM   16  C   UNL     1     -12.745  15.382  70.636  1.00  0.00    -0.437 C  
HETATM   17  N   UNL     1     -13.382  15.346  71.604  1.00  0.00    -0.457 NA 
HETATM   18  C   UNL     1     -11.068  14.318  67.471  1.00  0.00    -0.309 A  
HETATM   19  C   UNL     1     -11.187  16.555  69.159  1.00  0.00    -0.221 A  
HETATM   20  C   UNL     1     -10.339  16.554  68.055  1.00  0.00    -0.294 A  
HETATM   21  C   UNL     1     -11.902  14.311  68.592  1.00  0.00    -0.379 A  
ENDBRANCH  12  14
ENDBRANCH  10  12
ENDBRANCH   8  10
ENDBRANCH   5   8
BRANCH   7  22
HETATM   22  C   UNL     1      -6.055  11.527  66.840  1.00  0.00    -0.146 A  
HETATM   23  N   UNL     1      -5.645  11.461  65.588  1.00  0.00    -0.500 NA 
HETATM   24  N   UNL     1      -7.080  10.639  67.064  1.00  0.00    -0.095 NA 
HETATM   25  C   UNL     1      -6.428  10.511  64.990  1.00  0.00    -0.030 A  
HETATM   26  H   UNL     1      -4.899  12.005  65.154  1.00  0.00     0.000 HD 
HETATM   27  C   UNL     1      -7.348   9.984  65.891  1.00  0.00    -0.115 A  
HETATM   28  C   UNL     1      -6.410  10.046  63.668  1.00  0.00    -0.131 A  
HETATM   29  C   UNL     1      -8.281   9.006  65.542  1.00  0.00    -0.124 A  
HETATM   30  C   UNL     1      -8.245   8.550  64.218  1.00  0.00    -0.147 A  
HETATM   31  C   UNL     1      -7.326   9.057  63.295  1.00  0.00    -0.097 A  
ENDBRANCH   7  22
TORSDOF 5
ENDMDL
MODEL      195
REMARK 921   NORMALIZED FREE ENERGY PREDICTED BY IDOCK:   -3.82 KCAL/MOL
REMARK 922        TOTAL FREE ENERGY PREDICTED BY IDOCK:   -5.71 KCAL/MOL
REMARK 923 INTER-LIGAND FREE ENERGY PREDICTED BY IDOCK:   -5.78 KCAL/MOL
REMARK 924 INTRA-LIGAND FREE ENERGY PREDICTED BY IDOCK:    0.07 KCAL/MOL
REMARK 927      BINDING AFFINITY PREDICTED BY RF-SCORE:    0.00 PKD
ROOT
HETATM    1  C   UNL     1      -9.987  10.101  64.812  1.00  0.00    -0.264 C  
HETATM    2  N   UNL     1     -10.302  11.213  65.723  1.00  0.00    -0.254 NA 
HETATM    3  C   UNL     1     -10.979  10.719  66.934  1.00  0.00    -0.190 C  
HETATM    4  C   UNL     1     -10.085   9.961  67.910  1.00  0.00    -0.210 C  
HETATM    5  C   UNL     1      -8.802  10.736  68.239  1.00  0.00    -0.139 C  
HETATM    6  C   UNL     1      -8.103  11.233  66.966  1.00  0.00    -0.149 C  
HETATM    7  C   UNL     1      -9.077  11.990  66.048  1.00  0.00    -0.092 C  
ENDROOT
BRANCH   5   8
HETATM    8  N   UNL     1      -7.913   9.952  69.100  1.00  0.00    -0.102 N  
HETATM    9  H   UNL     1      -6.911  10.136  69.091  1.00  0.00     0.000 HD 
BRANCH   8  10
HETATM   10  C   UNL     1      -8.419   8.973  69.918  1.00  0.00    -0.138 C  
HETATM   11  O   UNL     1      -8.913   9.202  71.017  1.00  0.00    -0.221 OA 
BRANCH  10  12
HETATM   12  N   UNL     1      -8.212   7.707  69.401  1.00  0.00    -0.128 N  
HETATM   13  H   UNL     1      -7.775   7.569  68.489  1.00  0.00     0.000 HD 
BRANCH  12  14
HETATM   14  C   UNL     1      -8.631   6.613  70.189  1.00  0.00    -0.140 A  
HETATM   15  C   UNL     1      -9.702   4.761  71.973  1.00  0.00    -0.217 A  
HETATM   16  C   UNL     1     -10.307   3.887  72.933  1.00  0.00    -0.168 C  
HETATM   17  N   UNL     1     -10.799   3.187  73.715  1.00  0.00    -0.203 NA 
HETATM   18  C   UNL     1      -7.939   6.313  71.361  1.00  0.00    -0.109 A  
HETATM   19  C   UNL     1     -10.345   5.004  70.756  1.00  0.00    -0.265 A  
HETATM   20  C   UNL     1      -9.807   5.928  69.866  1.00  0.00    -0.223 A  
HETATM   21  C   UNL     1      -8.492   5.403  72.265  1.00  0.00    -0.122 A  
ENDBRANCH  12  14
ENDBRANCH  10  12
ENDBRANCH   8  10
ENDBRANCH   5   8
BRANCH   7  22
HETATM   22  C   UNL     1      -9.401  13.342  66.639  1.00  0.00    -0.241 A  
HETATM   23  N   UNL     1      -8.627  14.410  66.634  1.00  0.00    -0.437 NA 
HETATM   24  N   UNL     1     -10.594  13.609  67.269  1.00  0.00    -0.266 NA 
HETATM   25  C   UNL     1      -9.336  15.386  67.280  1.00  0.00    -0.210 A  
HETATM   26  H   UNL     1      -7.693  14.492  66.232  1.00  0.00     0.000 HD 
HETATM   27  C   UNL     1     -10.573  14.909  67.701  1.00  0.00    -0.264 A  
HETATM   28  C   UNL     1      -8.980  16.715  67.547  1.00  0.00    -0.204 A  
HETATM   29  C   UNL     1     -11.494  15.692  68.399  1.00  0.00    -0.374 A  
HETATM   30  C   UNL     1     -11.123  17.019  68.653  1.00  0.00    -0.128 A  
HETATM   31  C   UNL     1      -9.889  17.525  68.235  1.00  0.00    -0.319 A  
ENDBRANCH   7  22
TORSDOF 5
ENDMDL
MODEL      196
REMARK 921   NORMALIZED FREE ENERGY PREDICTED BY IDOCK:   -3.79 KCAL/MOL
REMARK 922        TOTAL FREE ENERGY PREDICTED BY IDOCK:   -5.68 KCAL/MOL
REMARK 923 INTER-LIGAND FREE ENERGY PREDICTED BY IDOCK:   -5.13 KCAL/MOL
REMARK 924 INTRA-LIGAND FREE ENERGY PREDICTED BY IDOCK:   -0.55 KCAL/MOL
REMARK 927      BINDING AFFINITY PREDICTED BY RF-SCORE:    0.00 PKD
ROOT
HETATM    1  C   UNL     1     -13.139   6.869  71.869  1.00  0.00    -0.184 C  
HETATM    2  N   UNL     1     -11.674   6.757  71.924  1.00  0.00    -0.295 NA 
HETATM    3  C   UNL     1     -11.122   6.476  70.587  1.00  0.00    -0.309 C  
HETATM    4  C   UNL     1     -11.157   7.650  69.615  1.00  0.00    -0.074 C  
HETATM    5  C   UNL     1     -10.564   8.926  70.230  1.00  0.00    -0.218 C  
HETATM    6  C   UNL     1     -11.158   9.210  71.616  1.00  0.00    -0.445 C  
HETATM    7  C   UNL     1     -11.074   7.976  72.528  1.00  0.00    -0.375 C  
ENDROOT
BRANCH   5   8
HETATM    8  N   UNL     1     -10.693  10.065  69.317  1.00  0.00    -0.213 N  
HETATM    9  H   UNL     1     -11.553  10.612  69.311  1.00  0.00     0.000 HD 
BRANCH   8  10
HETATM   10  C   UNL     1      -9.667  10.402  68.471  1.00  0.00    -0.168 C  
HETATM   11  O   UNL     1      -8.646  10.971  68.842  1.00  0.00    -0.161 OA 
BRANCH  10  12
HETATM   12  N   UNL     1      -9.967  10.114  67.151  1.00  0.00    -0.187 N  
HETATM   13  H   UNL     1     -10.517  10.754  66.578  1.00  0.00     0.000 HD 
BRANCH  12  14
HETATM   14  C   UNL     1      -9.479   8.896  66.631  1.00  0.00    -0.202 A  
HETATM   15  C   UNL     1      -8.363   6.416  66.025  1.00  0.00    -0.132 A  
HETATM   16  C   UNL     1      -7.762   5.133  65.815  1.00  0.00    -0.091 C  
HETATM   17  N   UNL     1      -7.271   4.096  65.653  1.00  0.00    -0.070 NA 
HETATM   18  C   UNL     1      -8.166   8.831  66.164  1.00  0.00    -0.117 A  
HETATM   19  C   UNL     1      -9.703   6.497  66.412  1.00  0.00    -0.133 A  
HETATM   20  C   UNL     1     -10.259   7.738  66.712  1.00  0.00    -0.346 A  
HETATM   21  C   UNL     1      -7.602   7.584  65.886  1.00  0.00    -0.088 A  
ENDBRANCH  12  14
ENDBRANCH  10  12
ENDBRANCH   8  10
ENDBRANCH   5   8
BRANCH   7  22
HETATM   22  C   UNL     1      -9.645   7.750  72.965  1.00  0.00    -0.259 A  
HETATM   23  N   UNL     1      -8.628   8.572  72.789  1.00  0.00    -0.385 NA 
HETATM   24  N   UNL     1      -9.243   6.612  73.623  1.00  0.00    -0.136 NA 
HETATM   25  C   UNL     1      -7.545   7.946  73.342  1.00  0.00    -0.144 A  
HETATM   26  H   UNL     1      -8.646   9.485  72.334  1.00  0.00     0.000 HD 
HETATM   27  C   UNL     1      -7.897   6.707  73.865  1.00  0.00    -0.095 A  
HETATM   28  C   UNL     1      -6.216   8.383  73.433  1.00  0.00    -0.117 A  
HETATM   29  C   UNL     1      -6.981   5.850  74.478  1.00  0.00    -0.084 A  
HETATM   30  C   UNL     1      -5.659   6.304  74.563  1.00  0.00    -0.054 A  
HETATM   31  C   UNL     1      -5.280   7.549  74.052  1.00  0.00    -0.046 A  
ENDBRANCH   7  22
TORSDOF 5
ENDMDL
MODEL      197
REMARK 921   NORMALIZED FREE ENERGY PREDICTED BY IDOCK:   -3.77 KCAL/MOL
REMARK 922        TOTAL FREE ENERGY PREDICTED BY IDOCK:   -5.64 KCAL/MOL
REMARK 923 INTER-LIGAND FREE ENERGY PREDICTED BY IDOCK:   -4.81 KCAL/MOL
REMARK 924 INTRA-LIGAND FREE ENERGY PREDICTED BY IDOCK:   -0.83 KCAL/MOL
REMARK 927      BINDING AFFINITY PREDICTED BY RF-SCORE:    0.00 PKD
ROOT
HETATM    1  C   UNL     1     -11.954  12.612  66.362  1.00  0.00    -0.357 C  
HETATM    2  N   UNL     1     -11.328  11.347  66.775  1.00  0.00    -0.405 NA 
HETATM    3  C   UNL     1     -10.037  11.156  66.092  1.00  0.00    -0.238 C  
HETATM    4  C   UNL     1      -8.909  12.058  66.579  1.00  0.00    -0.172 C  
HETATM    5  C   UNL     1      -8.766  12.029  68.107  1.00  0.00    -0.177 C  
HETATM    6  C   UNL     1     -10.117  12.242  68.802  1.00  0.00    -0.082 C  
HETATM    7  C   UNL     1     -11.189  11.286  68.254  1.00  0.00    -0.267 C  
ENDROOT
BRANCH   5   8
HETATM    8  N   UNL     1      -7.742  12.973  68.562  1.00  0.00    -0.174 N  
HETATM    9  H   UNL     1      -7.983  13.684  69.252  1.00  0.00     0.000 HD 
BRANCH   8  10
HETATM   10  C   UNL     1      -6.463  12.910  68.069  1.00  0.00    -0.108 C  
HETATM   11  O   UNL     1      -5.878  13.874  67.589  1.00  0.00    -0.281 OA 
BRANCH  10  12
HETATM   12  N   UNL     1      -5.963  11.620  68.087  1.00  0.00    -0.045 N  
HETATM   13  H   UNL     1      -5.586  11.183  67.246  1.00  0.00     0.000 HD 
BRANCH  12  14
HETATM   14  C   UNL     1      -5.997  10.934  69.320  1.00  0.00    -0.044 A  
HETATM   15  C   UNL     1      -5.685   9.375  71.608  1.00  0.00    -0.069 A  
HETATM   16  C   UNL     1      -5.438   8.535  72.741  1.00  0.00    -0.056 C  
HETATM   17  N   UNL     1      -5.231   7.850  73.654  1.00  0.00    -0.044 NA 
HETATM   18  C   UNL     1      -6.627   9.693  69.394  1.00  0.00    -0.048 A  
HETATM   19  C   UNL     1      -5.128  10.655  71.561  1.00  0.00    -0.071 A  
HETATM   20  C   UNL     1      -5.286  11.433  70.418  1.00  0.00    -0.113 A  
HETATM   21  C   UNL     1      -6.448   8.903  70.532  1.00  0.00    -0.046 A  
ENDBRANCH  12  14
ENDBRANCH  10  12
ENDBRANCH   8  10
ENDBRANCH   5   8
BRANCH   7  22
HETATM   22  C   UNL     1     -10.930   9.880  68.743  1.00  0.00    -0.179 A  
HETATM   23  N   UNL     1     -11.265   8.760  68.133  1.00  0.00    -0.248 NA 
HETATM   24  N   UNL     1     -10.288   9.615  69.930  1.00  0.00    -0.230 NA 
HETATM   25  C   UNL     1     -10.832   7.749  68.948  1.00  0.00     0.006 A  
HETATM   26  H   UNL     1     -11.746   8.665  67.238  1.00  0.00     0.000 HD 
HETATM   27  C   UNL     1     -10.224   8.255  70.091  1.00  0.00    -0.199 A  
HETATM   28  C   UNL     1     -10.928   6.362  68.772  1.00  0.00    -0.404 A  
HETATM   29  C   UNL     1      -9.703   7.444  71.100  1.00  0.00    -0.166 A  
HETATM   30  C   UNL     1      -9.804   6.060  70.906  1.00  0.00    -0.222 A  
HETATM   31  C   UNL     1     -10.404   5.525  69.763  1.00  0.00    -0.366 A  
ENDBRANCH   7  22
TORSDOF 5
ENDMDL
MODEL      198
REMARK 921   NORMALIZED FREE ENERGY PREDICTED BY IDOCK:   -3.73 KCAL/MOL
REMARK 922        TOTAL FREE ENERGY PREDICTED BY IDOCK:   -5.59 KCAL/MOL
REMARK 923 INTER-LIGAND FREE ENERGY PREDICTED BY IDOCK:   -5.64 KCAL/MOL
REMARK 924 INTRA-LIGAND FREE ENERGY PREDICTED BY IDOCK:    0.05 KCAL/MOL
REMARK 927      BINDING AFFINITY PREDICTED BY RF-SCORE:    0.00 PKD
ROOT
HETATM    1  C   UNL     1     -11.856  11.622  63.946  1.00  0.00    -0.249 C  
HETATM    2  N   UNL     1     -10.505  11.239  64.383  1.00  0.00    -0.323 NA 
HETATM    3  C   UNL     1      -9.618  12.414  64.428  1.00  0.00     0.161 C  
HETATM    4  C   UNL     1      -9.888  13.383  65.574  1.00  0.00    -0.157 C  
HETATM    5  C   UNL     1      -9.968  12.666  66.929  1.00  0.00    -0.230 C  
HETATM    6  C   UNL     1     -10.906  11.452  66.867  1.00  0.00    -0.335 C  
HETATM    7  C   UNL     1     -10.555  10.530  65.689  1.00  0.00    -0.062 C  
ENDROOT
BRANCH   5   8
HETATM    8  N   UNL     1     -10.322  13.598  68.002  1.00  0.00    -0.244 N  
HETATM    9  H   UNL     1      -9.915  13.479  68.929  1.00  0.00     0.000 HD 
BRANCH   8  10
HETATM   10  C   UNL     1     -11.198  14.630  67.772  1.00  0.00    -0.308 C  
HETATM   11  O   UNL     1     -12.120  14.563  66.966  1.00  0.00    -0.398 OA 
BRANCH  10  12
HETATM   12  N   UNL     1     -10.854  15.769  68.477  1.00  0.00    -0.274 N  
HETATM   13  H   UNL     1     -11.072  15.867  69.469  1.00  0.00     0.000 HD 
BRANCH  12  14
HETATM   14  C   UNL     1     -10.188  16.790  67.766  1.00  0.00    -0.303 A  
HETATM   15  C   UNL     1      -8.521  18.713  66.631  1.00  0.00    -0.301 A  
HETATM   16  C   UNL     1      -7.590  19.670  66.114  1.00  0.00    -0.316 C  
HETATM   17  N   UNL     1      -6.830  20.442  65.703  1.00  0.00    -0.265 NA 
HETATM   18  C   UNL     1     -10.208  18.092  68.263  1.00  0.00    -0.402 A  
HETATM   19  C   UNL     1      -8.570  17.428  66.084  1.00  0.00    -0.191 A  
HETATM   20  C   UNL     1      -9.405  16.470  66.651  1.00  0.00    -0.279 A  
HETATM   21  C   UNL     1      -9.352  19.047  67.708  1.00  0.00    -0.347 A  
ENDBRANCH  12  14
ENDBRANCH  10  12
ENDBRANCH   8  10
ENDBRANCH   5   8
BRANCH   7  22
HETATM   22  C   UNL     1      -9.276   9.780  65.979  1.00  0.00    -0.179 A  
HETATM   23  N   UNL     1      -8.678   9.666  67.149  1.00  0.00    -0.131 NA 
HETATM   24  N   UNL     1      -8.574   9.108  65.006  1.00  0.00    -0.171 NA 
HETATM   25  C   UNL     1      -7.562   8.907  66.924  1.00  0.00    -0.087 A  
HETATM   26  H   UNL     1      -8.983  10.062  68.039  1.00  0.00     0.000 HD 
HETATM   27  C   UNL     1      -7.463   8.550  65.584  1.00  0.00    -0.085 A  
HETATM   28  C   UNL     1      -6.579   8.481  67.827  1.00  0.00    -0.062 A  
HETATM   29  C   UNL     1      -6.412   7.785  65.074  1.00  0.00    -0.044 A  
HETATM   30  C   UNL     1      -5.441   7.365  65.991  1.00  0.00    -0.028 A  
HETATM   31  C   UNL     1      -5.520   7.704  67.345  1.00  0.00    -0.035 A  
ENDBRANCH   7  22
TORSDOF 5
ENDMDL
MODEL      199
REMARK 921   NORMALIZED FREE ENERGY PREDICTED BY IDOCK:   -3.73 KCAL/MOL
REMARK 922        TOTAL FREE ENERGY PREDICTED BY IDOCK:   -5.59 KCAL/MOL
REMARK 923 INTER-LIGAND FREE ENERGY PREDICTED BY IDOCK:   -5.42 KCAL/MOL
REMARK 924 INTRA-LIGAND FREE ENERGY PREDICTED BY IDOCK:   -0.16 KCAL/MOL
REMARK 927      BINDING AFFINITY PREDICTED BY RF-SCORE:    0.00 PKD
ROOT
HETATM    1  C   UNL     1      -7.722   9.082  66.603  1.00  0.00    -0.096 C  
HETATM    2  N   UNL     1      -8.514  10.321  66.641  1.00  0.00    -0.123 NA 
HETATM    3  C   UNL     1      -9.887  10.077  66.169  1.00  0.00    -0.246 C  
HETATM    4  C   UNL     1     -10.771   9.294  67.133  1.00  0.00    -0.222 C  
HETATM    5  C   UNL     1     -10.742   9.881  68.551  1.00  0.00    -0.226 C  
HETATM    6  C   UNL     1      -9.303  10.117  69.031  1.00  0.00    -0.192 C  
HETATM    7  C   UNL     1      -8.491  10.919  68.002  1.00  0.00    -0.130 C  
ENDROOT
BRANCH   5   8
HETATM    8  N   UNL     1     -11.519   9.060  69.482  1.00  0.00    -0.397 N  
HETATM    9  H   UNL     1     -12.537   9.060  69.427  1.00  0.00     0.000 HD 
BRANCH   8  10
HETATM   10  C   UNL     1     -10.890   8.291  70.429  1.00  0.00    -0.235 C  
HETATM   11  O   UNL     1     -10.256   8.762  71.367  1.00  0.00    -0.227 OA 
BRANCH  10  12
HETATM   12  N   UNL     1     -10.974   6.940  70.140  1.00  0.00    -0.265 N  
HETATM   13  H   UNL     1     -11.742   6.368  70.491  1.00  0.00     0.000 HD 
BRANCH  12  14
HETATM   14  C   UNL     1      -9.952   6.389  69.338  1.00  0.00    -0.158 A  
HETATM   15  C   UNL     1      -7.801   5.730  67.694  1.00  0.00    -0.098 A  
HETATM   16  C   UNL     1      -6.673   5.494  66.844  1.00  0.00    -0.062 C  
HETATM   17  N   UNL     1      -5.759   5.312  66.154  1.00  0.00    -0.017 NA 
HETATM   18  C   UNL     1     -10.152   6.270  67.964  1.00  0.00    -0.174 A  
HETATM   19  C   UNL     1      -7.628   5.768  69.080  1.00  0.00    -0.089 A  
HETATM   20  C   UNL     1      -8.704   6.095  69.899  1.00  0.00    -0.136 A  
HETATM   21  C   UNL     1      -9.066   5.965  67.140  1.00  0.00    -0.113 A  
ENDBRANCH  12  14
ENDBRANCH  10  12
ENDBRANCH   8  10
ENDBRANCH   5   8
BRANCH   7  22
HETATM   22  C   UNL     1      -8.940  12.362  67.997  1.00  0.00    -0.194 A  
HETATM   23  N   UNL     1      -8.865  13.214  69.001  1.00  0.00    -0.238 NA 
HETATM   24  N   UNL     1      -9.496  12.961  66.891  1.00  0.00    -0.231 NA 
HETATM   25  C   UNL     1      -9.389  14.387  68.533  1.00  0.00    -0.204 A  
HETATM   26  H   UNL     1      -8.493  13.035  69.934  1.00  0.00     0.000 HD 
HETATM   27  C   UNL     1      -9.805  14.257  67.212  1.00  0.00    -0.244 A  
HETATM   28  C   UNL     1      -9.544  15.617  69.189  1.00  0.00    -0.251 A  
HETATM   29  C   UNL     1     -10.391  15.299  66.491  1.00  0.00    -0.289 A  
HETATM   30  C   UNL     1     -10.534  16.521  67.161  1.00  0.00    -0.300 A  
HETATM   31  C   UNL     1     -10.118  16.681  68.486  1.00  0.00    -0.266 A  
ENDBRANCH   7  22
TORSDOF 5
ENDMDL
MODEL      200
REMARK 921   NORMALIZED FREE ENERGY PREDICTED BY IDOCK:   -3.68 KCAL/MOL
REMARK 922        TOTAL FREE ENERGY PREDICTED BY IDOCK:   -5.53 KCAL/MOL
REMARK 923 INTER-LIGAND FREE ENERGY PREDICTED BY IDOCK:   -4.77 KCAL/MOL
REMARK 924 INTRA-LIGAND FREE ENERGY PREDICTED BY IDOCK:   -0.76 KCAL/MOL
REMARK 927      BINDING AFFINITY PREDICTED BY RF-SCORE:    0.00 PKD
ROOT
HETATM    1  C   UNL     1      -8.300   2.976  63.628  1.00  0.00    -0.086 C  
HETATM    2  N   UNL     1      -8.663   4.286  64.191  1.00  0.00    -0.121 NA 
HETATM    3  C   UNL     1      -9.705   4.140  65.221  1.00  0.00    -0.199 C  
HETATM    4  C   UNL     1      -9.233   3.528  66.535  1.00  0.00    -0.186 C  
HETATM    5  C   UNL     1      -7.976   4.222  67.077  1.00  0.00    -0.097 C  
HETATM    6  C   UNL     1      -6.896   4.355  65.994  1.00  0.00    -0.058 C  
HETATM    7  C   UNL     1      -7.460   4.987  64.711  1.00  0.00    -0.075 C  
ENDROOT
BRANCH   5   8
HETATM    8  N   UNL     1      -7.482   3.560  68.286  1.00  0.00    -0.057 N  
HETATM    9  H   UNL     1      -7.103   2.615  68.226  1.00  0.00     0.000 HD 
BRANCH   8  10
HETATM   10  C   UNL     1      -7.527   4.198  69.500  1.00  0.00    -0.054 C  
HETATM   11  O   UNL     1      -7.233   3.653  70.559  1.00  0.00    -0.040 OA 
BRANCH  10  12
HETATM   12  N   UNL     1      -8.032   5.482  69.394  1.00  0.00    -0.093 N  
HETATM   13  H   UNL     1      -7.477   6.241  68.999  1.00  0.00     0.000 HD 
BRANCH  12  14
HETATM   14  C   UNL     1      -9.349   5.695  69.853  1.00  0.00    -0.147 A  
HETATM   15  C   UNL     1     -11.836   6.555  70.768  1.00  0.00    -0.394 A  
HETATM   16  C   UNL     1     -13.078   7.096  71.234  1.00  0.00    -0.300 C  
HETATM   17  N   UNL     1     -14.079   7.541  71.612  1.00  0.00    -0.434 NA 
HETATM   18  C   UNL     1      -9.592   5.750  71.225  1.00  0.00    -0.198 A  
HETATM   19  C   UNL     1     -11.613   6.415  69.396  1.00  0.00    -0.238 A  
HETATM   20  C   UNL     1     -10.370   5.983  68.942  1.00  0.00    -0.273 A  
HETATM   21  C   UNL     1     -10.832   6.206  71.680  1.00  0.00    -0.308 A  
ENDBRANCH  12  14
ENDBRANCH  10  12
ENDBRANCH   8  10
ENDBRANCH   5   8
BRANCH   7  22
HETATM   22  C   UNL     1      -7.710   6.462  64.926  1.00  0.00    -0.104 A  
HETATM   23  N   UNL     1      -8.570   7.218  64.272  1.00  0.00    -0.308 NA 
HETATM   24  N   UNL     1      -7.036   7.197  65.872  1.00  0.00    -0.063 NA 
HETATM   25  C   UNL     1      -8.443   8.472  64.806  1.00  0.00    -0.127 A  
HETATM   26  H   UNL     1      -9.200   6.929  63.523  1.00  0.00     0.000 HD 
HETATM   27  C   UNL     1      -7.478   8.493  65.807  1.00  0.00    -0.081 A  
HETATM   28  C   UNL     1      -9.127   9.651  64.479  1.00  0.00    -0.287 A  
HETATM   29  C   UNL     1      -7.135   9.648  66.511  1.00  0.00    -0.089 A  
HETATM   30  C   UNL     1      -7.831  10.817  66.174  1.00  0.00    -0.155 A  
HETATM   31  C   UNL     1      -8.811  10.821  65.178  1.00  0.00    -0.199 A  
ENDBRANCH   7  22
TORSDOF 5
ENDMDL
MODEL      201
REMARK 921   NORMALIZED FREE ENERGY PREDICTED BY IDOCK:   -3.57 KCAL/MOL
REMARK 922        TOTAL FREE ENERGY PREDICTED BY IDOCK:   -5.39 KCAL/MOL
REMARK 923 INTER-LIGAND FREE ENERGY PREDICTED BY IDOCK:   -4.71 KCAL/MOL
REMARK 924 INTRA-LIGAND FREE ENERGY PREDICTED BY IDOCK:   -0.68 KCAL/MOL
REMARK 927      BINDING AFFINITY PREDICTED BY RF-SCORE:    0.00 PKD
ROOT
HETATM    1  C   UNL     1     -10.270  12.571  68.658  1.00  0.00    -0.154 C  
HETATM    2  N   UNL     1     -10.712  11.207  68.984  1.00  0.00    -0.216 NA 
HETATM    3  C   UNL     1     -11.284  10.546  67.798  1.00  0.00    -0.273 C  
HETATM    4  C   UNL     1     -10.270  10.136  66.736  1.00  0.00    -0.289 C  
HETATM    5  C   UNL     1      -9.099   9.343  67.332  1.00  0.00    -0.126 C  
HETATM    6  C   UNL     1      -8.507  10.051  68.559  1.00  0.00    -0.115 C  
HETATM    7  C   UNL     1      -9.599  10.419  69.576  1.00  0.00    -0.157 C  
ENDROOT
BRANCH   5   8
HETATM    8  N   UNL     1      -8.089   9.041  66.314  1.00  0.00    -0.109 N  
HETATM    9  H   UNL     1      -7.168   9.473  66.373  1.00  0.00     0.000 HD 
BRANCH   8  10
HETATM   10  C   UNL     1      -8.373   8.182  65.282  1.00  0.00    -0.152 C  
HETATM   11  O   UNL     1      -8.036   8.389  64.121  1.00  0.00    -0.148 OA 
BRANCH  10  12
HETATM   12  N   UNL     1      -9.159   7.120  65.692  1.00  0.00    -0.380 N  
HETATM   13  H   UNL     1     -10.168   7.113  65.536  1.00  0.00     0.000 HD 
BRANCH  12  14
HETATM   14  C   UNL     1      -8.508   6.047  66.335  1.00  0.00    -0.118 A  
HETATM   15  C   UNL     1      -6.851   4.189  67.588  1.00  0.00    -0.051 A  
HETATM   16  C   UNL     1      -5.922   3.305  68.224  1.00  0.00    -0.024 C  
HETATM   17  N   UNL     1      -5.163   2.594  68.737  1.00  0.00    -0.012 NA 
HETATM   18  C   UNL     1      -7.846   5.090  65.566  1.00  0.00    -0.092 A  
HETATM   19  C   UNL     1      -7.583   5.096  68.358  1.00  0.00    -0.079 A  
HETATM   20  C   UNL     1      -8.412   6.021  67.730  1.00  0.00    -0.107 A  
HETATM   21  C   UNL     1      -6.997   4.177  66.195  1.00  0.00    -0.066 A  
ENDBRANCH  12  14
ENDBRANCH  10  12
ENDBRANCH   8  10
ENDBRANCH   5   8
BRANCH   7  22
HETATM   22  C   UNL     1     -10.092   9.177  70.280  1.00  0.00    -0.206 A  
HETATM   23  N   UNL     1     -11.336   8.737  70.323  1.00  0.00    -0.408 NA 
HETATM   24  N   UNL     1      -9.256   8.339  70.979  1.00  0.00    -0.151 NA 
HETATM   25  C   UNL     1     -11.299   7.592  71.070  1.00  0.00    -0.273 A  
HETATM   26  H   UNL     1     -12.155   9.163  69.889  1.00  0.00     0.000 HD 
HETATM   27  C   UNL     1     -10.006   7.321  71.507  1.00  0.00    -0.182 A  
HETATM   28  C   UNL     1     -12.343   6.725  71.421  1.00  0.00    -0.403 A  
HETATM   29  C   UNL     1      -9.685   6.219  72.300  1.00  0.00    -0.165 A  
HETATM   30  C   UNL     1     -10.740   5.361  72.638  1.00  0.00    -0.288 A  
HETATM   31  C   UNL     1     -12.046   5.606  72.207  1.00  0.00     0.033 A  
ENDBRANCH   7  22
TORSDOF 5
ENDMDL
MODEL      202
REMARK 921   NORMALIZED FREE ENERGY PREDICTED BY IDOCK:   -3.55 KCAL/MOL
REMARK 922        TOTAL FREE ENERGY PREDICTED BY IDOCK:   -5.36 KCAL/MOL
REMARK 923 INTER-LIGAND FREE ENERGY PREDICTED BY IDOCK:   -5.40 KCAL/MOL
REMARK 924 INTRA-LIGAND FREE ENERGY PREDICTED BY IDOCK:    0.04 KCAL/MOL
REMARK 927      BINDING AFFINITY PREDICTED BY RF-SCORE:    0.00 PKD
ROOT
HETATM    1  C   UNL     1     -12.089   6.992  70.261  1.00  0.00    -0.085 C  
HETATM    2  N   UNL     1     -12.010   8.434  70.541  1.00  0.00    -0.032 NA 
HETATM    3  C   UNL     1     -11.348   8.679  71.834  1.00  0.00    -0.347 C  
HETATM    4  C   UNL     1      -9.844   8.432  71.845  1.00  0.00    -0.328 C  
HETATM    5  C   UNL     1      -9.133   9.145  70.686  1.00  0.00    -0.257 C  
HETATM    6  C   UNL     1      -9.829   8.870  69.346  1.00  0.00    -0.183 C  
HETATM    7  C   UNL     1     -11.338   9.152  69.427  1.00  0.00     0.202 C  
ENDROOT
BRANCH   5   8
HETATM    8  N   UNL     1      -7.705   8.819  70.657  1.00  0.00    -0.081 N  
HETATM    9  H   UNL     1      -7.411   7.850  70.536  1.00  0.00     0.000 HD 
BRANCH   8  10
HETATM   10  C   UNL     1      -6.760   9.805  70.792  1.00  0.00    -0.077 C  
HETATM   11  O   UNL     1      -5.921   9.817  71.686  1.00  0.00    -0.246 OA 
BRANCH  10  12
HETATM   12  N   UNL     1      -6.934  10.820  69.868  1.00  0.00    -0.236 N  
HETATM   13  H   UNL     1      -7.217  11.758  70.154  1.00  0.00     0.000 HD 
BRANCH  12  14
HETATM   14  C   UNL     1      -6.703  10.503  68.512  1.00  0.00    -0.056 A  
HETATM   15  C   UNL     1      -6.294  10.323  65.762  1.00  0.00    -0.111 A  
HETATM   16  C   UNL     1      -6.093  10.334  64.344  1.00  0.00    -0.123 C  
HETATM   17  N   UNL     1      -5.934  10.352  63.196  1.00  0.00    -0.148 NA 
HETATM   18  C   UNL     1      -7.790  10.264  67.672  1.00  0.00    -0.098 A  
HETATM   19  C   UNL     1      -5.199  10.476  66.617  1.00  0.00    -0.047 A  
HETATM   20  C   UNL     1      -5.406  10.564  67.991  1.00  0.00    -0.037 A  
HETATM   21  C   UNL     1      -7.584  10.200  66.292  1.00  0.00    -0.111 A  
ENDBRANCH  12  14
ENDBRANCH  10  12
ENDBRANCH   8  10
ENDBRANCH   5   8
BRANCH   7  22
HETATM   22  C   UNL     1     -11.585  10.642  69.479  1.00  0.00    -0.288 A  
HETATM   23  N   UNL     1     -11.791  11.369  70.560  1.00  0.00    -0.439 NA 
HETATM   24  N   UNL     1     -11.619  11.427  68.351  1.00  0.00    -0.356 NA 
HETATM   25  C   UNL     1     -11.967  12.652  70.117  1.00  0.00    -0.299 A  
HETATM   26  H   UNL     1     -11.815  11.043  71.527  1.00  0.00     0.000 HD 
HETATM   27  C   UNL     1     -11.875  12.718  68.731  1.00  0.00    -0.307 A  
HETATM   28  C   UNL     1     -12.212  13.820  70.851  1.00  0.00    -0.427 A  
HETATM   29  C   UNL     1     -12.029  13.906  68.013  1.00  0.00    -0.390 A  
HETATM   30  C   UNL     1     -12.270  15.064  68.763  1.00  0.00    -0.117 A  
HETATM   31  C   UNL     1     -12.359  15.026  70.158  1.00  0.00    -0.380 A  
ENDBRANCH   7  22
TORSDOF 5
ENDMDL
MODEL      203
REMARK 921   NORMALIZED FREE ENERGY PREDICTED BY IDOCK:   -3.51 KCAL/MOL
REMARK 922        TOTAL FREE ENERGY PREDICTED BY IDOCK:   -5.31 KCAL/MOL
REMARK 923 INTER-LIGAND FREE ENERGY PREDICTED BY IDOCK:   -5.27 KCAL/MOL
REMARK 924 INTRA-LIGAND FREE ENERGY PREDICTED BY IDOCK:   -0.03 KCAL/MOL
REMARK 927      BINDING AFFINITY PREDICTED BY RF-SCORE:    0.00 PKD
ROOT
HETATM    1  C   UNL     1     -12.333  10.413  70.017  1.00  0.00    -0.159 C  
HETATM    2  N   UNL     1     -11.551  11.569  69.552  1.00  0.00    -0.304 NA 
HETATM    3  C   UNL     1     -10.108  11.300  69.661  1.00  0.00     0.401 C  
HETATM    4  C   UNL     1      -9.556  10.313  68.638  1.00  0.00    -0.169 C  
HETATM    5  C   UNL     1      -9.972  10.674  67.205  1.00  0.00    -0.188 C  
HETATM    6  C   UNL     1     -11.481  10.939  67.108  1.00  0.00    -0.031 C  
HETATM    7  C   UNL     1     -11.944  11.949  68.170  1.00  0.00    -0.152 C  
ENDROOT
BRANCH   5   8
HETATM    8  N   UNL     1      -9.514   9.664  66.249  1.00  0.00    -0.183 N  
HETATM    9  H   UNL     1      -8.875   9.930  65.500  1.00  0.00     0.000 HD 
BRANCH   8  10
HETATM   10  C   UNL     1      -9.938   8.362  66.350  1.00  0.00    -0.221 C  
HETATM   11  O   UNL     1     -10.744   7.980  67.192  1.00  0.00    -0.322 OA 
BRANCH  10  12
HETATM   12  N   UNL     1      -9.278   7.531  65.464  1.00  0.00    -0.370 N  
HETATM   13  H   UNL     1      -9.334   7.675  64.455  1.00  0.00     0.000 HD 
BRANCH  12  14
HETATM   14  C   UNL     1      -8.522   6.474  66.014  1.00  0.00    -0.145 A  
HETATM   15  C   UNL     1      -7.179   4.539  67.502  1.00  0.00    -0.069 A  
HETATM   16  C   UNL     1      -6.531   3.586  68.353  1.00  0.00    -0.037 C  
HETATM   17  N   UNL     1      -6.009   2.820  69.049  1.00  0.00    -0.023 NA 
HETATM   18  C   UNL     1      -7.213   6.716  66.430  1.00  0.00    -0.072 A  
HETATM   19  C   UNL     1      -8.458   4.270  67.010  1.00  0.00    -0.104 A  
HETATM   20  C   UNL     1      -9.126   5.238  66.265  1.00  0.00    -0.139 A  
HETATM   21  C   UNL     1      -6.552   5.754  67.197  1.00  0.00    -0.056 A  
ENDBRANCH  12  14
ENDBRANCH  10  12
ENDBRANCH   8  10
ENDBRANCH   5   8
BRANCH   7  22
HETATM   22  C   UNL     1     -11.473  13.338  67.806  1.00  0.00    -0.317 A  
HETATM   23  N   UNL     1     -10.929  13.711  66.664  1.00  0.00    -0.290 NA 
HETATM   24  N   UNL     1     -11.571  14.403  68.669  1.00  0.00    -0.296 NA 
HETATM   25  C   UNL     1     -10.667  15.047  66.796  1.00  0.00    -0.308 A  
HETATM   26  H   UNL     1     -10.743  13.125  65.849  1.00  0.00     0.000 HD 
HETATM   27  C   UNL     1     -11.049  15.509  68.051  1.00  0.00    -0.322 A  
HETATM   28  C   UNL     1     -10.095  15.937  65.876  1.00  0.00    -0.376 A  
HETATM   29  C   UNL     1     -10.881  16.833  68.459  1.00  0.00    -0.345 A  
HETATM   30  C   UNL     1     -10.312  17.709  67.525  1.00  0.00    -0.365 A  
HETATM   31  C   UNL     1      -9.926  17.272  66.255  1.00  0.00    -0.311 A  
ENDBRANCH   7  22
TORSDOF 5
ENDMDL
MODEL      204
REMARK 921   NORMALIZED FREE ENERGY PREDICTED BY IDOCK:   -3.49 KCAL/MOL
REMARK 922        TOTAL FREE ENERGY PREDICTED BY IDOCK:   -5.29 KCAL/MOL
REMARK 923 INTER-LIGAND FREE ENERGY PREDICTED BY IDOCK:   -5.16 KCAL/MOL
REMARK 924 INTRA-LIGAND FREE ENERGY PREDICTED BY IDOCK:   -0.13 KCAL/MOL
REMARK 927      BINDING AFFINITY PREDICTED BY RF-SCORE:    0.00 PKD
ROOT
HETATM    1  C   UNL     1      -5.966  10.443  69.131  1.00  0.00    -0.037 C  
HETATM    2  N   UNL     1      -6.812   9.241  69.071  1.00  0.00    -0.054 NA 
HETATM    3  C   UNL     1      -8.001   9.398  69.925  1.00  0.00    -0.130 C  
HETATM    4  C   UNL     1      -9.055  10.363  69.393  1.00  0.00    -0.170 C  
HETATM    5  C   UNL     1      -9.426  10.066  67.933  1.00  0.00    -0.144 C  
HETATM    6  C   UNL     1      -8.175   9.917  67.056  1.00  0.00    -0.117 C  
HETATM    7  C   UNL     1      -7.175   8.922  67.665  1.00  0.00    -0.080 C  
ENDROOT
BRANCH   5   8
HETATM    8  N   UNL     1     -10.366  11.059  67.411  1.00  0.00    -0.198 N  
HETATM    9  H   UNL     1     -11.344  10.805  67.272  1.00  0.00     0.000 HD 
BRANCH   8  10
HETATM   10  C   UNL     1      -9.944  12.329  67.106  1.00  0.00    -0.205 C  
HETATM   11  O   UNL     1      -9.858  12.753  65.958  1.00  0.00    -0.261 OA 
BRANCH  10  12
HETATM   12  N   UNL     1      -9.538  13.025  68.230  1.00  0.00    -0.226 N  
HETATM   13  H   UNL     1      -9.125  12.548  69.032  1.00  0.00     0.000 HD 
BRANCH  12  14
HETATM   14  C   UNL     1      -9.721  14.425  68.221  1.00  0.00    -0.222 A  
HETATM   15  C   UNL     1     -10.176  17.135  67.763  1.00  0.00    -0.324 A  
HETATM   16  C   UNL     1     -10.432  18.504  67.428  1.00  0.00    -0.419 C  
HETATM   17  N   UNL     1     -10.639  19.609  67.148  1.00  0.00    -0.482 NA 
HETATM   18  C   UNL     1      -8.651  15.250  67.879  1.00  0.00    -0.153 A  
HETATM   19  C   UNL     1     -11.226  16.319  68.190  1.00  0.00    -0.298 A  
HETATM   20  C   UNL     1     -10.996  14.965  68.420  1.00  0.00    -0.266 A  
HETATM   21  C   UNL     1      -8.887  16.603  67.625  1.00  0.00    -0.203 A  
ENDBRANCH  12  14
ENDBRANCH  10  12
ENDBRANCH   8  10
ENDBRANCH   5   8
BRANCH   7  22
HETATM   22  C   UNL     1      -7.692   7.510  67.518  1.00  0.00    -0.118 A  
HETATM   23  N   UNL     1      -7.684   6.568  68.441  1.00  0.00    -0.103 NA 
HETATM   24  N   UNL     1      -8.251   7.044  66.352  1.00  0.00    -0.112 NA 
HETATM   25  C   UNL     1      -8.247   5.468  67.854  1.00  0.00    -0.100 A  
HETATM   26  H   UNL     1      -7.332   6.644  69.396  1.00  0.00     0.000 HD 
HETATM   27  C   UNL     1      -8.604   5.732  66.536  1.00  0.00    -0.121 A  
HETATM   28  C   UNL     1      -8.486   4.196  68.393  1.00  0.00    -0.104 A  
HETATM   29  C   UNL     1      -9.187   4.780  65.699  1.00  0.00    -0.152 A  
HETATM   30  C   UNL     1      -9.422   3.516  66.255  1.00  0.00    -0.157 A  
HETATM   31  C   UNL     1      -9.080   3.226  67.579  1.00  0.00    -0.205 A  
ENDBRANCH   7  22
TORSDOF 5
ENDMDL
MODEL      205
REMARK 921   NORMALIZED FREE ENERGY PREDICTED BY IDOCK:   -3.48 KCAL/MOL
REMARK 922        TOTAL FREE ENERGY PREDICTED BY IDOCK:   -5.27 KCAL/MOL
REMARK 923 INTER-LIGAND FREE ENERGY PREDICTED BY IDOCK:   -4.01 KCAL/MOL
REMARK 924 INTRA-LIGAND FREE ENERGY PREDICTED BY IDOCK:   -1.26 KCAL/MOL
REMARK 927      BINDING AFFINITY PREDICTED BY RF-SCORE:    0.00 PKD
ROOT
HETATM    1  C   UNL     1      -7.743   3.692  63.951  1.00  0.00    -0.079 C  
HETATM    2  N   UNL     1      -8.470   4.842  64.510  1.00  0.00    -0.139 NA 
HETATM    3  C   UNL     1      -9.750   4.414  65.098  1.00  0.00    -0.178 C  
HETATM    4  C   UNL     1      -9.634   3.646  66.410  1.00  0.00    -0.152 C  
HETATM    5  C   UNL     1      -8.743   4.373  67.427  1.00  0.00    -0.105 C  
HETATM    6  C   UNL     1      -7.409   4.801  66.801  1.00  0.00    -0.082 C  
HETATM    7  C   UNL     1      -7.625   5.573  65.490  1.00  0.00    -0.079 C  
ENDROOT
BRANCH   5   8
HETATM    8  N   UNL     1      -8.565   3.576  68.643  1.00  0.00    -0.086 N  
HETATM    9  H   UNL     1      -8.264   2.605  68.571  1.00  0.00     0.000 HD 
BRANCH   8  10
HETATM   10  C   UNL     1      -8.800   4.125  69.879  1.00  0.00    -0.082 C  
HETATM   11  O   UNL     1      -9.922   4.245  70.360  1.00  0.00    -0.211 OA 
BRANCH  10  12
HETATM   12  N   UNL     1      -7.642   4.609  70.461  1.00  0.00    -0.053 N  
HETATM   13  H   UNL     1      -7.008   3.996  70.974  1.00  0.00     0.000 HD 
BRANCH  12  14
HETATM   14  C   UNL     1      -7.376   5.987  70.314  1.00  0.00    -0.088 A  
HETATM   15  C   UNL     1      -6.713   8.689  70.458  1.00  0.00    -0.040 A  
HETATM   16  C   UNL     1      -6.341  10.061  70.630  1.00  0.00    -0.100 C  
HETATM   17  N   UNL     1      -6.040  11.171  70.778  1.00  0.00    -0.358 NA 
HETATM   18  C   UNL     1      -8.353   6.913  70.677  1.00  0.00    -0.128 A  
HETATM   19  C   UNL     1      -5.764   7.765  70.012  1.00  0.00    -0.023 A  
HETATM   20  C   UNL     1      -6.098   6.416  69.940  1.00  0.00    -0.030 A  
HETATM   21  C   UNL     1      -8.010   8.264  70.772  1.00  0.00    -0.100 A  
ENDBRANCH  12  14
ENDBRANCH  10  12
ENDBRANCH   8  10
ENDBRANCH   5   8
BRANCH   7  22
HETATM   22  C   UNL     1      -8.161   6.955  65.783  1.00  0.00    -0.123 A  
HETATM   23  N   UNL     1      -8.839   7.729  64.957  1.00  0.00    -0.375 NA 
HETATM   24  N   UNL     1      -7.989   7.574  66.999  1.00  0.00    -0.115 NA 
HETATM   25  C   UNL     1      -9.107   8.874  65.656  1.00  0.00    -0.212 A  
HETATM   26  H   UNL     1      -9.109   7.517  63.996  1.00  0.00     0.000 HD 
HETATM   27  C   UNL     1      -8.575   8.811  66.940  1.00  0.00    -0.115 A  
HETATM   28  C   UNL     1      -9.804  10.021  65.252  1.00  0.00    -0.388 A  
HETATM   29  C   UNL     1      -8.689   9.852  67.864  1.00  0.00    -0.129 A  
HETATM   30  C   UNL     1      -9.393  10.988  67.444  1.00  0.00    -0.165 A  
HETATM   31  C   UNL     1      -9.943  11.074  66.162  1.00  0.00    -0.277 A  
ENDBRANCH   7  22
TORSDOF 5
ENDMDL
MODEL      206
REMARK 921   NORMALIZED FREE ENERGY PREDICTED BY IDOCK:   -3.44 KCAL/MOL
REMARK 922        TOTAL FREE ENERGY PREDICTED BY IDOCK:   -5.22 KCAL/MOL
REMARK 923 INTER-LIGAND FREE ENERGY PREDICTED BY IDOCK:   -5.24 KCAL/MOL
REMARK 924 INTRA-LIGAND FREE ENERGY PREDICTED BY IDOCK:    0.01 KCAL/MOL
REMARK 927      BINDING AFFINITY PREDICTED BY RF-SCORE:    0.00 PKD
ROOT
HETATM    1  C   UNL     1     -11.178   6.396  69.705  1.00  0.00    -0.418 C  
HETATM    2  N   UNL     1     -10.402   5.735  68.645  1.00  0.00    -0.200 NA 
HETATM    3  C   UNL     1     -10.989   6.008  67.322  1.00  0.00    -0.261 C  
HETATM    4  C   UNL     1     -10.786   7.428  66.806  1.00  0.00    -0.202 C  
HETATM    5  C   UNL     1      -9.318   7.869  66.890  1.00  0.00    -0.164 C  
HETATM    6  C   UNL     1      -8.726   7.588  68.279  1.00  0.00    -0.123 C  
HETATM    7  C   UNL     1      -8.972   6.134  68.712  1.00  0.00    -0.123 C  
ENDROOT
BRANCH   5   8
HETATM    8  N   UNL     1      -9.158   9.266  66.481  1.00  0.00    -0.147 N  
HETATM    9  H   UNL     1      -8.280   9.573  66.063  1.00  0.00     0.000 HD 
BRANCH   8  10
HETATM   10  C   UNL     1     -10.178  10.167  66.657  1.00  0.00    -0.224 C  
HETATM   11  O   UNL     1     -10.972  10.113  67.590  1.00  0.00    -0.289 OA 
BRANCH  10  12
HETATM   12  N   UNL     1     -10.260  11.069  65.611  1.00  0.00    -0.251 N  
HETATM   13  H   UNL     1     -10.233  10.760  64.638  1.00  0.00     0.000 HD 
BRANCH  12  14
HETATM   14  C   UNL     1     -10.383  12.434  65.946  1.00  0.00    -0.257 A  
HETATM   15  C   UNL     1     -10.675  14.982  67.034  1.00  0.00    -0.304 A  
HETATM   16  C   UNL     1     -10.831  16.247  67.687  1.00  0.00    -0.293 C  
HETATM   17  N   UNL     1     -10.961  17.266  68.224  1.00  0.00    -0.280 NA 
HETATM   18  C   UNL     1     -11.653  13.007  66.017  1.00  0.00    -0.409 A  
HETATM   19  C   UNL     1      -9.398  14.436  66.880  1.00  0.00    -0.269 A  
HETATM   20  C   UNL     1      -9.255  13.164  66.334  1.00  0.00    -0.134 A  
HETATM   21  C   UNL     1     -11.797  14.274  66.587  1.00  0.00    -0.442 A  
ENDBRANCH  12  14
ENDBRANCH  10  12
ENDBRANCH   8  10
ENDBRANCH   5   8
BRANCH   7  22
HETATM   22  C   UNL     1      -8.083   5.201  67.923  1.00  0.00    -0.098 A  
HETATM   23  N   UNL     1      -7.208   5.542  66.996  1.00  0.00    -0.077 NA 
HETATM   24  N   UNL     1      -8.096   3.838  68.102  1.00  0.00    -0.082 NA 
HETATM   25  C   UNL     1      -6.648   4.370  66.565  1.00  0.00    -0.049 A  
HETATM   26  H   UNL     1      -6.993   6.484  66.668  1.00  0.00     0.000 HD 
HETATM   27  C   UNL     1      -7.194   3.280  67.234  1.00  0.00    -0.058 A  
HETATM   28  C   UNL     1      -5.659   4.161  65.594  1.00  0.00    -0.017 A  
HETATM   29  C   UNL     1      -6.813   1.961  66.980  1.00  0.00    -0.039 A  
HETATM   30  C   UNL     1      -5.821   1.771  66.009  1.00  0.00    -0.018 A  
HETATM   31  C   UNL     1      -5.250   2.850  65.328  1.00  0.00    -0.009 A  
ENDBRANCH   7  22
TORSDOF 5
ENDMDL
MODEL      207
REMARK 921   NORMALIZED FREE ENERGY PREDICTED BY IDOCK:   -3.38 KCAL/MOL
REMARK 922        TOTAL FREE ENERGY PREDICTED BY IDOCK:   -5.15 KCAL/MOL
REMARK 923 INTER-LIGAND FREE ENERGY PREDICTED BY IDOCK:   -4.74 KCAL/MOL
REMARK 924 INTRA-LIGAND FREE ENERGY PREDICTED BY IDOCK:   -0.41 KCAL/MOL
REMARK 927      BINDING AFFINITY PREDICTED BY RF-SCORE:    0.00 PKD
ROOT
HETATM    1  C   UNL     1     -13.651   6.908  71.687  1.00  0.00    -0.175 C  
HETATM    2  N   UNL     1     -12.208   6.992  71.413  1.00  0.00    -0.346 NA 
HETATM    3  C   UNL     1     -11.965   7.504  70.054  1.00  0.00     0.346 C  
HETATM    4  C   UNL     1     -12.250   8.990  69.863  1.00  0.00     0.829 C  
HETATM    5  C   UNL     1     -11.571   9.851  70.937  1.00  0.00    -0.373 C  
HETATM    6  C   UNL     1     -11.845   9.310  72.347  1.00  0.00     0.023 C  
HETATM    7  C   UNL     1     -11.523   7.811  72.447  1.00  0.00    -0.363 C  
ENDROOT
BRANCH   5   8
HETATM    8  N   UNL     1     -11.934  11.263  70.794  1.00  0.00    -0.358 N  
HETATM    9  H   UNL     1     -12.501  11.713  71.511  1.00  0.00     0.000 HD 
BRANCH   8  10
HETATM   10  C   UNL     1     -11.517  11.985  69.704  1.00  0.00    -0.252 C  
HETATM   11  O   UNL     1     -10.424  11.828  69.169  1.00  0.00    -0.147 OA 
BRANCH  10  12
HETATM   12  N   UNL     1     -12.428  12.965  69.352  1.00  0.00     0.095 N  
HETATM   13  H   UNL     1     -13.408  12.906  69.629  1.00  0.00     0.000 HD 
BRANCH  12  14
HETATM   14  C   UNL     1     -11.943  14.051  68.592  1.00  0.00    -0.354 A  
HETATM   15  C   UNL     1     -10.576  16.013  67.163  1.00  0.00    -0.305 A  
HETATM   16  C   UNL     1      -9.785  16.970  66.449  1.00  0.00    -0.293 C  
HETATM   17  N   UNL     1      -9.137  17.741  65.875  1.00  0.00    -0.512 NA 
HETATM   18  C   UNL     1     -11.527  15.209  69.246  1.00  0.00    -0.327 A  
HETATM   19  C   UNL     1     -11.071  14.889  66.497  1.00  0.00    -0.341 A  
HETATM   20  C   UNL     1     -11.755  13.911  67.213  1.00  0.00    -0.418 A  
HETATM   21  C   UNL     1     -10.819  16.179  68.532  1.00  0.00    -0.313 A  
ENDBRANCH  12  14
ENDBRANCH  10  12
ENDBRANCH   8  10
ENDBRANCH   5   8
BRANCH   7  22
HETATM   22  C   UNL     1     -10.026   7.600  72.439  1.00  0.00    -0.203 A  
HETATM   23  N   UNL     1      -9.100   8.525  72.603  1.00  0.00    -0.324 NA 
HETATM   24  N   UNL     1      -9.453   6.364  72.254  1.00  0.00    -0.149 NA 
HETATM   25  C   UNL     1      -7.901   7.869  72.517  1.00  0.00    -0.117 A  
HETATM   26  H   UNL     1      -9.245   9.522  72.762  1.00  0.00     0.000 HD 
HETATM   27  C   UNL     1      -8.091   6.511  72.287  1.00  0.00    -0.106 A  
HETATM   28  C   UNL     1      -6.600   8.378  72.625  1.00  0.00    -0.104 A  
HETATM   29  C   UNL     1      -7.036   5.608  72.142  1.00  0.00    -0.081 A  
HETATM   30  C   UNL     1      -5.742   6.133  72.257  1.00  0.00    -0.036 A  
HETATM   31  C   UNL     1      -5.524   7.493  72.496  1.00  0.00    -0.037 A  
ENDBRANCH   7  22
TORSDOF 5
ENDMDL
MODEL      208
REMARK 921   NORMALIZED FREE ENERGY PREDICTED BY IDOCK:   -3.28 KCAL/MOL
REMARK 922        TOTAL FREE ENERGY PREDICTED BY IDOCK:   -5.01 KCAL/MOL
REMARK 923 INTER-LIGAND FREE ENERGY PREDICTED BY IDOCK:   -4.99 KCAL/MOL
REMARK 924 INTRA-LIGAND FREE ENERGY PREDICTED BY IDOCK:   -0.01 KCAL/MOL
REMARK 927      BINDING AFFINITY PREDICTED BY RF-SCORE:    0.00 PKD
ROOT
HETATM    1  C   UNL     1     -12.622   7.939  72.932  1.00  0.00     0.384 C  
HETATM    2  N   UNL     1     -12.405   7.750  71.490  1.00  0.00    -0.311 NA 
HETATM    3  C   UNL     1     -13.374   8.538  70.709  1.00  0.00     0.480 C  
HETATM    4  C   UNL     1     -13.132  10.044  70.711  1.00  0.00    -0.316 C  
HETATM    5  C   UNL     1     -11.680  10.396  70.358  1.00  0.00    -0.331 C  
HETATM    6  C   UNL     1     -10.685   9.574  71.188  1.00  0.00    -0.408 C  
HETATM    7  C   UNL     1     -11.001   8.072  71.122  1.00  0.00    -0.243 C  
ENDROOT
BRANCH   5   8
HETATM    8  N   UNL     1     -11.443  11.838  70.458  1.00  0.00    -0.368 N  
HETATM    9  H   UNL     1     -10.488  12.193  70.474  1.00  0.00     0.000 HD 
BRANCH   8  10
HETATM   10  C   UNL     1     -12.496  12.716  70.532  1.00  0.00    -0.193 C  
HETATM   11  O   UNL     1     -13.200  12.841  71.528  1.00  0.00    -0.346 OA 
BRANCH  10  12
HETATM   12  N   UNL     1     -12.722  13.357  69.327  1.00  0.00     0.198 N  
HETATM   13  H   UNL     1     -13.229  12.900  68.568  1.00  0.00     0.000 HD 
BRANCH  12  14
HETATM   14  C   UNL     1     -12.222  14.669  69.192  1.00  0.00    -0.188 A  
HETATM   15  C   UNL     1     -10.827  17.073  68.995  1.00  0.00    -0.206 A  
HETATM   16  C   UNL     1     -10.022  18.254  68.907  1.00  0.00    -0.339 C  
HETATM   17  N   UNL     1      -9.363  19.205  68.840  1.00  0.00    -0.364 NA 
HETATM   18  C   UNL     1     -12.036  15.448  70.334  1.00  0.00    -0.387 A  
HETATM   19  C   UNL     1     -11.092  16.329  67.843  1.00  0.00    -0.270 A  
HETATM   20  C   UNL     1     -11.791  15.129  67.944  1.00  0.00    -0.192 A  
HETATM   21  C   UNL     1     -11.314  16.640  70.235  1.00  0.00     0.094 A  
ENDBRANCH  12  14
ENDBRANCH  10  12
ENDBRANCH   8  10
ENDBRANCH   5   8
BRANCH   7  22
HETATM   22  C   UNL     1     -10.629   7.523  69.764  1.00  0.00    -0.241 A  
HETATM   23  N   UNL     1     -11.256   6.570  69.101  1.00  0.00    -0.515 NA 
HETATM   24  N   UNL     1      -9.550   7.985  69.048  1.00  0.00    -0.155 NA 
HETATM   25  C   UNL     1     -10.562   6.412  67.932  1.00  0.00    -0.258 A  
HETATM   26  H   UNL     1     -12.087   6.057  69.397  1.00  0.00     0.000 HD 
HETATM   27  C   UNL     1      -9.477   7.280  67.875  1.00  0.00    -0.135 A  
HETATM   28  C   UNL     1     -10.803   5.535  66.866  1.00  0.00    -0.224 A  
HETATM   29  C   UNL     1      -8.589   7.321  66.798  1.00  0.00    -0.127 A  
HETATM   30  C   UNL     1      -8.848   6.440  65.739  1.00  0.00    -0.111 A  
HETATM   31  C   UNL     1      -9.936   5.563  65.769  1.00  0.00     0.077 A  
ENDBRANCH   7  22
TORSDOF 5
ENDMDL
MODEL      209
REMARK 921   NORMALIZED FREE ENERGY PREDICTED BY IDOCK:   -3.24 KCAL/MOL
REMARK 922        TOTAL FREE ENERGY PREDICTED BY IDOCK:   -4.96 KCAL/MOL
REMARK 923 INTER-LIGAND FREE ENERGY PREDICTED BY IDOCK:   -4.69 KCAL/MOL
REMARK 924 INTRA-LIGAND FREE ENERGY PREDICTED BY IDOCK:   -0.27 KCAL/MOL
REMARK 927      BINDING AFFINITY PREDICTED BY RF-SCORE:    0.00 PKD
ROOT
HETATM    1  C   UNL     1     -11.346   6.652  69.558  1.00  0.00    -0.299 C  
HETATM    2  N   UNL     1     -10.474   6.699  68.375  1.00  0.00    -0.192 NA 
HETATM    3  C   UNL     1     -10.980   7.674  67.393  1.00  0.00    -0.042 C  
HETATM    4  C   UNL     1     -10.799   9.137  67.784  1.00  0.00    -0.159 C  
HETATM    5  C   UNL     1      -9.359   9.445  68.218  1.00  0.00    -0.133 C  
HETATM    6  C   UNL     1      -8.852   8.427  69.248  1.00  0.00    -0.142 C  
HETATM    7  C   UNL     1      -9.069   6.983  68.767  1.00  0.00    -0.133 C  
ENDROOT
BRANCH   5   8
HETATM    8  N   UNL     1      -9.227  10.828  68.680  1.00  0.00    -0.177 N  
HETATM    9  H   UNL     1      -9.751  11.140  69.498  1.00  0.00     0.000 HD 
BRANCH   8  10
HETATM   10  C   UNL     1      -8.407  11.710  68.022  1.00  0.00    -0.148 C  
HETATM   11  O   UNL     1      -7.971  11.511  66.893  1.00  0.00    -0.154 OA 
BRANCH  10  12
HETATM   12  N   UNL     1      -8.056  12.786  68.819  1.00  0.00    -0.344 N  
HETATM   13  H   UNL     1      -7.559  12.655  69.700  1.00  0.00     0.000 HD 
BRANCH  12  14
HETATM   14  C   UNL     1      -8.414  14.071  68.359  1.00  0.00    -0.166 A  
HETATM   15  C   UNL     1      -9.342  16.388  67.121  1.00  0.00    -0.228 A  
HETATM   16  C   UNL     1      -9.868  17.518  66.416  1.00  0.00    -0.309 C  
HETATM   17  N   UNL     1     -10.295  18.427  65.837  1.00  0.00    -0.601 NA 
HETATM   18  C   UNL     1      -7.623  14.696  67.397  1.00  0.00    -0.218 A  
HETATM   19  C   UNL     1     -10.089  15.803  68.147  1.00  0.00    -0.220 A  
HETATM   20  C   UNL     1      -9.623  14.647  68.765  1.00  0.00    -0.210 A  
HETATM   21  C   UNL     1      -8.103  15.844  66.760  1.00  0.00    -0.301 A  
ENDBRANCH  12  14
ENDBRANCH  10  12
ENDBRANCH   8  10
ENDBRANCH   5   8
BRANCH   7  22
HETATM   22  C   UNL     1      -8.092   6.653  67.663  1.00  0.00    -0.119 A  
HETATM   23  N   UNL     1      -7.505   7.508  66.848  1.00  0.00    -0.095 NA 
HETATM   24  N   UNL     1      -7.695   5.366  67.385  1.00  0.00    -0.095 NA 
HETATM   25  C   UNL     1      -6.716   6.754  66.022  1.00  0.00    -0.052 A  
HETATM   26  H   UNL     1      -7.617   8.522  66.835  1.00  0.00     0.000 HD 
HETATM   27  C   UNL     1      -6.823   5.402  66.328  1.00  0.00    -0.059 A  
HETATM   28  C   UNL     1      -5.875   7.163  64.978  1.00  0.00    -0.037 A  
HETATM   29  C   UNL     1      -6.135   4.406  65.633  1.00  0.00    -0.027 A  
HETATM   30  C   UNL     1      -5.296   4.833  64.595  1.00  0.00    -0.013 A  
HETATM   31  C   UNL     1      -5.165   6.187  64.272  1.00  0.00    -0.017 A  
ENDBRANCH   7  22
TORSDOF 5
ENDMDL
MODEL      210
REMARK 921   NORMALIZED FREE ENERGY PREDICTED BY IDOCK:   -3.23 KCAL/MOL
REMARK 922        TOTAL FREE ENERGY PREDICTED BY IDOCK:   -4.95 KCAL/MOL
REMARK 923 INTER-LIGAND FREE ENERGY PREDICTED BY IDOCK:   -4.84 KCAL/MOL
REMARK 924 INTRA-LIGAND FREE ENERGY PREDICTED BY IDOCK:   -0.11 KCAL/MOL
REMARK 927      BINDING AFFINITY PREDICTED BY RF-SCORE:    0.00 PKD
ROOT
HETATM    1  C   UNL     1      -8.706  10.236  63.482  1.00  0.00    -0.206 C  
HETATM    2  N   UNL     1      -8.533   9.373  64.661  1.00  0.00    -0.156 NA 
HETATM    3  C   UNL     1      -7.294   9.715  65.379  1.00  0.00    -0.108 C  
HETATM    4  C   UNL     1      -7.336  11.030  66.149  1.00  0.00    -0.060 C  
HETATM    5  C   UNL     1      -8.575  11.133  67.049  1.00  0.00    -0.147 C  
HETATM    6  C   UNL     1      -9.858  10.785  66.282  1.00  0.00    -0.262 C  
HETATM    7  C   UNL     1      -9.726   9.443  65.544  1.00  0.00    -0.230 C  
ENDROOT
BRANCH   5   8
HETATM    8  N   UNL     1      -8.648  12.440  67.706  1.00  0.00    -0.162 N  
HETATM    9  H   UNL     1      -8.686  12.493  68.724  1.00  0.00     0.000 HD 
BRANCH   8  10
HETATM   10  C   UNL     1      -8.666  13.595  66.965  1.00  0.00    -0.192 C  
HETATM   11  O   UNL     1      -9.606  13.919  66.247  1.00  0.00    -0.283 OA 
BRANCH  10  12
HETATM   12  N   UNL     1      -7.470  14.284  67.049  1.00  0.00    -0.266 N  
HETATM   13  H   UNL     1      -6.572  13.804  66.978  1.00  0.00     0.000 HD 
BRANCH  12  14
HETATM   14  C   UNL     1      -7.544  15.681  67.237  1.00  0.00    -0.214 A  
HETATM   15  C   UNL     1      -7.399  18.371  67.949  1.00  0.00    -0.242 A  
HETATM   16  C   UNL     1      -7.256  19.726  68.389  1.00  0.00    -0.317 C  
HETATM   17  N   UNL     1      -7.136  20.820  68.753  1.00  0.00     0.197 NA 
HETATM   18  C   UNL     1      -8.466  16.199  68.146  1.00  0.00    -0.175 A  
HETATM   19  C   UNL     1      -6.535  17.864  66.975  1.00  0.00    -0.194 A  
HETATM   20  C   UNL     1      -6.611  16.520  66.620  1.00  0.00    -0.071 A  
HETATM   21  C   UNL     1      -8.374  17.542  68.519  1.00  0.00    -0.274 A  
ENDBRANCH  12  14
ENDBRANCH  10  12
ENDBRANCH   8  10
ENDBRANCH   5   8
BRANCH   7  22
HETATM   22  C   UNL     1      -9.769   8.301  66.533  1.00  0.00    -0.253 A  
HETATM   23  N   UNL     1      -9.825   8.399  67.848  1.00  0.00    -0.162 NA 
HETATM   24  N   UNL     1      -9.756   6.983  66.144  1.00  0.00     0.027 NA 
HETATM   25  C   UNL     1      -9.843   7.114  68.316  1.00  0.00    -0.151 A  
HETATM   26  H   UNL     1      -9.849   9.256  68.401  1.00  0.00     0.000 HD 
HETATM   27  C   UNL     1      -9.790   6.200  67.269  1.00  0.00    -0.134 A  
HETATM   28  C   UNL     1      -9.904   6.649  69.637  1.00  0.00    -0.168 A  
HETATM   29  C   UNL     1      -9.781   4.818  67.463  1.00  0.00    -0.209 A  
HETATM   30  C   UNL     1      -9.846   4.371  68.789  1.00  0.00    -0.149 A  
HETATM   31  C   UNL     1      -9.909   5.268  69.859  1.00  0.00    -0.282 A  
ENDBRANCH   7  22
TORSDOF 5
ENDMDL
MODEL      211
REMARK 921   NORMALIZED FREE ENERGY PREDICTED BY IDOCK:   -3.18 KCAL/MOL
REMARK 922        TOTAL FREE ENERGY PREDICTED BY IDOCK:   -4.88 KCAL/MOL
REMARK 923 INTER-LIGAND FREE ENERGY PREDICTED BY IDOCK:   -4.72 KCAL/MOL
REMARK 924 INTRA-LIGAND FREE ENERGY PREDICTED BY IDOCK:   -0.16 KCAL/MOL
REMARK 927      BINDING AFFINITY PREDICTED BY RF-SCORE:    0.00 PKD
ROOT
HETATM    1  C   UNL     1      -9.090  14.330  66.021  1.00  0.00     0.131 C  
HETATM    2  N   UNL     1      -8.899  12.996  66.611  1.00  0.00    -0.134 NA 
HETATM    3  C   UNL     1      -8.541  13.103  68.036  1.00  0.00    -0.182 C  
HETATM    4  C   UNL     1      -9.680  13.523  68.958  1.00  0.00     0.214 C  
HETATM    5  C   UNL     1     -10.942  12.677  68.739  1.00  0.00    -0.249 C  
HETATM    6  C   UNL     1     -11.307  12.587  67.251  1.00  0.00    -0.373 C  
HETATM    7  C   UNL     1     -10.103  12.151  66.401  1.00  0.00    -0.220 C  
ENDROOT
BRANCH   5   8
HETATM    8  N   UNL     1     -12.054  13.158  69.563  1.00  0.00    -0.275 N  
HETATM    9  H   UNL     1     -12.878  12.572  69.691  1.00  0.00     0.000 HD 
BRANCH   8  10
HETATM   10  C   UNL     1     -11.995  14.389  70.167  1.00  0.00    -0.322 C  
HETATM   11  O   UNL     1     -11.650  14.553  71.332  1.00  0.00    -0.257 OA 
BRANCH  10  12
HETATM   12  N   UNL     1     -12.463  15.395  69.340  1.00  0.00    -0.607 N  
HETATM   13  H   UNL     1     -13.454  15.637  69.304  1.00  0.00     0.000 HD 
BRANCH  12  14
HETATM   14  C   UNL     1     -11.511  16.071  68.547  1.00  0.00    -0.357 A  
HETATM   15  C   UNL     1      -9.842  17.786  67.121  1.00  0.00    -0.311 A  
HETATM   16  C   UNL     1      -9.038  18.748  66.428  1.00  0.00    -0.300 C  
HETATM   17  N   UNL     1      -8.393  19.532  65.869  1.00  0.00    -0.435 NA 
HETATM   18  C   UNL     1     -11.828  16.395  67.229  1.00  0.00     0.927 A  
HETATM   19  C   UNL     1      -9.487  17.390  68.413  1.00  0.00    -0.293 A  
HETATM   20  C   UNL     1     -10.322  16.531  69.123  1.00  0.00    -0.316 A  
HETATM   21  C   UNL     1     -11.002  17.275  66.525  1.00  0.00     0.213 A  
ENDBRANCH  12  14
ENDBRANCH  10  12
ENDBRANCH   8  10
ENDBRANCH   5   8
BRANCH   7  22
HETATM   22  C   UNL     1      -9.814  10.684  66.626  1.00  0.00    -0.201 A  
HETATM   23  N   UNL     1      -8.628  10.133  66.800  1.00  0.00    -0.126 NA 
HETATM   24  N   UNL     1     -10.805   9.733  66.676  1.00  0.00    -0.026 NA 
HETATM   25  C   UNL     1      -8.861   8.794  66.961  1.00  0.00    -0.127 A  
HETATM   26  H   UNL     1      -7.724  10.606  66.812  1.00  0.00     0.000 HD 
HETATM   27  C   UNL     1     -10.220   8.510  66.877  1.00  0.00    -0.305 A  
HETATM   28  C   UNL     1      -7.949   7.753  67.184  1.00  0.00    -0.117 A  
HETATM   29  C   UNL     1     -10.737   7.219  66.992  1.00  0.00    -0.406 A  
HETATM   30  C   UNL     1      -9.812   6.191  67.219  1.00  0.00    -0.158 A  
HETATM   31  C   UNL     1      -8.442   6.451  67.315  1.00  0.00    -0.111 A  
ENDBRANCH   7  22
TORSDOF 5
ENDMDL
MODEL      212
REMARK 921   NORMALIZED FREE ENERGY PREDICTED BY IDOCK:   -2.95 KCAL/MOL
REMARK 922        TOTAL FREE ENERGY PREDICTED BY IDOCK:   -4.58 KCAL/MOL
REMARK 923 INTER-LIGAND FREE ENERGY PREDICTED BY IDOCK:   -4.68 KCAL/MOL
REMARK 924 INTRA-LIGAND FREE ENERGY PREDICTED BY IDOCK:    0.09 KCAL/MOL
REMARK 927      BINDING AFFINITY PREDICTED BY RF-SCORE:    0.00 PKD
ROOT
HETATM    1  C   UNL     1     -12.505   8.077  72.826  1.00  0.00     0.053 C  
HETATM    2  N   UNL     1     -11.501   7.468  71.939  1.00  0.00    -0.261 NA 
HETATM    3  C   UNL     1     -11.949   7.512  70.537  1.00  0.00    -0.061 C  
HETATM    4  C   UNL     1     -11.915   8.893  69.892  1.00  0.00     0.582 C  
HETATM    5  C   UNL     1     -10.562   9.590  70.090  1.00  0.00    -0.254 C  
HETATM    6  C   UNL     1     -10.117   9.545  71.558  1.00  0.00     0.009 C  
HETATM    7  C   UNL     1     -10.176   8.116  72.121  1.00  0.00    -0.262 C  
ENDROOT
BRANCH   5   8
HETATM    8  N   UNL     1     -10.581  10.950  69.547  1.00  0.00    -0.375 N  
HETATM    9  H   UNL     1      -9.762  11.310  69.057  1.00  0.00     0.000 HD 
BRANCH   8  10
HETATM   10  C   UNL     1     -11.690  11.746  69.693  1.00  0.00    -0.344 C  
HETATM   11  O   UNL     1     -12.395  11.742  70.696  1.00  0.00    -0.358 OA 
BRANCH  10  12
HETATM   12  N   UNL     1     -11.966  12.466  68.544  1.00  0.00    -0.289 N  
HETATM   13  H   UNL     1     -12.306  12.008  67.698  1.00  0.00     0.000 HD 
BRANCH  12  14
HETATM   14  C   UNL     1     -11.758  13.860  68.593  1.00  0.00    -0.361 A  
HETATM   15  C   UNL     1     -10.943  16.511  68.870  1.00  0.00    -0.325 A  
HETATM   16  C   UNL     1     -10.433  17.836  69.049  1.00  0.00    -0.152 C  
HETATM   17  N   UNL     1     -10.014  18.907  69.200  1.00  0.00    -0.314 NA 
HETATM   18  C   UNL     1     -12.078  14.557  69.758  1.00  0.00    -0.380 A  
HETATM   19  C   UNL     1     -10.701  15.832  67.672  1.00  0.00    -0.310 A  
HETATM   20  C   UNL     1     -11.111  14.509  67.536  1.00  0.00    -0.316 A  
HETATM   21  C   UNL     1     -11.645  15.878  69.903  1.00  0.00    -0.337 A  
ENDBRANCH  12  14
ENDBRANCH  10  12
ENDBRANCH   8  10
ENDBRANCH   5   8
BRANCH   7  22
HETATM   22  C   UNL     1      -9.053   7.285  71.545  1.00  0.00    -0.140 A  
HETATM   23  N   UNL     1      -9.100   6.003  71.237  1.00  0.00    -0.143 NA 
HETATM   24  N   UNL     1      -7.811   7.806  71.270  1.00  0.00    -0.084 NA 
HETATM   25  C   UNL     1      -7.857   5.691  70.757  1.00  0.00    -0.093 A  
HETATM   26  H   UNL     1      -9.897   5.374  71.337  1.00  0.00     0.000 HD 
HETATM   27  C   UNL     1      -7.021   6.802  70.775  1.00  0.00    -0.067 A  
HETATM   28  C   UNL     1      -7.368   4.465  70.284  1.00  0.00    -0.049 A  
HETATM   29  C   UNL     1      -5.691   6.762  70.351  1.00  0.00    -0.023 A  
HETATM   30  C   UNL     1      -5.221   5.530  69.878  1.00  0.00    -0.004 A  
HETATM   31  C   UNL     1      -6.043   4.400  69.843  1.00  0.00    -0.019 A  
ENDBRANCH   7  22
TORSDOF 5
ENDMDL
MODEL      213
REMARK 921   NORMALIZED FREE ENERGY PREDICTED BY IDOCK:   -2.81 KCAL/MOL
REMARK 922        TOTAL FREE ENERGY PREDICTED BY IDOCK:   -4.41 KCAL/MOL
REMARK 923 INTER-LIGAND FREE ENERGY PREDICTED BY IDOCK:   -4.52 KCAL/MOL
REMARK 924 INTRA-LIGAND FREE ENERGY PREDICTED BY IDOCK:    0.11 KCAL/MOL
REMARK 927      BINDING AFFINITY PREDICTED BY RF-SCORE:    0.00 PKD
ROOT
HETATM    1  C   UNL     1     -11.235   6.328  69.347  1.00  0.00    -0.420 C  
HETATM    2  N   UNL     1     -10.569   6.165  68.045  1.00  0.00    -0.238 NA 
HETATM    3  C   UNL     1     -10.998   7.215  67.105  1.00  0.00    -0.272 C  
HETATM    4  C   UNL     1     -10.444   8.606  67.395  1.00  0.00    -0.351 C  
HETATM    5  C   UNL     1      -8.921   8.591  67.592  1.00  0.00    -0.135 C  
HETATM    6  C   UNL     1      -8.494   7.499  68.582  1.00  0.00    -0.129 C  
HETATM    7  C   UNL     1      -9.092   6.134  68.208  1.00  0.00    -0.112 C  
ENDROOT
BRANCH   5   8
HETATM    8  N   UNL     1      -8.421   9.916  67.963  1.00  0.00    -0.117 N  
HETATM    9  H   UNL     1      -8.049  10.072  68.900  1.00  0.00     0.000 HD 
BRANCH   8  10
HETATM   10  C   UNL     1      -8.448  10.951  67.062  1.00  0.00    -0.134 C  
HETATM   11  O   UNL     1      -9.034  10.893  65.987  1.00  0.00    -0.174 OA 
BRANCH  10  12
HETATM   12  N   UNL     1      -7.660  12.014  67.468  1.00  0.00    -0.137 N  
HETATM   13  H   UNL     1      -6.662  11.898  67.648  1.00  0.00     0.000 HD 
BRANCH  12  14
HETATM   14  C   UNL     1      -8.296  13.264  67.623  1.00  0.00    -0.181 A  
HETATM   15  C   UNL     1      -9.363  15.736  68.342  1.00  0.00    -0.196 A  
HETATM   16  C   UNL     1      -9.860  16.997  68.803  1.00  0.00    -0.278 C  
HETATM   17  N   UNL     1     -10.261  18.015  69.184  1.00  0.00    -0.276 NA 
HETATM   18  C   UNL     1      -9.557  13.319  68.214  1.00  0.00    -0.221 A  
HETATM   19  C   UNL     1      -8.138  15.677  67.672  1.00  0.00    -0.166 A  
HETATM   20  C   UNL     1      -7.608  14.442  67.313  1.00  0.00    -0.135 A  
HETATM   21  C   UNL     1     -10.077  14.558  68.596  1.00  0.00    -0.244 A  
ENDBRANCH  12  14
ENDBRANCH  10  12
ENDBRANCH   8  10
ENDBRANCH   5   8
BRANCH   7  22
HETATM   22  C   UNL     1      -8.397   5.580  66.986  1.00  0.00    -0.107 A  
HETATM   23  N   UNL     1      -8.265   4.307  66.665  1.00  0.00    -0.102 NA 
HETATM   24  N   UNL     1      -7.806   6.384  66.041  1.00  0.00    -0.100 NA 
HETATM   25  C   UNL     1      -7.568   4.292  65.487  1.00  0.00    -0.085 A  
HETATM   26  H   UNL     1      -8.610   3.501  67.185  1.00  0.00     0.000 HD 
HETATM   27  C   UNL     1      -7.255   5.583  65.075  1.00  0.00    -0.066 A  
HETATM   28  C   UNL     1      -7.162   3.200  64.707  1.00  0.00    -0.066 A  
HETATM   29  C   UNL     1      -6.535   5.858  63.911  1.00  0.00    -0.029 A  
HETATM   30  C   UNL     1      -6.142   4.755  63.143  1.00  0.00    -0.018 A  
HETATM   31  C   UNL     1      -6.450   3.448  63.530  1.00  0.00    -0.029 A  
ENDBRANCH   7  22
TORSDOF 5
ENDMDL
MODEL      214
REMARK 921   NORMALIZED FREE ENERGY PREDICTED BY IDOCK:   -2.79 KCAL/MOL
REMARK 922        TOTAL FREE ENERGY PREDICTED BY IDOCK:   -4.38 KCAL/MOL
REMARK 923 INTER-LIGAND FREE ENERGY PREDICTED BY IDOCK:   -3.47 KCAL/MOL
REMARK 924 INTRA-LIGAND FREE ENERGY PREDICTED BY IDOCK:   -0.92 KCAL/MOL
REMARK 927      BINDING AFFINITY PREDICTED BY RF-SCORE:    0.00 PKD
ROOT
HETATM    1  C   UNL     1      -8.991   9.933  62.331  1.00  0.00    -0.274 C  
HETATM    2  N   UNL     1      -8.170   8.874  62.938  1.00  0.00    -0.180 NA 
HETATM    3  C   UNL     1      -6.746   9.249  62.930  1.00  0.00    -0.093 C  
HETATM    4  C   UNL     1      -6.360  10.339  63.924  1.00  0.00    -0.099 C  
HETATM    5  C   UNL     1      -6.872  10.037  65.340  1.00  0.00    -0.122 C  
HETATM    6  C   UNL     1      -8.360   9.659  65.330  1.00  0.00    -0.146 C  
HETATM    7  C   UNL     1      -8.653   8.551  64.306  1.00  0.00     0.023 C  
ENDROOT
BRANCH   5   8
HETATM    8  N   UNL     1      -6.576  11.138  66.259  1.00  0.00    -0.289 N  
HETATM    9  H   UNL     1      -6.001  11.918  65.943  1.00  0.00     0.000 HD 
BRANCH   8  10
HETATM   10  C   UNL     1      -7.066  11.129  67.541  1.00  0.00    -0.093 C  
HETATM   11  O   UNL     1      -7.889  11.940  67.953  1.00  0.00    -0.121 OA 
BRANCH  10  12
HETATM   12  N   UNL     1      -6.449  10.171  68.325  1.00  0.00    -0.053 N  
HETATM   13  H   UNL     1      -5.435  10.056  68.327  1.00  0.00     0.000 HD 
BRANCH  12  14
HETATM   14  C   UNL     1      -7.283   9.360  69.124  1.00  0.00    -0.066 A  
HETATM   15  C   UNL     1      -9.270   7.936  70.461  1.00  0.00    -0.158 A  
HETATM   16  C   UNL     1     -10.361   7.249  71.085  1.00  0.00    -0.198 C  
HETATM   17  N   UNL     1     -11.250   6.700  71.586  1.00  0.00    -0.252 NA 
HETATM   18  C   UNL     1      -7.842   9.891  70.285  1.00  0.00    -0.151 A  
HETATM   19  C   UNL     1      -8.644   7.372  69.347  1.00  0.00    -0.134 A  
HETATM   20  C   UNL     1      -7.650   8.085  68.681  1.00  0.00    -0.100 A  
HETATM   21  C   UNL     1      -8.856   9.186  70.938  1.00  0.00    -0.292 A  
ENDBRANCH  12  14
ENDBRANCH  10  12
ENDBRANCH   8  10
ENDBRANCH   5   8
BRANCH   7  22
HETATM   22  C   UNL     1      -8.114   7.229  64.802  1.00  0.00    -0.097 A  
HETATM   23  N   UNL     1      -7.039   6.602  64.363  1.00  0.00    -0.054 NA 
HETATM   24  N   UNL     1      -8.716   6.515  65.811  1.00  0.00    -0.145 NA 
HETATM   25  C   UNL     1      -6.950   5.455  65.104  1.00  0.00    -0.057 A  
HETATM   26  H   UNL     1      -6.405   6.909  63.625  1.00  0.00     0.000 HD 
HETATM   27  C   UNL     1      -7.997   5.366  66.015  1.00  0.00    -0.105 A  
HETATM   28  C   UNL     1      -5.993   4.433  65.048  1.00  0.00    -0.022 A  
HETATM   29  C   UNL     1      -8.158   4.289  66.888  1.00  0.00    -0.101 A  
HETATM   30  C   UNL     1      -7.190   3.279  66.822  1.00  0.00    -0.062 A  
HETATM   31  C   UNL     1      -6.124   3.347  65.920  1.00  0.00    -0.024 A  
ENDBRANCH   7  22
TORSDOF 5
ENDMDL
MODEL      215
REMARK 921   NORMALIZED FREE ENERGY PREDICTED BY IDOCK:   -2.78 KCAL/MOL
REMARK 922        TOTAL FREE ENERGY PREDICTED BY IDOCK:   -4.37 KCAL/MOL
REMARK 923 INTER-LIGAND FREE ENERGY PREDICTED BY IDOCK:   -5.00 KCAL/MOL
REMARK 924 INTRA-LIGAND FREE ENERGY PREDICTED BY IDOCK:    0.63 KCAL/MOL
REMARK 927      BINDING AFFINITY PREDICTED BY RF-SCORE:    0.00 PKD
ROOT
HETATM    1  C   UNL     1     -10.481  20.711  69.871  1.00  0.00     0.891 C  
HETATM    2  N   UNL     1      -9.427  20.110  69.038  1.00  0.00     0.055 NA 
HETATM    3  C   UNL     1      -9.058  18.778  69.546  1.00  0.00     0.463 C  
HETATM    4  C   UNL     1     -10.094  17.686  69.306  1.00  0.00    -0.147 C  
HETATM    5  C   UNL     1     -10.557  17.640  67.843  1.00  0.00    -0.387 C  
HETATM    6  C   UNL     1     -10.949  19.034  67.334  1.00  0.00    -0.371 C  
HETATM    7  C   UNL     1      -9.844  20.066  67.612  1.00  0.00    -0.413 C  
ENDROOT
BRANCH   5   8
HETATM    8  N   UNL     1     -11.620  16.650  67.653  1.00  0.00     0.262 N  
HETATM    9  H   UNL     1     -12.484  16.922  67.185  1.00  0.00     0.000 HD 
BRANCH   8  10
HETATM   10  C   UNL     1     -11.463  15.362  68.098  1.00  0.00    -0.343 C  
HETATM   11  O   UNL     1     -10.617  15.032  68.922  1.00  0.00    -0.227 OA 
BRANCH  10  12
HETATM   12  N   UNL     1     -12.297  14.479  67.436  1.00  0.00    -0.575 N  
HETATM   13  H   UNL     1     -13.276  14.368  67.705  1.00  0.00     0.000 HD 
BRANCH  12  14
HETATM   14  C   UNL     1     -11.738  13.739  66.373  1.00  0.00    -0.379 A  
HETATM   15  C   UNL     1     -10.293  12.191  64.561  1.00  0.00    -0.335 A  
HETATM   16  C   UNL     1      -9.480  11.380  63.706  1.00  0.00    -0.171 C  
HETATM   17  N   UNL     1      -8.815  10.725  63.019  1.00  0.00    -0.218 NA 
HETATM   18  C   UNL     1     -10.833  14.358  65.512  1.00  0.00    -0.335 A  
HETATM   19  C   UNL     1     -11.264  11.590  65.367  1.00  0.00    -0.207 A  
HETATM   20  C   UNL     1     -11.986  12.366  66.270  1.00  0.00    -0.369 A  
HETATM   21  C   UNL     1     -10.092  13.576  64.623  1.00  0.00    -0.246 A  
ENDBRANCH  12  14
ENDBRANCH  10  12
ENDBRANCH   8  10
ENDBRANCH   5   8
BRANCH   7  22
HETATM   22  C   UNL     1      -8.674  19.836  66.684  1.00  0.00    -0.354 A  
HETATM   23  N   UNL     1      -8.171  20.699  65.822  1.00  0.00    -0.258 NA 
HETATM   24  N   UNL     1      -7.981  18.649  66.645  1.00  0.00    -0.256 NA 
HETATM   25  C   UNL     1      -7.133  20.050  65.210  1.00  0.00    -0.219 A  
HETATM   26  H   UNL     1      -8.490  21.653  65.648  1.00  0.00     0.000 HD 
HETATM   27  C   UNL     1      -6.996  18.756  65.698  1.00  0.00    -0.225 A  
HETATM   28  C   UNL     1      -6.258  20.512  64.217  1.00  0.00    -0.338 A  
HETATM   29  C   UNL     1      -6.023  17.867  65.238  1.00  0.00     0.014 A  
HETATM   30  C   UNL     1      -5.155  18.346  64.249  1.00  0.00    -0.052 A  
HETATM   31  C   UNL     1      -5.266  19.645  63.746  1.00  0.00    -0.256 A  
ENDBRANCH   7  22
TORSDOF 5
ENDMDL
MODEL      216
REMARK 921   NORMALIZED FREE ENERGY PREDICTED BY IDOCK:   -2.72 KCAL/MOL
REMARK 922        TOTAL FREE ENERGY PREDICTED BY IDOCK:   -4.29 KCAL/MOL
REMARK 923 INTER-LIGAND FREE ENERGY PREDICTED BY IDOCK:   -4.58 KCAL/MOL
REMARK 924 INTRA-LIGAND FREE ENERGY PREDICTED BY IDOCK:    0.29 KCAL/MOL
REMARK 927      BINDING AFFINITY PREDICTED BY RF-SCORE:    0.00 PKD
ROOT
HETATM    1  C   UNL     1      -7.213  13.687  66.734  1.00  0.00     1.124 C  
HETATM    2  N   UNL     1      -7.216  15.077  67.215  1.00  0.00    -0.188 NA 
HETATM    3  C   UNL     1      -8.482  15.746  66.869  1.00  0.00    -0.246 C  
HETATM    4  C   UNL     1      -9.692  15.295  67.678  1.00  0.00    -0.208 C  
HETATM    5  C   UNL     1      -9.418  15.319  69.189  1.00  0.00    -0.236 C  
HETATM    6  C   UNL     1      -8.102  14.608  69.532  1.00  0.00     0.099 C  
HETATM    7  C   UNL     1      -6.940  15.131  68.674  1.00  0.00    -0.113 C  
ENDROOT
BRANCH   5   8
HETATM    8  N   UNL     1     -10.558  14.792  69.944  1.00  0.00    -0.448 N  
HETATM    9  H   UNL     1     -10.406  14.377  70.862  1.00  0.00     0.000 HD 
BRANCH   8  10
HETATM   10  C   UNL     1     -11.828  14.853  69.426  1.00  0.00    -0.324 C  
HETATM   11  O   UNL     1     -12.186  15.705  68.620  1.00  0.00    -0.180 OA 
BRANCH  10  12
HETATM   12  N   UNL     1     -12.666  13.911  69.996  1.00  0.00    -0.287 N  
HETATM   13  H   UNL     1     -13.587  14.165  70.353  1.00  0.00     0.000 HD 
BRANCH  12  14
HETATM   14  C   UNL     1     -12.192  12.584  70.061  1.00  0.00    -0.192 A  
HETATM   15  C   UNL     1     -11.692   9.844  70.144  1.00  0.00    -0.239 A  
HETATM   16  C   UNL     1     -11.537   8.421  70.173  1.00  0.00     0.104 C  
HETATM   17  N   UNL     1     -11.422   7.268  70.197  1.00  0.00    -0.213 NA 
HETATM   18  C   UNL     1     -12.160  11.931  71.292  1.00  0.00     0.167 A  
HETATM   19  C   UNL     1     -11.641  10.521  68.923  1.00  0.00    -0.266 A  
HETATM   20  C   UNL     1     -11.889  11.891  68.884  1.00  0.00    -0.366 A  
HETATM   21  C   UNL     1     -11.934  10.553  71.328  1.00  0.00    -0.386 A  
ENDBRANCH  12  14
ENDBRANCH  10  12
ENDBRANCH   8  10
ENDBRANCH   5   8
BRANCH   7  22
HETATM   22  C   UNL     1      -6.542  16.517  69.127  1.00  0.00    -0.200 A  
HETATM   23  N   UNL     1      -5.885  16.827  70.228  1.00  0.00    -0.179 NA 
HETATM   24  N   UNL     1      -6.838  17.646  68.402  1.00  0.00    -0.206 NA 
HETATM   25  C   UNL     1      -5.759  18.190  70.214  1.00  0.00    -0.202 A  
HETATM   26  H   UNL     1      -5.542  16.185  70.943  1.00  0.00     0.000 HD 
HETATM   27  C   UNL     1      -6.358  18.734  69.083  1.00  0.00    -0.265 A  
HETATM   28  C   UNL     1      -5.140  19.035  71.144  1.00  0.00    -0.285 A  
HETATM   29  C   UNL     1      -6.389  20.105  68.823  1.00  0.00    -0.348 A  
HETATM   30  C   UNL     1      -5.762  20.935  69.761  1.00  0.00    -0.213 A  
HETATM   31  C   UNL     1      -5.146  20.413  70.902  1.00  0.00    -0.283 A  
ENDBRANCH   7  22
TORSDOF 5
ENDMDL
MODEL      217
REMARK 921   NORMALIZED FREE ENERGY PREDICTED BY IDOCK:   -2.69 KCAL/MOL
REMARK 922        TOTAL FREE ENERGY PREDICTED BY IDOCK:   -4.26 KCAL/MOL
REMARK 923 INTER-LIGAND FREE ENERGY PREDICTED BY IDOCK:   -4.66 KCAL/MOL
REMARK 924 INTRA-LIGAND FREE ENERGY PREDICTED BY IDOCK:    0.41 KCAL/MOL
REMARK 927      BINDING AFFINITY PREDICTED BY RF-SCORE:    0.00 PKD
ROOT
HETATM    1  C   UNL     1      -8.658  10.170  63.842  1.00  0.00    -0.193 C  
HETATM    2  N   UNL     1      -7.959   9.463  64.926  1.00  0.00    -0.114 NA 
HETATM    3  C   UNL     1      -6.977  10.348  65.576  1.00  0.00    -0.134 C  
HETATM    4  C   UNL     1      -7.575  11.440  66.456  1.00  0.00    -0.080 C  
HETATM    5  C   UNL     1      -8.601  10.881  67.453  1.00  0.00    -0.127 C  
HETATM    6  C   UNL     1      -9.622   9.971  66.757  1.00  0.00    -0.228 C  
HETATM    7  C   UNL     1      -8.930   8.900  65.900  1.00  0.00    -0.200 C  
ENDROOT
BRANCH   5   8
HETATM    8  N   UNL     1      -9.233  11.955  68.223  1.00  0.00    -0.186 N  
HETATM    9  H   UNL     1      -9.509  11.788  69.190  1.00  0.00     0.000 HD 
BRANCH   8  10
HETATM   10  C   UNL     1      -9.459  13.183  67.653  1.00  0.00    -0.207 C  
HETATM   11  O   UNL     1     -10.180  13.350  66.675  1.00  0.00    -0.264 OA 
BRANCH  10  12
HETATM   12  N   UNL     1      -8.705  14.178  68.250  1.00  0.00    -0.176 N  
HETATM   13  H   UNL     1      -8.035  13.967  68.989  1.00  0.00     0.000 HD 
BRANCH  12  14
HETATM   14  C   UNL     1      -8.902  15.497  67.790  1.00  0.00    -0.172 A  
HETATM   15  C   UNL     1      -9.179  18.227  67.305  1.00  0.00    -0.256 A  
HETATM   16  C   UNL     1      -9.291  19.647  67.155  1.00  0.00    -0.337 C  
HETATM   17  N   UNL     1      -9.382  20.797  67.043  1.00  0.00    -0.282 NA 
HETATM   18  C   UNL     1     -10.148  16.100  67.961  1.00  0.00    -0.242 A  
HETATM   19  C   UNL     1      -7.956  17.599  67.055  1.00  0.00    -0.242 A  
HETATM   20  C   UNL     1      -7.821  16.235  67.296  1.00  0.00    -0.203 A  
HETATM   21  C   UNL     1     -10.276  17.474  67.741  1.00  0.00    -0.349 A  
ENDBRANCH  12  14
ENDBRANCH  10  12
ENDBRANCH   8  10
ENDBRANCH   5   8
BRANCH   7  22
HETATM   22  C   UNL     1      -8.301   7.851  66.789  1.00  0.00    -0.120 A  
HETATM   23  N   UNL     1      -8.661   6.586  66.889  1.00  0.00    -0.113 NA 
HETATM   24  N   UNL     1      -7.240   8.123  67.619  1.00  0.00    -0.090 NA 
HETATM   25  C   UNL     1      -7.813   6.031  67.809  1.00  0.00    -0.105 A  
HETATM   26  H   UNL     1      -9.414   6.117  66.385  1.00  0.00     0.000 HD 
HETATM   27  C   UNL     1      -6.916   6.976  68.295  1.00  0.00    -0.080 A  
HETATM   28  C   UNL     1      -7.755   4.714  68.284  1.00  0.00    -0.081 A  
HETATM   29  C   UNL     1      -5.947   6.683  69.256  1.00  0.00    -0.022 A  
HETATM   30  C   UNL     1      -5.901   5.361  69.716  1.00  0.00    -0.017 A  
HETATM   31  C   UNL     1      -6.786   4.390  69.239  1.00  0.00    -0.046 A  
ENDBRANCH   7  22
TORSDOF 5
ENDMDL
MODEL      218
REMARK 921   NORMALIZED FREE ENERGY PREDICTED BY IDOCK:   -2.52 KCAL/MOL
REMARK 922        TOTAL FREE ENERGY PREDICTED BY IDOCK:   -4.03 KCAL/MOL
REMARK 923 INTER-LIGAND FREE ENERGY PREDICTED BY IDOCK:   -4.37 KCAL/MOL
REMARK 924 INTRA-LIGAND FREE ENERGY PREDICTED BY IDOCK:    0.34 KCAL/MOL
REMARK 927      BINDING AFFINITY PREDICTED BY RF-SCORE:    0.00 PKD
ROOT
HETATM    1  C   UNL     1     -10.211  15.647  70.171  1.00  0.00    -0.196 C  
HETATM    2  N   UNL     1      -9.122  16.314  69.439  1.00  0.00    -0.169 NA 
HETATM    3  C   UNL     1      -7.813  15.942  70.001  1.00  0.00     0.602 C  
HETATM    4  C   UNL     1      -7.361  14.518  69.696  1.00  0.00    -0.011 C  
HETATM    5  C   UNL     1      -7.466  14.186  68.201  1.00  0.00    -0.129 C  
HETATM    6  C   UNL     1      -8.840  14.569  67.635  1.00  0.00    -0.189 C  
HETATM    7  C   UNL     1      -9.208  16.020  67.985  1.00  0.00    -0.193 C  
ENDROOT
BRANCH   5   8
HETATM    8  N   UNL     1      -7.119  12.787  67.941  1.00  0.00    -0.103 N  
HETATM    9  H   UNL     1      -6.307  12.374  68.399  1.00  0.00     0.000 HD 
BRANCH   8  10
HETATM   10  C   UNL     1      -7.878  12.026  67.087  1.00  0.00    -0.168 C  
HETATM   11  O   UNL     1      -7.465  11.606  66.012  1.00  0.00     0.191 OA 
BRANCH  10  12
HETATM   12  N   UNL     1      -9.178  11.880  67.538  1.00  0.00    -0.173 N  
HETATM   13  H   UNL     1      -9.884  12.598  67.370  1.00  0.00     0.000 HD 
BRANCH  12  14
HETATM   14  C   UNL     1      -9.486  10.695  68.240  1.00  0.00    -0.159 A  
HETATM   15  C   UNL     1     -10.378   8.271  69.283  1.00  0.00    -0.223 A  
HETATM   16  C   UNL     1     -10.896   7.014  69.734  1.00  0.00    -0.248 C  
HETATM   17  N   UNL     1     -11.322   5.997  70.092  1.00  0.00    -0.350 NA 
HETATM   18  C   UNL     1     -10.572  10.684  69.115  1.00  0.00    -0.256 A  
HETATM   19  C   UNL     1      -9.239   8.300  68.474  1.00  0.00    -0.136 A  
HETATM   20  C   UNL     1      -8.795   9.513  67.956  1.00  0.00    -0.123 A  
HETATM   21  C   UNL     1     -11.032   9.464  69.616  1.00  0.00    -0.216 A  
ENDBRANCH  12  14
ENDBRANCH  10  12
ENDBRANCH   8  10
ENDBRANCH   5   8
BRANCH   7  22
HETATM   22  C   UNL     1      -8.378  16.978  67.162  1.00  0.00    -0.191 A  
HETATM   23  N   UNL     1      -7.343  16.673  66.404  1.00  0.00    -0.239 NA 
HETATM   24  N   UNL     1      -8.633  18.328  67.116  1.00  0.00    -0.244 NA 
HETATM   25  C   UNL     1      -6.918  17.855  65.861  1.00  0.00    -0.278 A  
HETATM   26  H   UNL     1      -6.941  15.747  66.253  1.00  0.00     0.000 HD 
HETATM   27  C   UNL     1      -7.703  18.916  66.299  1.00  0.00    -0.276 A  
HETATM   28  C   UNL     1      -5.856  18.098  64.979  1.00  0.00    -0.058 A  
HETATM   29  C   UNL     1      -7.482  20.238  65.910  1.00  0.00    -0.220 A  
HETATM   30  C   UNL     1      -6.420  20.462  65.025  1.00  0.00    -0.332 A  
HETATM   31  C   UNL     1      -5.620  19.413  64.564  1.00  0.00    -0.282 A  
ENDBRANCH   7  22
TORSDOF 5
ENDMDL
MODEL      219
REMARK 921   NORMALIZED FREE ENERGY PREDICTED BY IDOCK:   -2.37 KCAL/MOL
REMARK 922        TOTAL FREE ENERGY PREDICTED BY IDOCK:   -3.83 KCAL/MOL
REMARK 923 INTER-LIGAND FREE ENERGY PREDICTED BY IDOCK:   -4.02 KCAL/MOL
REMARK 924 INTRA-LIGAND FREE ENERGY PREDICTED BY IDOCK:    0.18 KCAL/MOL
REMARK 927      BINDING AFFINITY PREDICTED BY RF-SCORE:    0.00 PKD
ROOT
HETATM    1  C   UNL     1     -11.265   6.035  69.429  1.00  0.00    -0.327 C  
HETATM    2  N   UNL     1     -10.553   5.669  68.195  1.00  0.00    -0.207 NA 
HETATM    3  C   UNL     1     -10.970   6.531  67.077  1.00  0.00    -0.396 C  
HETATM    4  C   UNL     1     -10.454   7.964  67.140  1.00  0.00    -0.414 C  
HETATM    5  C   UNL     1      -8.939   8.022  67.383  1.00  0.00    -0.134 C  
HETATM    6  C   UNL     1      -8.524   7.127  68.558  1.00  0.00    -0.125 C  
HETATM    7  C   UNL     1      -9.082   5.703  68.406  1.00  0.00    -0.117 C  
ENDROOT
BRANCH   5   8
HETATM    8  N   UNL     1      -8.477   9.404  67.536  1.00  0.00    -0.122 N  
HETATM    9  H   UNL     1      -9.074  10.087  68.002  1.00  0.00     0.000 HD 
BRANCH   8  10
HETATM   10  C   UNL     1      -7.250   9.788  67.057  1.00  0.00    -0.090 C  
HETATM   11  O   UNL     1      -6.512   9.043  66.420  1.00  0.00    -0.064 OA 
BRANCH  10  12
HETATM   12  N   UNL     1      -6.911  11.066  67.463  1.00  0.00    -0.082 N  
HETATM   13  H   UNL     1      -6.107  11.238  68.067  1.00  0.00     0.000 HD 
BRANCH  12  14
HETATM   14  C   UNL     1      -7.726  12.124  67.005  1.00  0.00    -0.112 A  
HETATM   15  C   UNL     1      -9.579  14.136  66.476  1.00  0.00    -0.310 A  
HETATM   16  C   UNL     1     -10.578  15.146  66.295  1.00  0.00    -0.310 C  
HETATM   17  N   UNL     1     -11.391  15.960  66.155  1.00  0.00     0.103 NA 
HETATM   18  C   UNL     1      -8.850  11.834  66.233  1.00  0.00    -0.142 A  
HETATM   19  C   UNL     1      -8.408  14.439  67.176  1.00  0.00    -0.214 A  
HETATM   20  C   UNL     1      -7.483  13.432  67.437  1.00  0.00    -0.134 A  
HETATM   21  C   UNL     1      -9.789  12.839  65.992  1.00  0.00    -0.258 A  
ENDBRANCH  12  14
ENDBRANCH  10  12
ENDBRANCH   8  10
ENDBRANCH   5   8
BRANCH   7  22
HETATM   22  C   UNL     1      -8.334   4.966  67.319  1.00  0.00    -0.106 A  
HETATM   23  N   UNL     1      -7.740   5.501  66.270  1.00  0.00    -0.098 NA 
HETATM   24  N   UNL     1      -8.189   3.599  67.316  1.00  0.00    -0.090 NA 
HETATM   25  C   UNL     1      -7.204   4.453  65.572  1.00  0.00    -0.068 A  
HETATM   26  H   UNL     1      -7.691   6.491  66.028  1.00  0.00     0.000 HD 
HETATM   27  C   UNL     1      -7.479   3.243  66.200  1.00  0.00    -0.076 A  
HETATM   28  C   UNL     1      -6.464   4.463  64.382  1.00  0.00    -0.038 A  
HETATM   29  C   UNL     1      -7.060   2.011  65.695  1.00  0.00    -0.052 A  
HETATM   30  C   UNL     1      -6.319   2.040  64.506  1.00  0.00    -0.019 A  
HETATM   31  C   UNL     1      -6.023   3.243  63.860  1.00  0.00    -0.014 A  
ENDBRANCH   7  22
TORSDOF 5
ENDMDL
MODEL      220
REMARK 921   NORMALIZED FREE ENERGY PREDICTED BY IDOCK:   -2.36 KCAL/MOL
REMARK 922        TOTAL FREE ENERGY PREDICTED BY IDOCK:   -3.83 KCAL/MOL
REMARK 923 INTER-LIGAND FREE ENERGY PREDICTED BY IDOCK:   -3.97 KCAL/MOL
REMARK 924 INTRA-LIGAND FREE ENERGY PREDICTED BY IDOCK:    0.14 KCAL/MOL
REMARK 927      BINDING AFFINITY PREDICTED BY RF-SCORE:    0.00 PKD
ROOT
HETATM    1  C   UNL     1     -12.230  15.979  65.694  1.00  0.00     1.563 C  
HETATM    2  N   UNL     1     -11.245  14.977  65.259  1.00  0.00    -0.358 NA 
HETATM    3  C   UNL     1      -9.878  15.516  65.348  1.00  0.00    -0.256 C  
HETATM    4  C   UNL     1      -9.335  15.669  66.765  1.00  0.00    -0.268 C  
HETATM    5  C   UNL     1      -9.507  14.386  67.590  1.00  0.00    -0.214 C  
HETATM    6  C   UNL     1     -10.940  13.845  67.495  1.00  0.00    -0.288 C  
HETATM    7  C   UNL     1     -11.398  13.718  66.034  1.00  0.00    -0.314 C  
ENDROOT
BRANCH   5   8
HETATM    8  N   UNL     1      -9.069  14.582  68.974  1.00  0.00    -0.368 N  
HETATM    9  H   UNL     1      -9.748  14.524  69.732  1.00  0.00     0.000 HD 
BRANCH   8  10
HETATM   10  C   UNL     1      -7.752  14.842  69.260  1.00  0.00    -0.166 C  
HETATM   11  O   UNL     1      -7.193  15.892  68.962  1.00  0.00    -0.151 OA 
BRANCH  10  12
HETATM   12  N   UNL     1      -7.118  13.751  69.827  1.00  0.00    -0.337 N  
HETATM   13  H   UNL     1      -6.894  13.723  70.822  1.00  0.00     0.000 HD 
BRANCH  12  14
HETATM   14  C   UNL     1      -6.796  12.677  68.970  1.00  0.00    -0.083 A  
HETATM   15  C   UNL     1      -6.179  10.864  66.945  1.00  0.00    -0.087 A  
HETATM   16  C   UNL     1      -5.867  10.013  65.838  1.00  0.00    -0.071 C  
HETATM   17  N   UNL     1      -5.616   9.330  64.935  1.00  0.00    -0.060 NA 
HETATM   18  C   UNL     1      -7.824  11.967  68.350  1.00  0.00    -0.147 A  
HETATM   19  C   UNL     1      -5.150  11.515  67.631  1.00  0.00    -0.053 A  
HETATM   20  C   UNL     1      -5.461  12.419  68.643  1.00  0.00    -0.054 A  
HETATM   21  C   UNL     1      -7.513  11.079  67.318  1.00  0.00    -0.107 A  
ENDBRANCH  12  14
ENDBRANCH  10  12
ENDBRANCH   8  10
ENDBRANCH   5   8
BRANCH   7  22
HETATM   22  C   UNL     1     -10.700  12.553  65.371  1.00  0.00    -0.280 A  
HETATM   23  N   UNL     1     -10.458  11.372  65.905  1.00  0.00    -0.252 NA 
HETATM   24  N   UNL     1     -10.227  12.610  64.081  1.00  0.00    -0.369 NA 
HETATM   25  C   UNL     1      -9.809  10.652  64.939  1.00  0.00    -0.302 A  
HETATM   26  H   UNL     1     -10.703  11.058  66.845  1.00  0.00     0.000 HD 
HETATM   27  C   UNL     1      -9.639  11.408  63.784  1.00  0.00    -0.237 A  
HETATM   28  C   UNL     1      -9.330   9.336  64.981  1.00  0.00    -0.196 A  
HETATM   29  C   UNL     1      -8.995  10.923  62.644  1.00  0.00    -0.348 A  
HETATM   30  C   UNL     1      -8.526   9.604  62.703  1.00  0.00    -0.180 A  
HETATM   31  C   UNL     1      -8.691   8.821  63.849  1.00  0.00     0.008 A  
ENDBRANCH   7  22
TORSDOF 5
ENDMDL
MODEL      221
REMARK 921   NORMALIZED FREE ENERGY PREDICTED BY IDOCK:   -2.24 KCAL/MOL
REMARK 922        TOTAL FREE ENERGY PREDICTED BY IDOCK:   -3.66 KCAL/MOL
REMARK 923 INTER-LIGAND FREE ENERGY PREDICTED BY IDOCK:   -3.58 KCAL/MOL
REMARK 924 INTRA-LIGAND FREE ENERGY PREDICTED BY IDOCK:   -0.08 KCAL/MOL
REMARK 927      BINDING AFFINITY PREDICTED BY RF-SCORE:    0.00 PKD
ROOT
HETATM    1  C   UNL     1     -10.388  20.523  69.942  1.00  0.00     0.692 C  
HETATM    2  N   UNL     1      -9.375  19.939  69.050  1.00  0.00    -0.141 NA 
HETATM    3  C   UNL     1      -9.048  18.564  69.462  1.00  0.00     0.552 C  
HETATM    4  C   UNL     1     -10.130  17.529  69.174  1.00  0.00    -0.231 C  
HETATM    5  C   UNL     1     -10.621  17.597  67.721  1.00  0.00    -0.378 C  
HETATM    6  C   UNL     1     -10.968  19.035  67.312  1.00  0.00    -0.365 C  
HETATM    7  C   UNL     1      -9.819  20.004  67.633  1.00  0.00    -0.413 C  
ENDROOT
BRANCH   5   8
HETATM    8  N   UNL     1     -11.724  16.662  67.489  1.00  0.00     0.515 N  
HETATM    9  H   UNL     1     -12.532  16.960  66.941  1.00  0.00     0.000 HD 
BRANCH   8  10
HETATM   10  C   UNL     1     -11.682  15.390  68.001  1.00  0.00    -0.221 C  
HETATM   11  O   UNL     1     -12.059  15.107  69.133  1.00  0.00    -0.290 OA 
BRANCH  10  12
HETATM   12  N   UNL     1     -11.078  14.500  67.131  1.00  0.00    -0.311 N  
HETATM   13  H   UNL     1     -11.226  14.557  66.123  1.00  0.00     0.000 HD 
BRANCH  12  14
HETATM   14  C   UNL     1     -10.247  13.510  67.698  1.00  0.00    -0.239 A  
HETATM   15  C   UNL     1      -8.469  11.479  68.390  1.00  0.00    -0.159 A  
HETATM   16  C   UNL     1      -7.530  10.429  68.645  1.00  0.00    -0.088 C  
HETATM   17  N   UNL     1      -6.769   9.577  68.842  1.00  0.00    -0.050 NA 
HETATM   18  C   UNL     1     -10.704  12.195  67.771  1.00  0.00    -0.241 A  
HETATM   19  C   UNL     1      -8.040  12.809  68.399  1.00  0.00    -0.129 A  
HETATM   20  C   UNL     1      -8.931  13.822  68.054  1.00  0.00    -0.187 A  
HETATM   21  C   UNL     1      -9.804  11.177  68.093  1.00  0.00    -0.188 A  
ENDBRANCH  12  14
ENDBRANCH  10  12
ENDBRANCH   8  10
ENDBRANCH   5   8
BRANCH   7  22
HETATM   22  C   UNL     1      -8.676  19.792  66.668  1.00  0.00    -0.354 A  
HETATM   23  N   UNL     1      -8.320  20.592  65.681  1.00  0.00    -0.309 NA 
HETATM   24  N   UNL     1      -7.851  18.694  66.726  1.00  0.00    -0.237 NA 
HETATM   25  C   UNL     1      -7.244  19.992  65.086  1.00  0.00    -0.043 A  
HETATM   26  H   UNL     1      -8.757  21.475  65.415  1.00  0.00     0.000 HD 
HETATM   27  C   UNL     1      -6.932  18.791  65.714  1.00  0.00    -0.256 A  
HETATM   28  C   UNL     1      -6.478  20.420  63.993  1.00  0.00    -0.134 A  
HETATM   29  C   UNL     1      -5.885  17.965  65.302  1.00  0.00     0.009 A  
HETATM   30  C   UNL     1      -5.127  18.411  64.211  1.00  0.00    -0.052 A  
HETATM   31  C   UNL     1      -5.415  19.617  63.567  1.00  0.00    -0.333 A  
ENDBRANCH   7  22
TORSDOF 5
ENDMDL
MODEL      222
REMARK 921   NORMALIZED FREE ENERGY PREDICTED BY IDOCK:   -1.97 KCAL/MOL
REMARK 922        TOTAL FREE ENERGY PREDICTED BY IDOCK:   -3.31 KCAL/MOL
REMARK 923 INTER-LIGAND FREE ENERGY PREDICTED BY IDOCK:   -3.12 KCAL/MOL
REMARK 924 INTRA-LIGAND FREE ENERGY PREDICTED BY IDOCK:   -0.20 KCAL/MOL
REMARK 927      BINDING AFFINITY PREDICTED BY RF-SCORE:    0.00 PKD
ROOT
HETATM    1  C   UNL     1      -6.753  19.323  64.915  1.00  0.00     0.062 C  
HETATM    2  N   UNL     1      -6.459  18.500  66.098  1.00  0.00    -0.203 NA 
HETATM    3  C   UNL     1      -6.616  19.286  67.333  1.00  0.00    -0.190 C  
HETATM    4  C   UNL     1      -8.056  19.607  67.716  1.00  0.00    -0.336 C  
HETATM    5  C   UNL     1      -8.947  18.356  67.708  1.00  0.00    -0.281 C  
HETATM    6  C   UNL     1      -8.780  17.555  66.410  1.00  0.00    -0.273 C  
HETATM    7  C   UNL     1      -7.299  17.274  66.109  1.00  0.00    -0.281 C  
ENDROOT
BRANCH   5   8
HETATM    8  N   UNL     1     -10.345  18.698  67.984  1.00  0.00    -0.379 N  
HETATM    9  H   UNL     1     -10.816  19.399  67.412  1.00  0.00     0.000 HD 
BRANCH   8  10
HETATM   10  C   UNL     1     -11.026  18.083  69.005  1.00  0.00     0.825 C  
HETATM   11  O   UNL     1     -10.779  18.274  70.190  1.00  0.00     1.010 OA 
BRANCH  10  12
HETATM   12  N   UNL     1     -11.943  17.161  68.534  1.00  0.00     0.719 N  
HETATM   13  H   UNL     1     -12.678  17.427  67.877  1.00  0.00     0.000 HD 
BRANCH  12  14
HETATM   14  C   UNL     1     -11.820  15.835  69.002  1.00  0.00    -0.355 A  
HETATM   15  C   UNL     1     -12.018  13.180  69.824  1.00  0.00    -0.382 A  
HETATM   16  C   UNL     1     -12.220  11.818  70.217  1.00  0.00    -0.299 C  
HETATM   17  N   UNL     1     -12.393  10.716  70.534  1.00  0.00    -0.332 NA 
HETATM   18  C   UNL     1     -12.117  15.551  70.334  1.00  0.00    -0.426 A  
HETATM   19  C   UNL     1     -11.637  13.473  68.512  1.00  0.00    -0.368 A  
HETATM   20  C   UNL     1     -11.537  14.800  68.104  1.00  0.00    -0.356 A  
HETATM   21  C   UNL     1     -12.240  14.219  70.736  1.00  0.00    -0.423 A  
ENDBRANCH  12  14
ENDBRANCH  10  12
ENDBRANCH   8  10
ENDBRANCH   5   8
BRANCH   7  22
HETATM   22  C   UNL     1      -6.767  16.227  67.060  1.00  0.00    -0.182 A  
HETATM   23  N   UNL     1      -6.442  14.984  66.761  1.00  0.00     0.136 NA 
HETATM   24  N   UNL     1      -6.554  16.478  68.394  1.00  0.00    -0.135 NA 
HETATM   25  C   UNL     1      -6.015  14.420  67.932  1.00  0.00    -0.138 A  
HETATM   26  H   UNL     1      -6.498  14.535  65.846  1.00  0.00     0.000 HD 
HETATM   27  C   UNL     1      -6.084  15.331  68.980  1.00  0.00    -0.099 A  
HETATM   28  C   UNL     1      -5.551  13.119  68.176  1.00  0.00    -0.097 A  
HETATM   29  C   UNL     1      -5.721  15.015  70.290  1.00  0.00    -0.144 A  
HETATM   30  C   UNL     1      -5.256  13.713  70.515  1.00  0.00    -0.114 A  
HETATM   31  C   UNL     1      -5.170  12.780  69.478  1.00  0.00    -0.077 A  
ENDBRANCH   7  22
TORSDOF 5
ENDMDL
MODEL      223
REMARK 921   NORMALIZED FREE ENERGY PREDICTED BY IDOCK:   -1.20 KCAL/MOL
REMARK 922        TOTAL FREE ENERGY PREDICTED BY IDOCK:   -2.32 KCAL/MOL
REMARK 923 INTER-LIGAND FREE ENERGY PREDICTED BY IDOCK:   -3.08 KCAL/MOL
REMARK 924 INTRA-LIGAND FREE ENERGY PREDICTED BY IDOCK:    0.76 KCAL/MOL
REMARK 927      BINDING AFFINITY PREDICTED BY RF-SCORE:    0.00 PKD
ROOT
HETATM    1  C   UNL     1     -12.492   6.356  71.183  1.00  0.00     0.110 C  
HETATM    2  N   UNL     1     -11.387   6.673  70.265  1.00  0.00    -0.346 NA 
HETATM    3  C   UNL     1     -11.880   7.412  69.090  1.00  0.00     1.030 C  
HETATM    4  C   UNL     1     -12.283   8.857  69.359  1.00  0.00     1.791 C  
HETATM    5  C   UNL     1     -11.192   9.630  70.114  1.00  0.00    -0.256 C  
HETATM    6  C   UNL     1     -10.699   8.851  71.341  1.00  0.00    -0.382 C  
HETATM    7  C   UNL     1     -10.309   7.411  70.974  1.00  0.00    -0.195 C  
ENDROOT
BRANCH   5   8
HETATM    8  N   UNL     1     -11.635  10.986  70.447  1.00  0.00    -0.394 N  
HETATM    9  H   UNL     1     -11.573  11.315  71.410  1.00  0.00     0.000 HD 
BRANCH   8  10
HETATM   10  C   UNL     1     -12.134  11.817  69.475  1.00  0.00    -0.250 C  
HETATM   11  O   UNL     1     -12.399  11.441  68.339  1.00  0.00    -0.505 OA 
BRANCH  10  12
HETATM   12  N   UNL     1     -12.202  13.131  69.902  1.00  0.00    -0.266 N  
HETATM   13  H   UNL     1     -12.714  13.392  70.745  1.00  0.00     0.000 HD 
BRANCH  12  14
HETATM   14  C   UNL     1     -11.531  14.097  69.121  1.00  0.00    -0.296 A  
HETATM   15  C   UNL     1     -10.616  16.087  67.399  1.00  0.00    -0.316 A  
HETATM   16  C   UNL     1     -10.245  17.123  66.482  1.00  0.00    -0.322 C  
HETATM   17  N   UNL     1      -9.953  17.960  65.736  1.00  0.00    -0.556 NA 
HETATM   18  C   UNL     1     -11.064  13.745  67.855  1.00  0.00    -0.285 A  
HETATM   19  C   UNL     1     -11.006  16.420  68.699  1.00  0.00    -0.345 A  
HETATM   20  C   UNL     1     -11.461  15.424  69.558  1.00  0.00    -0.330 A  
HETATM   21  C   UNL     1     -10.630  14.749  66.986  1.00  0.00    -0.290 A  
ENDBRANCH  12  14
ENDBRANCH  10  12
ENDBRANCH   8  10
ENDBRANCH   5   8
BRANCH   7  22
HETATM   22  C   UNL     1      -9.012   7.405  70.199  1.00  0.00    -0.148 A  
HETATM   23  N   UNL     1      -8.387   6.348  69.716  1.00  0.00    -0.125 NA 
HETATM   24  N   UNL     1      -8.321   8.556  69.902  1.00  0.00    -0.120 NA 
HETATM   25  C   UNL     1      -7.265   6.830  69.098  1.00  0.00    -0.091 A  
HETATM   26  H   UNL     1      -8.679   5.374  69.788  1.00  0.00     0.000 HD 
HETATM   27  C   UNL     1      -7.190   8.215  69.208  1.00  0.00    -0.072 A  
HETATM   28  C   UNL     1      -6.256   6.135  68.419  1.00  0.00    -0.028 A  
HETATM   29  C   UNL     1      -6.139   8.965  68.679  1.00  0.00    -0.045 A  
HETATM   30  C   UNL     1      -5.141   8.254  67.999  1.00  0.00    -0.033 A  
HETATM   31  C   UNL     1      -5.196   6.863  67.868  1.00  0.00    -0.015 A  
ENDBRANCH   7  22
TORSDOF 5
ENDMDL
MODEL      224
REMARK 921   NORMALIZED FREE ENERGY PREDICTED BY IDOCK:   -1.17 KCAL/MOL
REMARK 922        TOTAL FREE ENERGY PREDICTED BY IDOCK:   -2.29 KCAL/MOL
REMARK 923 INTER-LIGAND FREE ENERGY PREDICTED BY IDOCK:   -2.25 KCAL/MOL
REMARK 924 INTRA-LIGAND FREE ENERGY PREDICTED BY IDOCK:   -0.03 KCAL/MOL
REMARK 927      BINDING AFFINITY PREDICTED BY RF-SCORE:    0.00 PKD
ROOT
HETATM    1  C   UNL     1     -10.642  19.489  68.859  1.00  0.00     0.257 C  
HETATM    2  N   UNL     1      -9.820  18.284  69.054  1.00  0.00    -0.303 NA 
HETATM    3  C   UNL     1      -9.796  17.895  70.474  1.00  0.00     2.540 C  
HETATM    4  C   UNL     1     -11.093  17.290  71.000  1.00  0.00     1.285 C  
HETATM    5  C   UNL     1     -11.611  16.161  70.099  1.00  0.00    -0.243 C  
HETATM    6  C   UNL     1     -11.641  16.588  68.625  1.00  0.00    -0.034 C  
HETATM    7  C   UNL     1     -10.292  17.177  68.182  1.00  0.00    -0.350 C  
ENDROOT
BRANCH   5   8
HETATM    8  N   UNL     1     -12.904  15.658  70.566  1.00  0.00    -0.585 N  
HETATM    9  H   UNL     1     -13.626  16.316  70.860  1.00  0.00     0.000 HD 
BRANCH   8  10
HETATM   10  C   UNL     1     -13.155  14.309  70.613  1.00  0.00    -0.189 C  
HETATM   11  O   UNL     1     -14.125  13.824  71.184  1.00  0.00     0.039 OA 
BRANCH  10  12
HETATM   12  N   UNL     1     -12.138  13.572  70.032  1.00  0.00    -0.339 N  
HETATM   13  H   UNL     1     -11.434  14.012  69.438  1.00  0.00     0.000 HD 
BRANCH  12  14
HETATM   14  C   UNL     1     -12.115  12.186  70.297  1.00  0.00    -0.302 A  
HETATM   15  C   UNL     1     -11.731   9.548  71.107  1.00  0.00    -0.438 A  
HETATM   16  C   UNL     1     -11.460   8.227  71.587  1.00  0.00    -0.278 C  
HETATM   17  N   UNL     1     -11.232   7.160  71.980  1.00  0.00    -0.244 NA 
HETATM   18  C   UNL     1     -11.247  11.368  69.575  1.00  0.00    -0.322 A  
HETATM   19  C   UNL     1     -12.663  10.349  71.772  1.00  0.00    -0.525 A  
HETATM   20  C   UNL     1     -12.854  11.666  71.365  1.00  0.00    -0.461 A  
HETATM   21  C   UNL     1     -11.038  10.054  69.999  1.00  0.00    -0.350 A  
ENDBRANCH  12  14
ENDBRANCH  10  12
ENDBRANCH   8  10
ENDBRANCH   5   8
BRANCH   7  22
HETATM   22  C   UNL     1      -9.263  16.078  68.051  1.00  0.00    -0.193 A  
HETATM   23  N   UNL     1      -7.953  16.227  68.017  1.00  0.00    -0.145 NA 
HETATM   24  N   UNL     1      -9.605  14.751  67.953  1.00  0.00    -0.208 NA 
HETATM   25  C   UNL     1      -7.439  14.965  67.888  1.00  0.00    -0.141 A  
HETATM   26  H   UNL     1      -7.429  17.101  68.074  1.00  0.00     0.000 HD 
HETATM   27  C   UNL     1      -8.454  14.016  67.834  1.00  0.00    -0.170 A  
HETATM   28  C   UNL     1      -6.102  14.552  67.809  1.00  0.00    -0.133 A  
HETATM   29  C   UNL     1      -8.213  12.649  67.691  1.00  0.00    -0.174 A  
HETATM   30  C   UNL     1      -6.871  12.254  67.617  1.00  0.00    -0.124 A  
HETATM   31  C   UNL     1      -5.831  13.187  67.677  1.00  0.00    -0.122 A  
ENDBRANCH   7  22
TORSDOF 5
ENDMDL
MODEL      225
REMARK 921   NORMALIZED FREE ENERGY PREDICTED BY IDOCK:   -0.76 KCAL/MOL
REMARK 922        TOTAL FREE ENERGY PREDICTED BY IDOCK:   -1.76 KCAL/MOL
REMARK 923 INTER-LIGAND FREE ENERGY PREDICTED BY IDOCK:   -2.06 KCAL/MOL
REMARK 924 INTRA-LIGAND FREE ENERGY PREDICTED BY IDOCK:    0.30 KCAL/MOL
REMARK 927      BINDING AFFINITY PREDICTED BY RF-SCORE:    0.00 PKD
ROOT
HETATM    1  C   UNL     1     -10.124  16.004  69.593  1.00  0.00    -0.244 C  
HETATM    2  N   UNL     1      -8.990  16.662  68.925  1.00  0.00    -0.254 NA 
HETATM    3  C   UNL     1      -7.719  16.291  69.569  1.00  0.00     0.024 C  
HETATM    4  C   UNL     1      -7.254  14.863  69.303  1.00  0.00    -0.172 C  
HETATM    5  C   UNL     1      -7.268  14.521  67.806  1.00  0.00    -0.177 C  
HETATM    6  C   UNL     1      -8.603  14.904  67.155  1.00  0.00    -0.248 C  
HETATM    7  C   UNL     1      -8.987  16.358  67.470  1.00  0.00    -0.192 C  
ENDROOT
BRANCH   5   8
HETATM    8  N   UNL     1      -6.910  13.119  67.579  1.00  0.00    -0.193 N  
HETATM    9  H   UNL     1      -6.113  12.714  68.069  1.00  0.00     0.000 HD 
BRANCH   8  10
HETATM   10  C   UNL     1      -7.639  12.344  66.711  1.00  0.00     0.152 C  
HETATM   11  O   UNL     1      -7.710  12.566  65.507  1.00  0.00     2.087 OA 
BRANCH  10  12
HETATM   12  N   UNL     1      -8.352  11.358  67.369  1.00  0.00    -0.139 N  
HETATM   13  H   UNL     1      -9.071  11.589  68.055  1.00  0.00     0.000 HD 
BRANCH  12  14
HETATM   14  C   UNL     1      -8.042  10.018  67.050  1.00  0.00    -0.117 A  
HETATM   15  C   UNL     1      -7.858   7.350  66.268  1.00  0.00    -0.106 A  
HETATM   16  C   UNL     1      -7.862   5.987  65.832  1.00  0.00    -0.106 C  
HETATM   17  N   UNL     1      -7.875   4.883  65.478  1.00  0.00    -0.093 NA 
HETATM   18  C   UNL     1      -8.335   9.013  67.971  1.00  0.00    -0.117 A  
HETATM   19  C   UNL     1      -7.485   8.361  65.379  1.00  0.00    -0.085 A  
HETATM   20  C   UNL     1      -7.576   9.693  65.772  1.00  0.00    -0.103 A  
HETATM   21  C   UNL     1      -8.266   7.678  67.568  1.00  0.00    -0.121 A  
ENDBRANCH  12  14
ENDBRANCH  10  12
ENDBRANCH   8  10
ENDBRANCH   5   8
BRANCH   7  22
HETATM   22  C   UNL     1      -8.106  17.308  66.692  1.00  0.00    -0.265 A  
HETATM   23  N   UNL     1      -7.024  16.994  66.005  1.00  0.00    -0.074 NA 
HETATM   24  N   UNL     1      -8.356  18.657  66.618  1.00  0.00    -0.278 NA 
HETATM   25  C   UNL     1      -6.565  18.171  65.479  1.00  0.00    -0.175 A  
HETATM   26  H   UNL     1      -6.615  16.067  65.889  1.00  0.00     0.000 HD 
HETATM   27  C   UNL     1      -7.374  19.236  65.856  1.00  0.00    -0.273 A  
HETATM   28  C   UNL     1      -5.449  18.405  64.664  1.00  0.00    -0.107 A  
HETATM   29  C   UNL     1      -7.128  20.555  65.470  1.00  0.00    -0.156 A  
HETATM   30  C   UNL     1      -6.011  20.770  64.652  1.00  0.00    -0.313 A  
HETATM   31  C   UNL     1      -5.185  19.715  64.253  1.00  0.00    -0.215 A  
ENDBRANCH   7  22
TORSDOF 5
ENDMDL
MODEL      226
REMARK 921   NORMALIZED FREE ENERGY PREDICTED BY IDOCK:   -0.49 KCAL/MOL
REMARK 922        TOTAL FREE ENERGY PREDICTED BY IDOCK:   -1.41 KCAL/MOL
REMARK 923 INTER-LIGAND FREE ENERGY PREDICTED BY IDOCK:   -2.41 KCAL/MOL
REMARK 924 INTRA-LIGAND FREE ENERGY PREDICTED BY IDOCK:    1.00 KCAL/MOL
REMARK 927      BINDING AFFINITY PREDICTED BY RF-SCORE:    0.00 PKD
ROOT
HETATM    1  C   UNL     1     -11.332   7.412  68.012  1.00  0.00     0.534 C  
HETATM    2  N   UNL     1     -10.735   6.749  66.842  1.00  0.00    -0.330 NA 
HETATM    3  C   UNL     1      -9.898   7.692  66.080  1.00  0.00     0.267 C  
HETATM    4  C   UNL     1      -8.578   8.065  66.744  1.00  0.00    -0.133 C  
HETATM    5  C   UNL     1      -7.790   6.829  67.198  1.00  0.00    -0.112 C  
HETATM    6  C   UNL     1      -8.673   5.863  68.000  1.00  0.00    -0.111 C  
HETATM    7  C   UNL     1      -9.976   5.539  67.252  1.00  0.00    -0.165 C  
ENDROOT
BRANCH   5   8
HETATM    8  N   UNL     1      -6.572   7.209  67.918  1.00  0.00    -0.051 N  
HETATM    9  H   UNL     1      -5.712   6.683  67.768  1.00  0.00     0.000 HD 
BRANCH   8  10
HETATM   10  C   UNL     1      -6.578   8.267  68.792  1.00  0.00    -0.054 C  
HETATM   11  O   UNL     1      -6.153   8.195  69.940  1.00  0.00    -0.028 OA 
BRANCH  10  12
HETATM   12  N   UNL     1      -7.206   9.378  68.257  1.00  0.00    -0.076 N  
HETATM   13  H   UNL     1      -8.047   9.290  67.685  1.00  0.00     0.000 HD 
BRANCH  12  14
HETATM   14  C   UNL     1      -6.636  10.638  68.538  1.00  0.00    -0.055 A  
HETATM   15  C   UNL     1      -5.928  13.288  69.028  1.00  0.00    -0.083 A  
HETATM   16  C   UNL     1      -5.664  14.675  69.265  1.00  0.00    -0.096 C  
HETATM   17  N   UNL     1      -5.459  15.800  69.454  1.00  0.00    -0.108 NA 
HETATM   18  C   UNL     1      -6.182  11.431  67.485  1.00  0.00    -0.069 A  
HETATM   19  C   UNL     1      -6.301  12.462  70.091  1.00  0.00     0.053 A  
HETATM   20  C   UNL     1      -6.652  11.138  69.844  1.00  0.00    -0.129 A  
HETATM   21  C   UNL     1      -5.853  12.766  67.730  1.00  0.00    -0.134 A  
ENDBRANCH  12  14
ENDBRANCH  10  12
ENDBRANCH   8  10
ENDBRANCH   5   8
BRANCH   7  22
HETATM   22  C   UNL     1      -9.689   4.624  66.084  1.00  0.00    -0.203 A  
HETATM   23  N   UNL     1     -10.538   4.262  65.141  1.00  0.00    -0.585 NA 
HETATM   24  N   UNL     1      -8.457   4.052  65.876  1.00  0.00    -0.109 NA 
HETATM   25  C   UNL     1      -9.836   3.433  64.308  1.00  0.00    -0.173 A  
HETATM   26  H   UNL     1     -11.515   4.541  65.050  1.00  0.00     0.000 HD 
HETATM   27  C   UNL     1      -8.527   3.273  64.750  1.00  0.00    -0.098 A  
HETATM   28  C   UNL     1     -10.259   2.775  63.146  1.00  0.00    -0.142 A  
HETATM   29  C   UNL     1      -7.595   2.467  64.095  1.00  0.00    -0.071 A  
HETATM   30  C   UNL     1      -8.033   1.820  62.932  1.00  0.00    -0.056 A  
HETATM   31  C   UNL     1      -9.341   1.970  62.462  1.00  0.00    -0.090 A  
ENDBRANCH   7  22
TORSDOF 5
ENDMDL
MODEL      227
REMARK 921   NORMALIZED FREE ENERGY PREDICTED BY IDOCK:    1.07 KCAL/MOL
REMARK 922        TOTAL FREE ENERGY PREDICTED BY IDOCK:    0.60 KCAL/MOL
REMARK 923 INTER-LIGAND FREE ENERGY PREDICTED BY IDOCK:    0.93 KCAL/MOL
REMARK 924 INTRA-LIGAND FREE ENERGY PREDICTED BY IDOCK:   -0.33 KCAL/MOL
REMARK 927      BINDING AFFINITY PREDICTED BY RF-SCORE:    0.00 PKD
ROOT
HETATM    1  C   UNL     1      -9.696  20.643  67.920  1.00  0.00    -0.138 C  
HETATM    2  N   UNL     1      -8.880  19.482  68.308  1.00  0.00    -0.330 NA 
HETATM    3  C   UNL     1      -8.780  19.382  69.774  1.00  0.00     0.675 C  
HETATM    4  C   UNL     1     -10.052  18.925  70.478  1.00  0.00     1.697 C  
HETATM    5  C   UNL     1     -10.635  17.652  69.849  1.00  0.00     0.728 C  
HETATM    6  C   UNL     1     -10.744  17.778  68.323  1.00  0.00    -0.255 C  
HETATM    7  C   UNL     1      -9.415  18.236  67.700  1.00  0.00    -0.272 C  
ENDROOT
BRANCH   5   8
HETATM    8  N   UNL     1     -11.906  17.283  70.476  1.00  0.00     1.462 N  
HETATM    9  H   UNL     1     -12.537  18.013  70.807  1.00  0.00     0.000 HD 
BRANCH   8  10
HETATM   10  C   UNL     1     -12.257  15.964  70.622  1.00  0.00    -0.309 C  
HETATM   11  O   UNL     1     -12.151  15.352  71.679  1.00  0.00    -0.312 OA 
BRANCH  10  12
HETATM   12  N   UNL     1     -12.644  15.394  69.422  1.00  0.00    -0.596 N  
HETATM   13  H   UNL     1     -13.393  15.796  68.858  1.00  0.00     0.000 HD 
BRANCH  12  14
HETATM   14  C   UNL     1     -11.957  14.232  69.011  1.00  0.00    -0.325 A  
HETATM   15  C   UNL     1     -10.245  12.114  68.418  1.00  0.00    -0.212 A  
HETATM   16  C   UNL     1      -9.292  11.075  68.170  1.00  0.00    -0.173 C  
HETATM   17  N   UNL     1      -8.513  10.240  67.971  1.00  0.00    -0.117 NA 
HETATM   18  C   UNL     1     -11.218  14.259  67.828  1.00  0.00    -0.309 A  
HETATM   19  C   UNL     1     -11.052  12.056  69.557  1.00  0.00    -0.140 A  
HETATM   20  C   UNL     1     -11.908  13.114  69.850  1.00  0.00    -0.378 A  
HETATM   21  C   UNL     1     -10.343  13.207  67.548  1.00  0.00    -0.225 A  
ENDBRANCH  12  14
ENDBRANCH  10  12
ENDBRANCH   8  10
ENDBRANCH   5   8
BRANCH   7  22
HETATM   22  C   UNL     1      -8.409  17.108  67.737  1.00  0.00    -0.202 A  
HETATM   23  N   UNL     1      -7.324  17.045  68.484  1.00  0.00    -0.209 NA 
HETATM   24  N   UNL     1      -8.532  15.981  66.960  1.00  0.00    -0.195 NA 
HETATM   25  C   UNL     1      -6.731  15.850  68.177  1.00  0.00    -0.123 A  
HETATM   26  H   UNL     1      -6.995  17.741  69.153  1.00  0.00     0.000 HD 
HETATM   27  C   UNL     1      -7.461  15.164  67.213  1.00  0.00    -0.194 A  
HETATM   28  C   UNL     1      -5.555  15.284  68.688  1.00  0.00    -0.090 A  
HETATM   29  C   UNL     1      -7.075  13.922  66.706  1.00  0.00     1.291 A  
HETATM   30  C   UNL     1      -5.899  13.369  67.230  1.00  0.00     0.291 A  
HETATM   31  C   UNL     1      -5.151  14.035  68.205  1.00  0.00    -0.111 A  
ENDBRANCH   7  22
TORSDOF 5
ENDMDL
MODEL      228
REMARK 921   NORMALIZED FREE ENERGY PREDICTED BY IDOCK:    3.68 KCAL/MOL
REMARK 922        TOTAL FREE ENERGY PREDICTED BY IDOCK:    3.98 KCAL/MOL
REMARK 923 INTER-LIGAND FREE ENERGY PREDICTED BY IDOCK:    3.65 KCAL/MOL
REMARK 924 INTRA-LIGAND FREE ENERGY PREDICTED BY IDOCK:    0.33 KCAL/MOL
REMARK 927      BINDING AFFINITY PREDICTED BY RF-SCORE:    0.00 PKD
ROOT
HETATM    1  C   UNL     1     -12.173   5.358  70.322  1.00  0.00     4.017 C  
HETATM    2  N   UNL     1     -11.239   5.746  69.253  1.00  0.00    -0.199 NA 
HETATM    3  C   UNL     1     -11.863   6.724  68.346  1.00  0.00     1.217 C  
HETATM    4  C   UNL     1     -12.034   8.124  68.924  1.00  0.00     2.218 C  
HETATM    5  C   UNL     1     -10.733   8.655  69.543  1.00  0.00    -0.182 C  
HETATM    6  C   UNL     1     -10.103   7.629  70.495  1.00  0.00    -0.189 C  
HETATM    7  C   UNL     1      -9.964   6.252  69.825  1.00  0.00    -0.168 C  
ENDROOT
BRANCH   5   8
HETATM    8  N   UNL     1     -10.940   9.959  70.178  1.00  0.00    -0.279 N  
HETATM    9  H   UNL     1     -10.421  10.198  71.022  1.00  0.00     0.000 HD 
BRANCH   8  10
HETATM   10  C   UNL     1     -11.826  10.863  69.646  1.00  0.00    -0.344 C  
HETATM   11  O   UNL     1     -12.632  10.578  68.766  1.00  0.00    -0.032 OA 
BRANCH  10  12
HETATM   12  N   UNL     1     -11.631  12.137  70.147  1.00  0.00    -0.536 N  
HETATM   13  H   UNL     1     -11.921  12.388  71.093  1.00  0.00     0.000 HD 
BRANCH  12  14
HETATM   14  C   UNL     1     -11.014  13.077  69.294  1.00  0.00    -0.067 A  
HETATM   15  C   UNL     1      -9.718  15.169  67.988  1.00  0.00    -0.209 A  
HETATM   16  C   UNL     1      -9.036  16.288  67.411  1.00  0.00    -0.195 C  
HETATM   17  N   UNL     1      -8.486  17.199  66.951  1.00  0.00    -0.210 NA 
HETATM   18  C   UNL     1     -11.763  14.144  68.799  1.00  0.00    -0.380 A  
HETATM   19  C   UNL     1      -8.986  14.056  68.411  1.00  0.00    -0.189 A  
HETATM   20  C   UNL     1      -9.636  13.011  69.061  1.00  0.00     0.371 A  
HETATM   21  C   UNL     1     -11.106  15.203  68.168  1.00  0.00    -0.306 A  
ENDBRANCH  12  14
ENDBRANCH  10  12
ENDBRANCH   8  10
ENDBRANCH   5   8
BRANCH   7  22
HETATM   22  C   UNL     1      -8.854   6.283  68.801  1.00  0.00    -0.123 A  
HETATM   23  N   UNL     1      -7.863   7.153  68.739  1.00  0.00    -0.119 NA 
HETATM   24  N   UNL     1      -8.759   5.364  67.783  1.00  0.00    -0.107 NA 
HETATM   25  C   UNL     1      -7.115   6.786  67.653  1.00  0.00    -0.085 A  
HETATM   26  H   UNL     1      -7.690   7.936  69.369  1.00  0.00     0.000 HD 
HETATM   27  C   UNL     1      -7.659   5.671  67.025  1.00  0.00    -0.096 A  
HETATM   28  C   UNL     1      -5.948   7.369  67.140  1.00  0.00    -0.042 A  
HETATM   29  C   UNL     1      -7.104   5.094  65.882  1.00  0.00    -0.068 A  
HETATM   30  C   UNL     1      -5.936   5.687  65.385  1.00  0.00    -0.025 A  
HETATM   31  C   UNL     1      -5.364   6.803  66.002  1.00  0.00    -0.022 A  
ENDBRANCH   7  22
TORSDOF 5
ENDMDL
MODEL      229
REMARK 921   NORMALIZED FREE ENERGY PREDICTED BY IDOCK:    5.94 KCAL/MOL
REMARK 922        TOTAL FREE ENERGY PREDICTED BY IDOCK:    6.90 KCAL/MOL
REMARK 923 INTER-LIGAND FREE ENERGY PREDICTED BY IDOCK:    6.97 KCAL/MOL
REMARK 924 INTRA-LIGAND FREE ENERGY PREDICTED BY IDOCK:   -0.07 KCAL/MOL
REMARK 927      BINDING AFFINITY PREDICTED BY RF-SCORE:    0.00 PKD
ROOT
HETATM    1  C   UNL     1      -6.371  19.682  67.606  1.00  0.00    -0.207 C  
HETATM    2  N   UNL     1      -6.888  18.320  67.402  1.00  0.00    -0.196 NA 
HETATM    3  C   UNL     1      -6.530  17.451  68.537  1.00  0.00    -0.180 C  
HETATM    4  C   UNL     1      -7.299  17.723  69.825  1.00  0.00     0.661 C  
HETATM    5  C   UNL     1      -8.815  17.776  69.592  1.00  0.00     0.984 C  
HETATM    6  C   UNL     1      -9.171  18.695  68.415  1.00  0.00    -0.355 C  
HETATM    7  C   UNL     1      -8.354  18.343  67.161  1.00  0.00    -0.246 C  
ENDROOT
BRANCH   5   8
HETATM    8  N   UNL     1      -9.529  18.133  70.820  1.00  0.00     3.714 N  
HETATM    9  H   UNL     1      -9.263  18.972  71.334  1.00  0.00     0.000 HD 
BRANCH   8  10
HETATM   10  C   UNL     1     -10.553  17.346  71.287  1.00  0.00     2.363 C  
HETATM   11  O   UNL     1     -10.742  17.123  72.478  1.00  0.00     2.395 OA 
BRANCH  10  12
HETATM   12  N   UNL     1     -11.271  16.765  70.257  1.00  0.00    -0.391 N  
HETATM   13  H   UNL     1     -11.246  17.144  69.310  1.00  0.00     0.000 HD 
BRANCH  12  14
HETATM   14  C   UNL     1     -12.040  15.624  70.573  1.00  0.00    -0.395 A  
HETATM   15  C   UNL     1     -13.284  13.332  71.555  1.00  0.00    -0.383 A  
HETATM   16  C   UNL     1     -13.855  12.157  72.139  1.00  0.00     0.129 C  
HETATM   17  N   UNL     1     -14.310  11.204  72.618  1.00  0.00     1.267 NA 
HETATM   18  C   UNL     1     -11.619  14.372  70.127  1.00  0.00    -0.327 A  
HETATM   19  C   UNL     1     -13.756  14.592  71.931  1.00  0.00    -0.510 A  
HETATM   20  C   UNL     1     -13.134  15.736  71.437  1.00  0.00    -0.446 A  
HETATM   21  C   UNL     1     -12.228  13.225  70.641  1.00  0.00    -0.417 A  
ENDBRANCH  12  14
ENDBRANCH  10  12
ENDBRANCH   8  10
ENDBRANCH   5   8
BRANCH   7  22
HETATM   22  C   UNL     1      -8.853  17.049  66.563  1.00  0.00    -0.264 A  
HETATM   23  N   UNL     1      -8.664  15.835  67.043  1.00  0.00    -0.206 NA 
HETATM   24  N   UNL     1      -9.591  17.003  65.403  1.00  0.00    -0.209 NA 
HETATM   25  C   UNL     1      -9.292  14.988  66.170  1.00  0.00    -0.292 A  
HETATM   26  H   UNL     1      -8.156  15.579  67.891  1.00  0.00     0.000 HD 
HETATM   27  C   UNL     1      -9.874  15.692  65.123  1.00  0.00     0.017 A  
HETATM   28  C   UNL     1      -9.402  13.591  66.211  1.00  0.00    -0.143 A  
HETATM   29  C   UNL     1     -10.567  15.074  64.081  1.00  0.00     0.985 A  
HETATM   30  C   UNL     1     -10.672  13.678  64.140  1.00  0.00    -0.141 A  
HETATM   31  C   UNL     1     -10.102  12.947  65.186  1.00  0.00    -0.241 A  
ENDBRANCH   7  22
TORSDOF 5
ENDMDL
MODEL      230
REMARK 921   NORMALIZED FREE ENERGY PREDICTED BY IDOCK:    6.38 KCAL/MOL
REMARK 922        TOTAL FREE ENERGY PREDICTED BY IDOCK:    7.47 KCAL/MOL
REMARK 923 INTER-LIGAND FREE ENERGY PREDICTED BY IDOCK:    7.63 KCAL/MOL
REMARK 924 INTRA-LIGAND FREE ENERGY PREDICTED BY IDOCK:   -0.16 KCAL/MOL
REMARK 927      BINDING AFFINITY PREDICTED BY RF-SCORE:    0.00 PKD
ROOT
HETATM    1  C   UNL     1     -12.551  16.313  65.758  1.00  0.00     3.171 C  
HETATM    2  N   UNL     1     -11.581  15.305  65.302  1.00  0.00    -0.207 NA 
HETATM    3  C   UNL     1     -10.202  15.771  65.523  1.00  0.00    -0.378 C  
HETATM    4  C   UNL     1      -9.749  15.782  66.979  1.00  0.00    -0.235 C  
HETATM    5  C   UNL     1     -10.028  14.444  67.680  1.00  0.00    -0.224 C  
HETATM    6  C   UNL     1     -11.472  13.980  67.449  1.00  0.00    -0.373 C  
HETATM    7  C   UNL     1     -11.837  13.995  65.956  1.00  0.00    -0.388 C  
ENDROOT
BRANCH   5   8
HETATM    8  N   UNL     1      -9.675  14.505  69.100  1.00  0.00    -0.394 N  
HETATM    9  H   UNL     1     -10.409  14.456  69.806  1.00  0.00     0.000 HD 
BRANCH   8  10
HETATM   10  C   UNL     1      -8.365  14.627  69.490  1.00  0.00     0.163 C  
HETATM   11  O   UNL     1      -7.849  15.698  69.792  1.00  0.00    -0.164 OA 
BRANCH  10  12
HETATM   12  N   UNL     1      -7.683  13.427  69.404  1.00  0.00    -0.189 N  
HETATM   13  H   UNL     1      -6.668  13.396  69.308  1.00  0.00     0.000 HD 
BRANCH  12  14
HETATM   14  C   UNL     1      -8.453  12.245  69.455  1.00  0.00     1.087 A  
HETATM   15  C   UNL     1     -10.222  10.104  69.229  1.00  0.00    -0.238 A  
HETATM   16  C   UNL     1     -11.180   9.057  69.037  1.00  0.00     0.264 C  
HETATM   17  N   UNL     1     -11.960   8.215  68.876  1.00  0.00     1.935 NA 
HETATM   18  C   UNL     1      -9.582  12.201  70.272  1.00  0.00     4.071 A  
HETATM   19  C   UNL     1      -9.045  10.113  68.476  1.00  0.00    -0.134 A  
HETATM   20  C   UNL     1      -8.162  11.183  68.592  1.00  0.00    -0.152 A  
HETATM   21  C   UNL     1     -10.480  11.139  70.137  1.00  0.00     0.631 A  
ENDBRANCH  12  14
ENDBRANCH  10  12
ENDBRANCH   8  10
ENDBRANCH   5   8
BRANCH   7  22
HETATM   22  C   UNL     1     -11.144  12.858  65.242  1.00  0.00    -0.284 A  
HETATM   23  N   UNL     1     -10.490  12.928  64.098  1.00  0.00    -0.424 NA 
HETATM   24  N   UNL     1     -11.123  11.575  65.736  1.00  0.00    -0.255 NA 
HETATM   25  C   UNL     1     -10.041  11.660  63.848  1.00  0.00    -0.357 A  
HETATM   26  H   UNL     1     -10.348  13.756  63.519  1.00  0.00     0.000 HD 
HETATM   27  C   UNL     1     -10.433  10.784  64.855  1.00  0.00    -0.254 A  
HETATM   28  C   UNL     1      -9.288  11.180  62.768  1.00  0.00    -0.377 A  
HETATM   29  C   UNL     1     -10.121   9.423  64.845  1.00  0.00     0.709 A  
HETATM   30  C   UNL     1      -9.364   8.962  63.760  1.00  0.00     0.905 A  
HETATM   31  C   UNL     1      -8.951   9.823  62.739  1.00  0.00    -0.274 A  
ENDBRANCH   7  22
TORSDOF 5
ENDMDL
MODEL      231
REMARK 921   NORMALIZED FREE ENERGY PREDICTED BY IDOCK:    7.40 KCAL/MOL
REMARK 922        TOTAL FREE ENERGY PREDICTED BY IDOCK:    8.79 KCAL/MOL
REMARK 923 INTER-LIGAND FREE ENERGY PREDICTED BY IDOCK:    8.78 KCAL/MOL
REMARK 924 INTRA-LIGAND FREE ENERGY PREDICTED BY IDOCK:    0.01 KCAL/MOL
REMARK 927      BINDING AFFINITY PREDICTED BY RF-SCORE:    0.00 PKD
ROOT
HETATM    1  C   UNL     1      -7.959  14.943  64.996  1.00  0.00     7.667 C  
HETATM    2  N   UNL     1      -7.307  14.886  66.313  1.00  0.00     1.370 NA 
HETATM    3  C   UNL     1      -6.910  16.233  66.758  1.00  0.00    -0.088 C  
HETATM    4  C   UNL     1      -8.060  17.136  67.187  1.00  0.00    -0.215 C  
HETATM    5  C   UNL     1      -8.992  16.445  68.193  1.00  0.00    -0.197 C  
HETATM    6  C   UNL     1      -9.405  15.049  67.709  1.00  0.00    -0.186 C  
HETATM    7  C   UNL     1      -8.183  14.209  67.305  1.00  0.00    -0.181 C  
ENDROOT
BRANCH   5   8
HETATM    8  N   UNL     1     -10.142  17.292  68.521  1.00  0.00    -0.319 N  
HETATM    9  H   UNL     1     -10.913  17.374  67.860  1.00  0.00     0.000 HD 
BRANCH   8  10
HETATM   10  C   UNL     1     -10.190  17.976  69.710  1.00  0.00     0.586 C  
HETATM   11  O   UNL     1      -9.234  18.588  70.174  1.00  0.00     1.382 OA 
BRANCH  10  12
HETATM   12  N   UNL     1     -11.401  17.807  70.357  1.00  0.00     1.633 N  
HETATM   13  H   UNL     1     -12.037  18.591  70.509  1.00  0.00     0.000 HD 
BRANCH  12  14
HETATM   14  C   UNL     1     -11.720  16.505  70.797  1.00  0.00     0.159 A  
HETATM   15  C   UNL     1     -12.782  14.073  71.646  1.00  0.00    -0.422 A  
HETATM   16  C   UNL     1     -13.423  12.865  72.071  1.00  0.00    -0.473 C  
HETATM   17  N   UNL     1     -13.949  11.892  72.416  1.00  0.00     0.272 NA 
HETATM   18  C   UNL     1     -11.876  16.265  72.161  1.00  0.00    -0.585 A  
HETATM   19  C   UNL     1     -12.542  14.288  70.286  1.00  0.00    -0.378 A  
HETATM   20  C   UNL     1     -12.010  15.503  69.865  1.00  0.00    -0.381 A  
HETATM   21  C   UNL     1     -12.433  15.055  72.582  1.00  0.00    -0.453 A  
ENDBRANCH  12  14
ENDBRANCH  10  12
ENDBRANCH   8  10
ENDBRANCH   5   8
BRANCH   7  22
HETATM   22  C   UNL     1      -7.421  13.776  68.536  1.00  0.00    -0.119 A  
HETATM   23  N   UNL     1      -6.955  14.560  69.489  1.00  0.00    -0.198 NA 
HETATM   24  N   UNL     1      -7.124  12.460  68.799  1.00  0.00    -0.100 NA 
HETATM   25  C   UNL     1      -6.339  13.729  70.386  1.00  0.00    -0.007 A  
HETATM   26  H   UNL     1      -7.036  15.575  69.548  1.00  0.00     0.000 HD 
HETATM   27  C   UNL     1      -6.419  12.403  69.973  1.00  0.00     0.085 A  
HETATM   28  C   UNL     1      -5.683  14.042  71.584  1.00  0.00    -0.212 A  
HETATM   29  C   UNL     1      -5.862  11.346  70.694  1.00  0.00    -0.092 A  
HETATM   30  C   UNL     1      -5.214  11.677  71.891  1.00  0.00     0.209 A  
HETATM   31  C   UNL     1      -5.126  13.001  72.332  1.00  0.00     0.023 A  
ENDBRANCH   7  22
TORSDOF 5
ENDMDL
MODEL      232
REMARK 921   NORMALIZED FREE ENERGY PREDICTED BY IDOCK:    8.32 KCAL/MOL
REMARK 922        TOTAL FREE ENERGY PREDICTED BY IDOCK:    9.98 KCAL/MOL
REMARK 923 INTER-LIGAND FREE ENERGY PREDICTED BY IDOCK:    7.90 KCAL/MOL
REMARK 924 INTRA-LIGAND FREE ENERGY PREDICTED BY IDOCK:    2.08 KCAL/MOL
REMARK 927      BINDING AFFINITY PREDICTED BY RF-SCORE:    0.00 PKD
ROOT
HETATM    1  C   UNL     1     -11.955   9.379  64.543  1.00  0.00    11.468 C  
HETATM    2  N   UNL     1     -11.490  10.525  65.339  1.00  0.00     0.921 NA 
HETATM    3  C   UNL     1     -10.736  10.069  66.519  1.00  0.00    -0.024 C  
HETATM    4  C   UNL     1      -9.350   9.507  66.222  1.00  0.00    -0.242 C  
HETATM    5  C   UNL     1      -8.523  10.448  65.335  1.00  0.00    -0.168 C  
HETATM    6  C   UNL     1      -9.319  10.904  64.105  1.00  0.00    -0.264 C  
HETATM    7  C   UNL     1     -10.696  11.461  64.500  1.00  0.00    -0.327 C  
ENDROOT
BRANCH   5   8
HETATM    8  N   UNL     1      -7.234   9.850  64.982  1.00  0.00    -0.128 N  
HETATM    9  H   UNL     1      -6.549  10.397  64.461  1.00  0.00     0.000 HD 
BRANCH   8  10
HETATM   10  C   UNL     1      -6.939   8.560  65.346  1.00  0.00    -0.078 C  
HETATM   11  O   UNL     1      -7.299   7.579  64.704  1.00  0.00    -0.068 OA 
BRANCH  10  12
HETATM   12  N   UNL     1      -6.282   8.501  66.563  1.00  0.00    -0.056 N  
HETATM   13  H   UNL     1      -5.787   7.660  66.860  1.00  0.00     0.000 HD 
BRANCH  12  14
HETATM   14  C   UNL     1      -6.327   9.655  67.375  1.00  0.00    -0.068 A  
HETATM   15  C   UNL     1      -6.313  11.650  69.319  1.00  0.00    -0.098 A  
HETATM   16  C   UNL     1      -6.279  12.603  70.388  1.00  0.00     0.106 C  
HETATM   17  N   UNL     1      -6.252  13.367  71.259  1.00  0.00     0.030 NA 
HETATM   18  C   UNL     1      -7.515   9.985  68.025  1.00  0.00    -0.088 A  
HETATM   19  C   UNL     1      -5.146  11.373  68.602  1.00  0.00    -0.043 A  
HETATM   20  C   UNL     1      -5.156  10.376  67.630  1.00  0.00    -0.033 A  
HETATM   21  C   UNL     1      -7.498  10.968  69.017  1.00  0.00    -0.129 A  
ENDBRANCH  12  14
ENDBRANCH  10  12
ENDBRANCH   8  10
ENDBRANCH   5   8
BRANCH   7  22
HETATM   22  C   UNL     1     -10.541  12.816  65.151  1.00  0.00    -0.302 A  
HETATM   23  N   UNL     1      -9.674  13.754  64.820  1.00  0.00    -0.496 NA 
HETATM   24  N   UNL     1     -11.326  13.228  66.202  1.00  0.00    -0.301 NA 
HETATM   25  C   UNL     1      -9.903  14.792  65.682  1.00  0.00    -0.327 A  
HETATM   26  H   UNL     1      -8.977  13.714  64.076  1.00  0.00     0.000 HD 
HETATM   27  C   UNL     1     -10.929  14.487  66.570  1.00  0.00    -0.321 A  
HETATM   28  C   UNL     1      -9.265  16.037  65.764  1.00  0.00    -0.215 A  
HETATM   29  C   UNL     1     -11.360  15.364  67.567  1.00  0.00    -0.269 A  
HETATM   30  C   UNL     1     -10.714  16.605  67.631  1.00  0.00    -0.306 A  
HETATM   31  C   UNL     1      -9.685  16.940  66.746  1.00  0.00    -0.274 A  
ENDBRANCH   7  22
TORSDOF 5
ENDMDL
MODEL      233
REMARK 921   NORMALIZED FREE ENERGY PREDICTED BY IDOCK:   17.76 KCAL/MOL
REMARK 922        TOTAL FREE ENERGY PREDICTED BY IDOCK:   22.18 KCAL/MOL
REMARK 923 INTER-LIGAND FREE ENERGY PREDICTED BY IDOCK:   21.56 KCAL/MOL
REMARK 924 INTRA-LIGAND FREE ENERGY PREDICTED BY IDOCK:    0.62 KCAL/MOL
REMARK 927      BINDING AFFINITY PREDICTED BY RF-SCORE:    0.00 PKD
ROOT
HETATM    1  C   UNL     1     -10.638   4.977  62.599  1.00  0.00     1.061 C  
HETATM    2  N   UNL     1     -10.775   6.198  63.407  1.00  0.00     6.148 NA 
HETATM    3  C   UNL     1     -11.975   6.129  64.258  1.00  0.00     9.505 C  
HETATM    4  C   UNL     1     -11.876   5.167  65.437  1.00  0.00     2.047 C  
HETATM    5  C   UNL     1     -10.597   5.389  66.256  1.00  0.00    -0.208 C  
HETATM    6  C   UNL     1      -9.356   5.447  65.356  1.00  0.00    -0.003 C  
HETATM    7  C   UNL     1      -9.544   6.445  64.202  1.00  0.00     2.517 C  
ENDROOT
BRANCH   5   8
HETATM    8  N   UNL     1     -10.472   4.396  67.326  1.00  0.00     0.026 N  
HETATM    9  H   UNL     1     -10.913   3.482  67.221  1.00  0.00     0.000 HD 
BRANCH   8  10
HETATM   10  C   UNL     1      -9.767   4.683  68.468  1.00  0.00    -0.142 C  
HETATM   11  O   UNL     1      -8.877   5.525  68.516  1.00  0.00    -0.105 OA 
BRANCH  10  12
HETATM   12  N   UNL     1     -10.111   3.846  69.514  1.00  0.00     0.181 N  
HETATM   13  H   UNL     1     -11.084   3.607  69.707  1.00  0.00     0.000 HD 
BRANCH  12  14
HETATM   14  C   UNL     1      -9.058   3.337  70.304  1.00  0.00    -0.126 A  
HETATM   15  C   UNL     1      -7.265   2.385  72.212  1.00  0.00    -0.035 A  
HETATM   16  C   UNL     1      -6.418   1.909  73.265  1.00  0.00    -0.013 C  
HETATM   17  N   UNL     1      -5.739   1.528  74.123  1.00  0.00     0.000 NA 
HETATM   18  C   UNL     1      -8.173   4.224  70.915  1.00  0.00    -0.082 A  
HETATM   19  C   UNL     1      -8.095   1.489  71.534  1.00  0.00    -0.041 A  
HETATM   20  C   UNL     1      -8.989   1.967  70.579  1.00  0.00    -0.141 A  
HETATM   21  C   UNL     1      -7.293   3.747  71.889  1.00  0.00    -0.055 A  
ENDBRANCH  12  14
ENDBRANCH  10  12
ENDBRANCH   8  10
ENDBRANCH   5   8
BRANCH   7  22
HETATM   22  C   UNL     1      -9.478   7.861  64.725  1.00  0.00     1.597 A  
HETATM   23  N   UNL     1      -8.779   8.857  64.215  1.00  0.00    -0.392 NA 
HETATM   24  N   UNL     1     -10.175   8.274  65.835  1.00  0.00     0.466 NA 
HETATM   25  C   UNL     1      -9.028   9.936  65.019  1.00  0.00    -0.201 A  
HETATM   26  H   UNL     1      -8.177   8.829  63.391  1.00  0.00     0.000 HD 
HETATM   27  C   UNL     1      -9.894   9.598  66.053  1.00  0.00    -0.274 A  
HETATM   28  C   UNL     1      -8.542  11.247  64.924  1.00  0.00     0.258 A  
HETATM   29  C   UNL     1     -10.306  10.506  67.030  1.00  0.00    -0.289 A  
HETATM   30  C   UNL     1      -9.814  11.813  66.917  1.00  0.00    -0.221 A  
HETATM   31  C   UNL     1      -8.949  12.181  65.883  1.00  0.00     0.081 A  
ENDBRANCH   7  22
TORSDOF 5
ENDMDL
MODEL      234
REMARK 921   NORMALIZED FREE ENERGY PREDICTED BY IDOCK:   24.69 KCAL/MOL
REMARK 922        TOTAL FREE ENERGY PREDICTED BY IDOCK:   31.13 KCAL/MOL
REMARK 923 INTER-LIGAND FREE ENERGY PREDICTED BY IDOCK:   31.92 KCAL/MOL
REMARK 924 INTRA-LIGAND FREE ENERGY PREDICTED BY IDOCK:   -0.79 KCAL/MOL
REMARK 927      BINDING AFFINITY PREDICTED BY RF-SCORE:    0.00 PKD
ROOT
HETATM    1  C   UNL     1      -7.440  15.554  64.898  1.00  0.00     9.926 C  
HETATM    2  N   UNL     1      -6.938  15.599  66.280  1.00  0.00     0.801 NA 
HETATM    3  C   UNL     1      -6.274  16.885  66.552  1.00  0.00    -0.092 C  
HETATM    4  C   UNL     1      -7.211  18.081  66.683  1.00  0.00    -0.248 C  
HETATM    5  C   UNL     1      -8.364  17.806  67.659  1.00  0.00    -0.228 C  
HETATM    6  C   UNL     1      -9.052  16.469  67.354  1.00  0.00    -0.210 C  
HETATM    7  C   UNL     1      -8.033  15.323  67.247  1.00  0.00    -0.202 C  
ENDROOT
BRANCH   5   8
HETATM    8  N   UNL     1      -9.304  18.928  67.699  1.00  0.00    -0.293 N  
HETATM    9  H   UNL     1     -10.042  18.994  66.999  1.00  0.00     0.000 HD 
BRANCH   8  10
HETATM   10  C   UNL     1      -9.201  19.892  68.671  1.00  0.00    -0.142 C  
HETATM   11  O   UNL     1      -8.140  20.420  68.986  1.00  0.00     0.334 OA 
BRANCH  10  12
HETATM   12  N   UNL     1     -10.408  20.118  69.308  1.00  0.00    -0.490 N  
HETATM   13  H   UNL     1     -11.030  20.874  69.020  1.00  0.00     0.000 HD 
BRANCH  12  14
HETATM   14  C   UNL     1     -10.744  19.256  70.374  1.00  0.00     2.233 A  
HETATM   15  C   UNL     1     -11.805  17.771  72.480  1.00  0.00     2.739 A  
HETATM   16  C   UNL     1     -12.439  17.063  73.550  1.00  0.00     0.424 C  
HETATM   17  N   UNL     1     -12.959  16.496  74.418  1.00  0.00    -0.477 NA 
HETATM   18  C   UNL     1     -10.531  19.679  71.686  1.00  0.00     3.390 A  
HETATM   19  C   UNL     1     -11.941  17.309  71.168  1.00  0.00     2.985 A  
HETATM   20  C   UNL     1     -11.408  18.052  70.118  1.00  0.00     3.234 A  
HETATM   21  C   UNL     1     -11.086  18.945  72.737  1.00  0.00     3.797 A  
ENDBRANCH  12  14
ENDBRANCH  10  12
ENDBRANCH   8  10
ENDBRANCH   5   8
BRANCH   7  22
HETATM   22  C   UNL     1      -7.505  14.968  68.617  1.00  0.00    -0.122 A  
HETATM   23  N   UNL     1      -7.830  15.543  69.760  1.00  0.00    -0.126 NA 
HETATM   24  N   UNL     1      -6.592  13.961  68.822  1.00  0.00    -0.091 NA 
HETATM   25  C   UNL     1      -7.105  14.894  70.722  1.00  0.00     0.777 A  
HETATM   26  H   UNL     1      -8.486  16.312  69.898  1.00  0.00     0.000 HD 
HETATM   27  C   UNL     1      -6.309  13.901  70.161  1.00  0.00    -0.083 A  
HETATM   28  C   UNL     1      -7.077  15.104  72.107  1.00  0.00     3.295 A  
HETATM   29  C   UNL     1      -5.456  13.093  70.915  1.00  0.00    -0.186 A  
HETATM   30  C   UNL     1      -5.443  13.314  72.298  1.00  0.00     0.131 A  
HETATM   31  C   UNL     1      -6.240  14.300  72.887  1.00  0.00     0.843 A  
ENDBRANCH   7  22
TORSDOF 5
ENDMDL
MODEL      235
REMARK 921   NORMALIZED FREE ENERGY PREDICTED BY IDOCK:   44.30 KCAL/MOL
REMARK 922        TOTAL FREE ENERGY PREDICTED BY IDOCK:   56.48 KCAL/MOL
REMARK 923 INTER-LIGAND FREE ENERGY PREDICTED BY IDOCK:   55.61 KCAL/MOL
REMARK 924 INTRA-LIGAND FREE ENERGY PREDICTED BY IDOCK:    0.87 KCAL/MOL
REMARK 927      BINDING AFFINITY PREDICTED BY RF-SCORE:    0.00 PKD
ROOT
HETATM    1  C   UNL     1      -9.584   8.873  71.375  1.00  0.00    -0.289 C  
HETATM    2  N   UNL     1     -10.177  10.215  71.277  1.00  0.00     0.654 NA 
HETATM    3  C   UNL     1     -10.082  10.922  72.566  1.00  0.00    11.708 C  
HETATM    4  C   UNL     1      -8.682  11.393  72.942  1.00  0.00    20.138 C  
HETATM    5  C   UNL     1      -8.009  12.172  71.803  1.00  0.00    13.315 C  
HETATM    6  C   UNL     1      -8.107  11.416  70.471  1.00  0.00     3.589 C  
HETATM    7  C   UNL     1      -9.552  10.988  70.172  1.00  0.00     1.417 C  
ENDROOT
BRANCH   5   8
HETATM    8  N   UNL     1      -6.632  12.533  72.147  1.00  0.00     3.689 N  
HETATM    9  H   UNL     1      -6.217  12.180  73.009  1.00  0.00     0.000 HD 
BRANCH   8  10
HETATM   10  C   UNL     1      -5.894  13.342  71.319  1.00  0.00     0.084 C  
HETATM   11  O   UNL     1      -5.258  14.312  71.717  1.00  0.00    -0.149 OA 
BRANCH  10  12
HETATM   12  N   UNL     1      -6.036  12.991  69.989  1.00  0.00    -0.159 N  
HETATM   13  H   UNL     1      -5.823  12.048  69.661  1.00  0.00     0.000 HD 
BRANCH  12  14
HETATM   14  C   UNL     1      -6.489  13.992  69.104  1.00  0.00    -0.113 A  
HETATM   15  C   UNL     1      -7.214  16.262  67.660  1.00  0.00    -0.162 A  
HETATM   16  C   UNL     1      -7.542  17.486  66.993  1.00  0.00    -0.207 C  
HETATM   17  N   UNL     1      -7.806  18.482  66.461  1.00  0.00    -0.249 NA 
HETATM   18  C   UNL     1      -7.753  14.548  69.292  1.00  0.00    -0.042 A  
HETATM   19  C   UNL     1      -5.983  15.649  67.415  1.00  0.00    -0.052 A  
HETATM   20  C   UNL     1      -5.624  14.514  68.136  1.00  0.00    -0.125 A  
HETATM   21  C   UNL     1      -8.103  15.701  68.585  1.00  0.00    -0.158 A  
ENDBRANCH  12  14
ENDBRANCH  10  12
ENDBRANCH   8  10
ENDBRANCH   5   8
BRANCH   7  22
HETATM   22  C   UNL     1     -10.379  12.190  69.780  1.00  0.00     1.063 A  
HETATM   23  N   UNL     1     -10.194  12.965  68.728  1.00  0.00    -0.420 NA 
HETATM   24  N   UNL     1     -11.460  12.617  70.514  1.00  0.00     0.337 NA 
HETATM   25  C   UNL     1     -11.176  13.915  68.789  1.00  0.00    -0.272 A  
HETATM   26  H   UNL     1      -9.469  12.874  68.016  1.00  0.00     0.000 HD 
HETATM   27  C   UNL     1     -11.982  13.730  69.907  1.00  0.00    -0.347 A  
HETATM   28  C   UNL     1     -11.441  14.979  67.915  1.00  0.00    -0.354 A  
HETATM   29  C   UNL     1     -13.054  14.566  70.221  1.00  0.00    -0.027 A  
HETATM   30  C   UNL     1     -13.306  15.621  69.335  1.00  0.00     1.706 A  
HETATM   31  C   UNL     1     -12.516  15.826  68.200  1.00  0.00     1.033 A  
ENDBRANCH   7  22
TORSDOF 5
ENDMDL
