MODEL        1
REMARK 921   NORMALIZED FREE ENERGY PREDICTED BY IDOCK:   -7.26 KCAL/MOL
REMARK 922        TOTAL FREE ENERGY PREDICTED BY IDOCK:  -10.16 KCAL/MOL
REMARK 923 INTER-LIGAND FREE ENERGY PREDICTED BY IDOCK:   -9.38 KCAL/MOL
REMARK 924 INTRA-LIGAND FREE ENERGY PREDICTED BY IDOCK:   -0.78 KCAL/MOL
REMARK 927      BINDING AFFINITY PREDICTED BY RF-SCORE:    0.00 PKD
ROOT
HETATM    1  C   UNL     1      -9.070   8.913  66.213  1.00  0.00    -0.236 C  
HETATM    2  C   UNL     1      -9.934  10.058  65.772  1.00  0.00    -0.346 A  
HETATM    3  C   UNL     1     -10.008  10.419  64.422  1.00  0.00    -0.388 A  
HETATM    4  C   UNL     1     -10.748  11.534  64.029  1.00  0.00    -0.445 A  
HETATM    5  C   UNL     1     -11.431  12.288  64.991  1.00  0.00    -0.336 A  
HETATM    6  C   UNL     1     -11.385  11.923  66.337  1.00  0.00    -0.400 A  
HETATM    7  C   UNL     1     -10.638  10.809  66.724  1.00  0.00    -0.307 A  
ENDROOT
BRANCH   5   8
HETATM    8  S   UNL     1     -12.217  13.812  64.526  1.00  0.00    -0.383 S  
HETATM    9  O   UNL     1     -13.154  14.142  65.581  1.00  0.00    -0.617 OA 
HETATM   10  O   UNL     1     -12.639  13.707  63.148  1.00  0.00    -0.792 OA 
BRANCH   8  11
HETATM   11  N   UNL     1     -10.980  14.905  64.567  1.00  0.00    -0.638 N  
HETATM   12  H   UNL     1     -10.090  14.579  64.188  1.00  0.00     0.000 HD 
BRANCH  11  13
HETATM   13  C   UNL     1     -10.987  16.213  65.048  1.00  0.00    -0.344 C  
HETATM   14  O   UNL     1     -11.249  17.119  64.269  1.00  0.00    -1.126 OA 
BRANCH  13  15
HETATM   15  N   UNL     1     -10.737  16.357  66.394  1.00  0.00    -0.222 N  
HETATM   16  H   UNL     1     -11.530  16.521  67.014  1.00  0.00     0.000 HD 
BRANCH  15  17
HETATM   17  N   UNL     1      -9.451  16.291  66.965  1.00  0.00    -0.222 NA 
HETATM   18  C   UNL     1      -8.467  17.112  66.233  1.00  0.00    -0.244 C  
HETATM   19  C   UNL     1      -8.368  18.475  66.932  1.00  0.00    -0.270 C  
HETATM   20  C   UNL     1      -8.947  19.644  66.142  1.00  0.00    -0.375 C  
HETATM   21  C   UNL     1     -10.434  19.619  66.445  1.00  0.00    -0.618 C  
HETATM   22  C   UNL     1     -10.502  19.191  67.906  1.00  0.00    -0.492 C  
HETATM   23  C   UNL     1      -9.242  18.352  68.183  1.00  0.00    -0.327 C  
HETATM   24  C   UNL     1      -9.459  16.849  68.330  1.00  0.00    -0.258 C  
ENDBRANCH  15  17
ENDBRANCH  13  15
ENDBRANCH  11  13
ENDBRANCH   8  11
ENDBRANCH   5   8
TORSDOF 5
ENDMDL
MODEL        2
REMARK 921   NORMALIZED FREE ENERGY PREDICTED BY IDOCK:   -7.10 KCAL/MOL
REMARK 922        TOTAL FREE ENERGY PREDICTED BY IDOCK:   -9.96 KCAL/MOL
REMARK 923 INTER-LIGAND FREE ENERGY PREDICTED BY IDOCK:   -9.30 KCAL/MOL
REMARK 924 INTRA-LIGAND FREE ENERGY PREDICTED BY IDOCK:   -0.66 KCAL/MOL
REMARK 927      BINDING AFFINITY PREDICTED BY RF-SCORE:    0.00 PKD
ROOT
HETATM    1  C   UNL     1     -11.931  11.256  70.368  1.00  0.00    -0.471 C  
HETATM    2  C   UNL     1     -11.717  11.828  68.998  1.00  0.00    -0.390 A  
HETATM    3  C   UNL     1     -11.931  13.189  68.751  1.00  0.00    -0.316 A  
HETATM    4  C   UNL     1     -11.810  13.699  67.458  1.00  0.00    -0.416 A  
HETATM    5  C   UNL     1     -11.460  12.846  66.405  1.00  0.00    -0.341 A  
HETATM    6  C   UNL     1     -11.220  11.492  66.644  1.00  0.00    -0.336 A  
HETATM    7  C   UNL     1     -11.348  10.987  67.939  1.00  0.00    -0.381 A  
ENDROOT
BRANCH   5   8
HETATM    8  S   UNL     1     -11.488  13.445  64.733  1.00  0.00    -0.352 S  
HETATM    9  O   UNL     1     -12.852  13.848  64.453  1.00  0.00    -0.632 OA 
HETATM   10  O   UNL     1     -10.796  12.493  63.894  1.00  0.00    -0.366 OA 
BRANCH   8  11
HETATM   11  N   UNL     1     -10.547  14.800  64.799  1.00  0.00    -0.563 N  
HETATM   12  H   UNL     1      -9.539  14.638  64.793  1.00  0.00     0.000 HD 
BRANCH  11  13
HETATM   13  C   UNL     1     -10.942  16.135  64.862  1.00  0.00    -0.349 C  
HETATM   14  O   UNL     1     -11.557  16.605  63.914  1.00  0.00    -1.204 OA 
BRANCH  13  15
HETATM   15  N   UNL     1     -10.635  16.796  66.029  1.00  0.00    -0.275 N  
HETATM   16  H   UNL     1     -11.272  17.526  66.348  1.00  0.00     0.000 HD 
BRANCH  15  17
HETATM   17  N   UNL     1      -9.494  16.525  66.808  1.00  0.00    -0.238 NA 
HETATM   18  C   UNL     1      -8.299  17.245  66.327  1.00  0.00    -0.254 C  
HETATM   19  C   UNL     1      -8.163  18.540  67.139  1.00  0.00    -0.256 C  
HETATM   20  C   UNL     1      -8.440  19.820  66.356  1.00  0.00    -0.391 C  
HETATM   21  C   UNL     1      -9.948  19.979  66.392  1.00  0.00    -0.601 C  
HETATM   22  C   UNL     1     -10.334  19.482  67.780  1.00  0.00    -0.575 C  
HETATM   23  C   UNL     1      -9.260  18.467  68.204  1.00  0.00    -0.327 C  
HETATM   24  C   UNL     1      -9.683  17.000  68.191  1.00  0.00    -0.268 C  
ENDBRANCH  15  17
ENDBRANCH  13  15
ENDBRANCH  11  13
ENDBRANCH   8  11
ENDBRANCH   5   8
TORSDOF 5
ENDMDL
MODEL        3
REMARK 921   NORMALIZED FREE ENERGY PREDICTED BY IDOCK:   -6.96 KCAL/MOL
REMARK 922        TOTAL FREE ENERGY PREDICTED BY IDOCK:   -9.77 KCAL/MOL
REMARK 923 INTER-LIGAND FREE ENERGY PREDICTED BY IDOCK:   -8.92 KCAL/MOL
REMARK 924 INTRA-LIGAND FREE ENERGY PREDICTED BY IDOCK:   -0.85 KCAL/MOL
REMARK 927      BINDING AFFINITY PREDICTED BY RF-SCORE:    0.00 PKD
ROOT
HETATM    1  C   UNL     1     -10.865  10.410  69.907  1.00  0.00    -0.353 C  
HETATM    2  C   UNL     1     -11.126  11.222  68.673  1.00  0.00    -0.286 A  
HETATM    3  C   UNL     1     -11.644  12.519  68.765  1.00  0.00    -0.366 A  
HETATM    4  C   UNL     1     -11.961  13.236  67.612  1.00  0.00    -0.366 A  
HETATM    5  C   UNL     1     -11.746  12.660  66.355  1.00  0.00    -0.405 A  
HETATM    6  C   UNL     1     -11.207  11.377  66.249  1.00  0.00    -0.228 A  
HETATM    7  C   UNL     1     -10.897  10.662  67.407  1.00  0.00    -0.353 A  
ENDROOT
BRANCH   5   8
HETATM    8  S   UNL     1     -12.321  13.488  64.891  1.00  0.00    -0.399 S  
HETATM    9  O   UNL     1     -13.482  14.265  65.275  1.00  0.00    -0.564 OA 
HETATM   10  O   UNL     1     -12.380  12.525  63.815  1.00  0.00    -0.492 OA 
BRANCH   8  11
HETATM   11  N   UNL     1     -11.090  14.529  64.536  1.00  0.00    -0.594 N  
HETATM   12  H   UNL     1     -10.253  14.103  64.136  1.00  0.00     0.000 HD 
BRANCH  11  13
HETATM   13  C   UNL     1     -11.038  15.911  64.709  1.00  0.00    -0.384 C  
HETATM   14  O   UNL     1     -11.631  16.620  63.906  1.00  0.00    -1.204 OA 
BRANCH  13  15
HETATM   15  N   UNL     1     -10.348  16.351  65.815  1.00  0.00    -0.371 N  
HETATM   16  H   UNL     1     -10.670  16.046  66.733  1.00  0.00     0.000 HD 
BRANCH  15  17
HETATM   17  N   UNL     1      -9.224  17.196  65.754  1.00  0.00    -0.519 NA 
HETATM   18  C   UNL     1      -9.455  18.490  66.428  1.00  0.00    -0.301 C  
HETATM   19  C   UNL     1      -8.911  18.385  67.859  1.00  0.00    -0.293 C  
HETATM   20  C   UNL     1      -9.976  18.376  68.951  1.00  0.00    -0.374 C  
HETATM   21  C   UNL     1     -10.429  16.930  69.039  1.00  0.00    -0.341 C  
HETATM   22  C   UNL     1      -9.152  16.133  68.798  1.00  0.00    -0.229 C  
HETATM   23  C   UNL     1      -8.233  17.015  67.936  1.00  0.00    -0.200 C  
HETATM   24  C   UNL     1      -8.084  16.600  66.475  1.00  0.00    -0.302 C  
ENDBRANCH  15  17
ENDBRANCH  13  15
ENDBRANCH  11  13
ENDBRANCH   8  11
ENDBRANCH   5   8
TORSDOF 5
ENDMDL
MODEL        4
REMARK 921   NORMALIZED FREE ENERGY PREDICTED BY IDOCK:   -6.91 KCAL/MOL
REMARK 922        TOTAL FREE ENERGY PREDICTED BY IDOCK:   -9.71 KCAL/MOL
REMARK 923 INTER-LIGAND FREE ENERGY PREDICTED BY IDOCK:   -8.67 KCAL/MOL
REMARK 924 INTRA-LIGAND FREE ENERGY PREDICTED BY IDOCK:   -1.04 KCAL/MOL
REMARK 927      BINDING AFFINITY PREDICTED BY RF-SCORE:    0.00 PKD
ROOT
HETATM    1  C   UNL     1      -8.953   8.952  66.403  1.00  0.00    -0.193 C  
HETATM    2  C   UNL     1      -9.852  10.024  65.862  1.00  0.00    -0.330 A  
HETATM    3  C   UNL     1      -9.901  10.290  64.488  1.00  0.00    -0.384 A  
HETATM    4  C   UNL     1     -10.676  11.342  64.001  1.00  0.00    -0.450 A  
HETATM    5  C   UNL     1     -11.419  12.128  64.890  1.00  0.00    -0.325 A  
HETATM    6  C   UNL     1     -11.398  11.856  66.258  1.00  0.00    -0.394 A  
HETATM    7  C   UNL     1     -10.616  10.806  66.741  1.00  0.00    -0.307 A  
ENDROOT
BRANCH   5   8
HETATM    8  S   UNL     1     -12.256  13.581  64.301  1.00  0.00    -0.370 S  
HETATM    9  O   UNL     1     -13.221  13.952  65.316  1.00  0.00    -0.774 OA 
HETATM   10  O   UNL     1     -12.652  13.355  62.930  1.00  0.00    -0.576 OA 
BRANCH   8  11
HETATM   11  N   UNL     1     -11.062  14.721  64.274  1.00  0.00    -0.606 N  
HETATM   12  H   UNL     1     -10.235  14.481  63.727  1.00  0.00     0.000 HD 
BRANCH  11  13
HETATM   13  C   UNL     1     -11.032  15.967  64.898  1.00  0.00    -0.384 C  
HETATM   14  O   UNL     1     -11.240  16.963  64.218  1.00  0.00    -1.204 OA 
BRANCH  13  15
HETATM   15  N   UNL     1     -10.810  15.952  66.256  1.00  0.00    -0.254 N  
HETATM   16  H   UNL     1     -11.620  15.892  66.873  1.00  0.00     0.000 HD 
BRANCH  15  17
HETATM   17  N   UNL     1      -9.532  16.013  66.843  1.00  0.00    -0.220 NA 
HETATM   18  C   UNL     1      -9.491  16.919  68.009  1.00  0.00    -0.243 C  
HETATM   19  C   UNL     1      -9.691  16.075  69.275  1.00  0.00    -0.257 C  
HETATM   20  C   UNL     1     -11.024  16.291  69.985  1.00  0.00    -0.356 C  
HETATM   21  C   UNL     1     -12.003  15.392  69.255  1.00  0.00    -0.335 C  
HETATM   22  C   UNL     1     -11.177  14.160  68.907  1.00  0.00    -0.294 C  
HETATM   23  C   UNL     1      -9.714  14.622  68.795  1.00  0.00    -0.217 C  
HETATM   24  C   UNL     1      -9.142  14.697  67.382  1.00  0.00    -0.197 C  
ENDBRANCH  15  17
ENDBRANCH  13  15
ENDBRANCH  11  13
ENDBRANCH   8  11
ENDBRANCH   5   8
TORSDOF 5
ENDMDL
MODEL        5
REMARK 921   NORMALIZED FREE ENERGY PREDICTED BY IDOCK:   -6.91 KCAL/MOL
REMARK 922        TOTAL FREE ENERGY PREDICTED BY IDOCK:   -9.70 KCAL/MOL
REMARK 923 INTER-LIGAND FREE ENERGY PREDICTED BY IDOCK:   -9.13 KCAL/MOL
REMARK 924 INTRA-LIGAND FREE ENERGY PREDICTED BY IDOCK:   -0.57 KCAL/MOL
REMARK 927      BINDING AFFINITY PREDICTED BY RF-SCORE:    0.00 PKD
ROOT
HETATM    1  C   UNL     1      -8.726   8.780  65.820  1.00  0.00    -0.209 C  
HETATM    2  C   UNL     1      -9.633   9.922  65.469  1.00  0.00    -0.341 A  
HETATM    3  C   UNL     1      -9.775  10.340  64.141  1.00  0.00    -0.357 A  
HETATM    4  C   UNL     1     -10.555  11.454  63.832  1.00  0.00    -0.452 A  
HETATM    5  C   UNL     1     -11.210  12.149  64.855  1.00  0.00    -0.323 A  
HETATM    6  C   UNL     1     -11.096  11.728  66.180  1.00  0.00    -0.358 A  
HETATM    7  C   UNL     1     -10.309  10.616  66.484  1.00  0.00    -0.299 A  
ENDROOT
BRANCH   5   8
HETATM    8  S   UNL     1     -12.048  13.674  64.493  1.00  0.00    -0.419 S  
HETATM    9  O   UNL     1     -13.055  13.855  65.520  1.00  0.00    -0.699 OA 
HETATM   10  O   UNL     1     -12.393  13.684  63.090  1.00  0.00    -0.729 OA 
BRANCH   8  11
HETATM   11  N   UNL     1     -10.873  14.813  64.707  1.00  0.00    -0.555 N  
HETATM   12  H   UNL     1      -9.925  14.454  64.821  1.00  0.00     0.000 HD 
BRANCH  11  13
HETATM   13  C   UNL     1     -11.001  16.201  64.753  1.00  0.00    -0.313 C  
HETATM   14  O   UNL     1     -11.713  16.748  63.922  1.00  0.00    -1.076 OA 
BRANCH  13  15
HETATM   15  N   UNL     1     -10.333  16.830  65.779  1.00  0.00    -0.342 N  
HETATM   16  H   UNL     1     -10.020  17.789  65.631  1.00  0.00     0.000 HD 
BRANCH  15  17
HETATM   17  N   UNL     1     -10.058  16.228  67.022  1.00  0.00    -0.263 NA 
HETATM   18  C   UNL     1      -8.695  16.529  67.504  1.00  0.00    -0.182 C  
HETATM   19  C   UNL     1      -8.780  17.730  68.456  1.00  0.00    -0.284 C  
HETATM   20  C   UNL     1      -8.164  19.018  67.919  1.00  0.00    -0.311 C  
HETATM   21  C   UNL     1      -9.252  19.642  67.066  1.00  0.00    -0.425 C  
HETATM   22  C   UNL     1     -10.537  19.316  67.817  1.00  0.00    -0.516 C  
HETATM   23  C   UNL     1     -10.275  18.022  68.606  1.00  0.00    -0.385 C  
HETATM   24  C   UNL     1     -10.949  16.762  68.069  1.00  0.00    -0.296 C  
ENDBRANCH  15  17
ENDBRANCH  13  15
ENDBRANCH  11  13
ENDBRANCH   8  11
ENDBRANCH   5   8
TORSDOF 5
ENDMDL
MODEL        6
REMARK 921   NORMALIZED FREE ENERGY PREDICTED BY IDOCK:   -6.83 KCAL/MOL
REMARK 922        TOTAL FREE ENERGY PREDICTED BY IDOCK:   -9.61 KCAL/MOL
REMARK 923 INTER-LIGAND FREE ENERGY PREDICTED BY IDOCK:   -9.13 KCAL/MOL
REMARK 924 INTRA-LIGAND FREE ENERGY PREDICTED BY IDOCK:   -0.48 KCAL/MOL
REMARK 927      BINDING AFFINITY PREDICTED BY RF-SCORE:    0.00 PKD
ROOT
HETATM    1  C   UNL     1      -8.648   8.896  65.228  1.00  0.00    -0.209 C  
HETATM    2  C   UNL     1      -9.559  10.075  65.058  1.00  0.00    -0.362 A  
HETATM    3  C   UNL     1      -9.788  10.624  63.791  1.00  0.00    -0.394 A  
HETATM    4  C   UNL     1     -10.571  11.770  63.649  1.00  0.00    -0.496 A  
HETATM    5  C   UNL     1     -11.142  12.365  64.780  1.00  0.00    -0.304 A  
HETATM    6  C   UNL     1     -10.942  11.812  66.046  1.00  0.00    -0.355 A  
HETATM    7  C   UNL     1     -10.152  10.668  66.182  1.00  0.00    -0.306 A  
ENDROOT
BRANCH   5   8
HETATM    8  S   UNL     1     -11.981  13.925  64.633  1.00  0.00    -0.440 S  
HETATM    9  O   UNL     1     -12.782  14.087  65.829  1.00  0.00    -0.516 OA 
HETATM   10  O   UNL     1     -12.568  14.004  63.315  1.00  0.00    -0.801 OA 
BRANCH   8  11
HETATM   11  N   UNL     1     -10.749  15.023  64.676  1.00  0.00    -0.608 N  
HETATM   12  H   UNL     1      -9.810  14.639  64.566  1.00  0.00     0.000 HD 
BRANCH  11  13
HETATM   13  C   UNL     1     -10.818  16.405  64.842  1.00  0.00    -0.250 C  
HETATM   14  O   UNL     1     -11.535  17.048  64.087  1.00  0.00    -1.135 OA 
BRANCH  13  15
HETATM   15  N   UNL     1     -10.092  16.919  65.892  1.00  0.00    -0.312 N  
HETATM   16  H   UNL     1      -9.087  16.744  65.910  1.00  0.00     0.000 HD 
BRANCH  15  17
HETATM   17  N   UNL     1     -10.653  17.671  66.942  1.00  0.00    -0.285 NA 
HETATM   18  C   UNL     1      -9.863  17.577  68.186  1.00  0.00    -0.306 C  
HETATM   19  C   UNL     1      -8.918  18.785  68.243  1.00  0.00    -0.355 C  
HETATM   20  C   UNL     1      -7.441  18.452  68.059  1.00  0.00    -0.263 C  
HETATM   21  C   UNL     1      -7.241  18.391  66.556  1.00  0.00    -0.259 C  
HETATM   22  C   UNL     1      -8.153  19.488  66.021  1.00  0.00    -0.299 C  
HETATM   23  C   UNL     1      -9.296  19.651  67.039  1.00  0.00    -0.439 C  
HETATM   24  C   UNL     1     -10.656  19.108  66.610  1.00  0.00    -0.432 C  
ENDBRANCH  15  17
ENDBRANCH  13  15
ENDBRANCH  11  13
ENDBRANCH   8  11
ENDBRANCH   5   8
TORSDOF 5
ENDMDL
MODEL        7
REMARK 921   NORMALIZED FREE ENERGY PREDICTED BY IDOCK:   -6.78 KCAL/MOL
REMARK 922        TOTAL FREE ENERGY PREDICTED BY IDOCK:   -9.55 KCAL/MOL
REMARK 923 INTER-LIGAND FREE ENERGY PREDICTED BY IDOCK:   -9.02 KCAL/MOL
REMARK 924 INTRA-LIGAND FREE ENERGY PREDICTED BY IDOCK:   -0.53 KCAL/MOL
REMARK 927      BINDING AFFINITY PREDICTED BY RF-SCORE:    0.00 PKD
ROOT
HETATM    1  C   UNL     1     -10.896  10.196  70.128  1.00  0.00    -0.368 C  
HETATM    2  C   UNL     1     -11.183  11.073  68.946  1.00  0.00    -0.326 A  
HETATM    3  C   UNL     1     -10.982  10.605  67.642  1.00  0.00    -0.370 A  
HETATM    4  C   UNL     1     -11.172  11.453  66.551  1.00  0.00    -0.276 A  
HETATM    5  C   UNL     1     -11.581  12.775  66.761  1.00  0.00    -0.370 A  
HETATM    6  C   UNL     1     -11.809  13.246  68.055  1.00  0.00    -0.392 A  
HETATM    7  C   UNL     1     -11.611  12.394  69.143  1.00  0.00    -0.369 A  
ENDROOT
BRANCH   5   8
HETATM    8  S   UNL     1     -11.643  13.910  65.395  1.00  0.00    -0.339 S  
HETATM    9  O   UNL     1     -13.040  14.079  65.051  1.00  0.00    -0.742 OA 
HETATM   10  O   UNL     1     -10.668  13.495  64.413  1.00  0.00    -0.408 OA 
BRANCH   8  11
HETATM   11  N   UNL     1     -11.092  15.322  66.050  1.00  0.00    -0.314 N  
HETATM   12  H   UNL     1     -10.919  15.304  67.056  1.00  0.00     0.000 HD 
BRANCH  11  13
HETATM   13  C   UNL     1     -10.832  16.536  65.416  1.00  0.00    -0.206 C  
HETATM   14  O   UNL     1     -11.296  16.719  64.298  1.00  0.00    -1.170 OA 
BRANCH  13  15
HETATM   15  N   UNL     1     -10.100  17.447  66.142  1.00  0.00    -0.316 N  
HETATM   16  H   UNL     1      -9.096  17.498  65.973  1.00  0.00     0.000 HD 
BRANCH  15  17
HETATM   17  N   UNL     1     -10.655  18.311  67.105  1.00  0.00    -0.392 NA 
HETATM   18  C   UNL     1      -9.941  18.249  68.396  1.00  0.00    -0.382 C  
HETATM   19  C   UNL     1      -8.909  19.384  68.425  1.00  0.00    -0.397 C  
HETATM   20  C   UNL     1      -7.455  18.930  68.349  1.00  0.00    -0.331 C  
HETATM   21  C   UNL     1      -7.182  18.747  66.868  1.00  0.00    -0.223 C  
HETATM   22  C   UNL     1      -7.977  19.868  66.209  1.00  0.00    -0.346 C  
HETATM   23  C   UNL     1      -9.155  20.188  67.146  1.00  0.00    -0.489 C  
HETATM   24  C   UNL     1     -10.529  19.717  66.678  1.00  0.00    -0.497 C  
ENDBRANCH  15  17
ENDBRANCH  13  15
ENDBRANCH  11  13
ENDBRANCH   8  11
ENDBRANCH   5   8
TORSDOF 5
ENDMDL
MODEL        8
REMARK 921   NORMALIZED FREE ENERGY PREDICTED BY IDOCK:   -6.78 KCAL/MOL
REMARK 922        TOTAL FREE ENERGY PREDICTED BY IDOCK:   -9.54 KCAL/MOL
REMARK 923 INTER-LIGAND FREE ENERGY PREDICTED BY IDOCK:   -8.90 KCAL/MOL
REMARK 924 INTRA-LIGAND FREE ENERGY PREDICTED BY IDOCK:   -0.64 KCAL/MOL
REMARK 927      BINDING AFFINITY PREDICTED BY RF-SCORE:    0.00 PKD
ROOT
HETATM    1  C   UNL     1      -8.912   9.007  67.339  1.00  0.00    -0.135 C  
HETATM    2  C   UNL     1      -9.789  10.035  66.688  1.00  0.00    -0.259 A  
HETATM    3  C   UNL     1      -9.900  10.101  65.294  1.00  0.00    -0.388 A  
HETATM    4  C   UNL     1     -10.651  11.111  64.693  1.00  0.00    -0.386 A  
HETATM    5  C   UNL     1     -11.309  12.055  65.490  1.00  0.00    -0.328 A  
HETATM    6  C   UNL     1     -11.226  11.984  66.882  1.00  0.00    -0.375 A  
HETATM    7  C   UNL     1     -10.468  10.975  67.477  1.00  0.00    -0.244 A  
ENDROOT
BRANCH   5   8
HETATM    8  S   UNL     1     -12.109  13.449  64.733  1.00  0.00    -0.426 S  
HETATM    9  O   UNL     1     -13.060  13.964  65.698  1.00  0.00    -0.625 OA 
HETATM   10  O   UNL     1     -12.517  13.072  63.399  1.00  0.00    -0.710 OA 
BRANCH   8  11
HETATM   11  N   UNL     1     -10.886  14.546  64.569  1.00  0.00    -0.621 N  
HETATM   12  H   UNL     1      -9.982  14.160  64.294  1.00  0.00     0.000 HD 
BRANCH  11  13
HETATM   13  C   UNL     1     -10.922  15.927  64.754  1.00  0.00    -0.375 C  
HETATM   14  O   UNL     1     -11.552  16.605  63.955  1.00  0.00    -1.204 OA 
BRANCH  13  15
HETATM   15  N   UNL     1     -10.266  16.398  65.869  1.00  0.00    -0.350 N  
HETATM   16  H   UNL     1     -10.634  16.141  66.785  1.00  0.00     0.000 HD 
BRANCH  15  17
HETATM   17  N   UNL     1      -9.119  17.213  65.820  1.00  0.00    -0.512 NA 
HETATM   18  C   UNL     1      -9.312  18.500  66.517  1.00  0.00    -0.313 C  
HETATM   19  C   UNL     1      -8.767  18.354  67.945  1.00  0.00    -0.296 C  
HETATM   20  C   UNL     1      -9.829  18.355  69.039  1.00  0.00    -0.288 C  
HETATM   21  C   UNL     1     -10.322  16.921  69.103  1.00  0.00    -0.319 C  
HETATM   22  C   UNL     1      -9.069  16.093  68.843  1.00  0.00    -0.246 C  
HETATM   23  C   UNL     1      -8.127  16.965  67.995  1.00  0.00    -0.194 C  
HETATM   24  C   UNL     1      -7.994  16.572  66.526  1.00  0.00    -0.310 C  
ENDBRANCH  15  17
ENDBRANCH  13  15
ENDBRANCH  11  13
ENDBRANCH   8  11
ENDBRANCH   5   8
TORSDOF 5
ENDMDL
MODEL        9
REMARK 921   NORMALIZED FREE ENERGY PREDICTED BY IDOCK:   -6.69 KCAL/MOL
REMARK 922        TOTAL FREE ENERGY PREDICTED BY IDOCK:   -9.43 KCAL/MOL
REMARK 923 INTER-LIGAND FREE ENERGY PREDICTED BY IDOCK:   -8.64 KCAL/MOL
REMARK 924 INTRA-LIGAND FREE ENERGY PREDICTED BY IDOCK:   -0.79 KCAL/MOL
REMARK 927      BINDING AFFINITY PREDICTED BY RF-SCORE:    0.00 PKD
ROOT
HETATM    1  C   UNL     1     -13.129   9.123  71.381  1.00  0.00    -0.363 C  
HETATM    2  C   UNL     1     -12.829  10.582  71.200  1.00  0.00    -0.513 A  
HETATM    3  C   UNL     1     -13.396  11.540  72.048  1.00  0.00    -0.397 A  
HETATM    4  C   UNL     1     -13.180  12.899  71.823  1.00  0.00    -0.479 A  
HETATM    5  C   UNL     1     -12.378  13.306  70.750  1.00  0.00    -0.344 A  
HETATM    6  C   UNL     1     -11.786  12.359  69.912  1.00  0.00    -0.376 A  
HETATM    7  C   UNL     1     -12.012  11.001  70.139  1.00  0.00    -0.443 A  
ENDROOT
BRANCH   5   8
HETATM    8  S   UNL     1     -12.251  15.031  70.344  1.00  0.00    -0.367 S  
HETATM    9  O   UNL     1     -10.903  15.444  70.678  1.00  0.00    -0.319 OA 
HETATM   10  O   UNL     1     -13.404  15.713  70.885  1.00  0.00    -0.556 OA 
BRANCH   8  11
HETATM   11  N   UNL     1     -12.409  15.048  68.701  1.00  0.00    -0.589 N  
HETATM   12  H   UNL     1     -13.351  14.879  68.347  1.00  0.00     0.000 HD 
BRANCH  11  13
HETATM   13  C   UNL     1     -11.430  15.261  67.732  1.00  0.00    -0.303 C  
HETATM   14  O   UNL     1     -11.329  14.451  66.820  1.00  0.00    -0.329 OA 
BRANCH  13  15
HETATM   15  N   UNL     1     -10.687  16.410  67.874  1.00  0.00    -0.326 N  
HETATM   16  H   UNL     1     -11.158  17.246  68.220  1.00  0.00     0.000 HD 
BRANCH  15  17
HETATM   17  N   UNL     1      -9.315  16.500  67.571  1.00  0.00    -0.218 NA 
HETATM   18  C   UNL     1      -9.064  17.206  66.299  1.00  0.00    -0.228 C  
HETATM   19  C   UNL     1      -8.773  18.678  66.619  1.00  0.00    -0.307 C  
HETATM   20  C   UNL     1      -9.860  19.656  66.186  1.00  0.00    -0.523 C  
HETATM   21  C   UNL     1     -10.875  19.632  67.313  1.00  0.00    -0.519 C  
HETATM   22  C   UNL     1     -10.023  19.484  68.568  1.00  0.00    -0.538 C  
HETATM   23  C   UNL     1      -8.733  18.760  68.147  1.00  0.00    -0.335 C  
HETATM   24  C   UNL     1      -8.609  17.304  68.587  1.00  0.00    -0.265 C  
ENDBRANCH  15  17
ENDBRANCH  13  15
ENDBRANCH  11  13
ENDBRANCH   8  11
ENDBRANCH   5   8
TORSDOF 5
ENDMDL
MODEL       10
REMARK 921   NORMALIZED FREE ENERGY PREDICTED BY IDOCK:   -6.68 KCAL/MOL
REMARK 922        TOTAL FREE ENERGY PREDICTED BY IDOCK:   -9.42 KCAL/MOL
REMARK 923 INTER-LIGAND FREE ENERGY PREDICTED BY IDOCK:   -8.46 KCAL/MOL
REMARK 924 INTRA-LIGAND FREE ENERGY PREDICTED BY IDOCK:   -0.96 KCAL/MOL
REMARK 927      BINDING AFFINITY PREDICTED BY RF-SCORE:    0.00 PKD
ROOT
HETATM    1  C   UNL     1     -13.366  13.904  72.463  1.00  0.00    -0.656 C  
HETATM    2  C   UNL     1     -12.712  13.922  71.113  1.00  0.00    -0.441 A  
HETATM    3  C   UNL     1     -12.277  12.735  70.514  1.00  0.00    -0.389 A  
HETATM    4  C   UNL     1     -11.595  12.767  69.297  1.00  0.00    -0.372 A  
HETATM    5  C   UNL     1     -11.359  13.994  68.666  1.00  0.00    -0.276 A  
HETATM    6  C   UNL     1     -11.810  15.182  69.241  1.00  0.00    -0.347 A  
HETATM    7  C   UNL     1     -12.486  15.144  70.462  1.00  0.00    -0.429 A  
ENDROOT
BRANCH   5   8
HETATM    8  S   UNL     1     -10.332  14.060  67.217  1.00  0.00    -0.265 S  
HETATM    9  O   UNL     1     -10.418  12.762  66.579  1.00  0.00    -0.257 OA 
HETATM   10  O   UNL     1      -9.059  14.636  67.587  1.00  0.00    -0.184 OA 
BRANCH   8  11
HETATM   11  N   UNL     1     -11.098  15.165  66.259  1.00  0.00    -0.333 N  
HETATM   12  H   UNL     1     -12.051  14.925  65.984  1.00  0.00     0.000 HD 
BRANCH  11  13
HETATM   13  C   UNL     1     -10.619  16.381  65.774  1.00  0.00    -0.315 C  
HETATM   14  O   UNL     1     -10.828  16.663  64.602  1.00  0.00    -0.784 OA 
BRANCH  13  15
HETATM   15  N   UNL     1      -9.983  17.183  66.694  1.00  0.00    -0.282 N  
HETATM   16  H   UNL     1      -8.972  17.092  66.791  1.00  0.00     0.000 HD 
BRANCH  15  17
HETATM   17  N   UNL     1     -10.645  18.122  67.508  1.00  0.00    -0.413 NA 
HETATM   18  C   UNL     1      -9.950  18.344  68.792  1.00  0.00    -0.375 C  
HETATM   19  C   UNL     1      -9.048  19.576  68.639  1.00  0.00    -0.396 C  
HETATM   20  C   UNL     1      -7.552  19.280  68.635  1.00  0.00    -0.385 C  
HETATM   21  C   UNL     1      -7.236  18.896  67.202  1.00  0.00    -0.221 C  
HETATM   22  C   UNL     1      -8.138  19.804  66.374  1.00  0.00    -0.350 C  
HETATM   23  C   UNL     1      -9.359  20.136  67.249  1.00  0.00    -0.519 C  
HETATM   24  C   UNL     1     -10.665  19.448  66.863  1.00  0.00    -0.465 C  
ENDBRANCH  15  17
ENDBRANCH  13  15
ENDBRANCH  11  13
ENDBRANCH   8  11
ENDBRANCH   5   8
TORSDOF 5
ENDMDL
MODEL       11
REMARK 921   NORMALIZED FREE ENERGY PREDICTED BY IDOCK:   -6.68 KCAL/MOL
REMARK 922        TOTAL FREE ENERGY PREDICTED BY IDOCK:   -9.41 KCAL/MOL
REMARK 923 INTER-LIGAND FREE ENERGY PREDICTED BY IDOCK:   -8.58 KCAL/MOL
REMARK 924 INTRA-LIGAND FREE ENERGY PREDICTED BY IDOCK:   -0.83 KCAL/MOL
REMARK 927      BINDING AFFINITY PREDICTED BY RF-SCORE:    0.00 PKD
ROOT
HETATM    1  C   UNL     1     -12.532   9.213  71.433  1.00  0.00    -0.396 C  
HETATM    2  C   UNL     1     -12.543  10.691  71.179  1.00  0.00    -0.526 A  
HETATM    3  C   UNL     1     -11.794  11.242  70.133  1.00  0.00    -0.449 A  
HETATM    4  C   UNL     1     -11.743  12.624  69.954  1.00  0.00    -0.320 A  
HETATM    5  C   UNL     1     -12.459  13.463  70.816  1.00  0.00    -0.341 A  
HETATM    6  C   UNL     1     -13.230  12.924  71.847  1.00  0.00    -0.521 A  
HETATM    7  C   UNL     1     -13.271  11.540  72.025  1.00  0.00    -0.443 A  
ENDROOT
BRANCH   5   8
HETATM    8  S   UNL     1     -12.250  15.225  70.712  1.00  0.00    -0.397 S  
HETATM    9  O   UNL     1     -10.913  15.520  71.186  1.00  0.00    -0.343 OA 
HETATM   10  O   UNL     1     -13.413  15.857  71.293  1.00  0.00    -0.499 OA 
BRANCH   8  11
HETATM   11  N   UNL     1     -12.305  15.519  69.088  1.00  0.00    -0.609 N  
HETATM   12  H   UNL     1     -13.235  15.506  68.669  1.00  0.00     0.000 HD 
BRANCH  11  13
HETATM   13  C   UNL     1     -11.253  15.781  68.213  1.00  0.00    -0.356 C  
HETATM   14  O   UNL     1     -10.613  16.813  68.365  1.00  0.00    -0.316 OA 
BRANCH  13  15
HETATM   15  N   UNL     1     -11.002  14.811  67.270  1.00  0.00    -0.309 N  
HETATM   16  H   UNL     1     -10.509  13.969  67.568  1.00  0.00     0.000 HD 
BRANCH  15  17
HETATM   17  N   UNL     1     -11.386  14.911  65.919  1.00  0.00    -0.332 NA 
HETATM   18  C   UNL     1     -10.329  14.449  64.997  1.00  0.00    -0.421 C  
HETATM   19  C   UNL     1     -10.612  12.982  64.646  1.00  0.00    -0.397 C  
HETATM   20  C   UNL     1      -9.623  11.980  65.232  1.00  0.00    -0.117 C  
HETATM   21  C   UNL     1     -10.123  11.718  66.640  1.00  0.00    -0.231 C  
HETATM   22  C   UNL     1     -11.641  11.749  66.499  1.00  0.00    -0.256 C  
HETATM   23  C   UNL     1     -11.957  12.660  65.301  1.00  0.00    -0.487 C  
HETATM   24  C   UNL     1     -12.536  14.032  65.637  1.00  0.00    -0.512 C  
ENDBRANCH  15  17
ENDBRANCH  13  15
ENDBRANCH  11  13
ENDBRANCH   8  11
ENDBRANCH   5   8
TORSDOF 5
ENDMDL
MODEL       12
REMARK 921   NORMALIZED FREE ENERGY PREDICTED BY IDOCK:   -6.65 KCAL/MOL
REMARK 922        TOTAL FREE ENERGY PREDICTED BY IDOCK:   -9.38 KCAL/MOL
REMARK 923 INTER-LIGAND FREE ENERGY PREDICTED BY IDOCK:   -8.73 KCAL/MOL
REMARK 924 INTRA-LIGAND FREE ENERGY PREDICTED BY IDOCK:   -0.64 KCAL/MOL
REMARK 927      BINDING AFFINITY PREDICTED BY RF-SCORE:    0.00 PKD
ROOT
HETATM    1  C   UNL     1      -5.223  20.804  69.064  1.00  0.00    -0.357 C  
HETATM    2  C   UNL     1      -6.441  20.126  68.510  1.00  0.00    -0.342 A  
HETATM    3  C   UNL     1      -7.226  20.752  67.534  1.00  0.00    -0.377 A  
HETATM    4  C   UNL     1      -8.402  20.152  67.083  1.00  0.00    -0.391 A  
HETATM    5  C   UNL     1      -8.792  18.911  67.600  1.00  0.00    -0.288 A  
HETATM    6  C   UNL     1      -8.004  18.266  68.555  1.00  0.00    -0.324 A  
HETATM    7  C   UNL     1      -6.831  18.874  69.006  1.00  0.00    -0.336 A  
ENDROOT
BRANCH   5   8
HETATM    8  S   UNL     1     -10.377  18.232  67.173  1.00  0.00    -0.388 S  
HETATM    9  O   UNL     1     -11.257  19.352  66.907  1.00  0.00    -0.276 OA 
HETATM   10  O   UNL     1     -10.717  17.220  68.147  1.00  0.00    -0.377 OA 
BRANCH   8  11
HETATM   11  N   UNL     1     -10.084  17.449  65.750  1.00  0.00    -0.187 N  
HETATM   12  H   UNL     1      -9.236  17.731  65.257  1.00  0.00     0.000 HD 
BRANCH  11  13
HETATM   13  C   UNL     1     -10.838  16.454  65.129  1.00  0.00    -0.275 C  
HETATM   14  O   UNL     1     -11.393  16.720  64.072  1.00  0.00    -1.153 OA 
BRANCH  13  15
HETATM   15  N   UNL     1     -10.847  15.230  65.758  1.00  0.00    -0.346 N  
HETATM   16  H   UNL     1      -9.964  14.729  65.844  1.00  0.00     0.000 HD 
BRANCH  15  17
HETATM   17  N   UNL     1     -12.005  14.630  66.290  1.00  0.00    -0.308 NA 
HETATM   18  C   UNL     1     -12.899  14.102  65.240  1.00  0.00    -0.344 C  
HETATM   19  C   UNL     1     -12.587  12.611  65.054  1.00  0.00    -0.504 C  
HETATM   20  C   UNL     1     -11.911  12.257  63.733  1.00  0.00    -0.609 C  
HETATM   21  C   UNL     1     -10.435  12.515  63.971  1.00  0.00    -0.449 C  
HETATM   22  C   UNL     1     -10.219  12.090  65.419  1.00  0.00    -0.295 C  
HETATM   23  C   UNL     1     -11.565  12.272  66.141  1.00  0.00    -0.450 C  
HETATM   24  C   UNL     1     -11.652  13.452  67.105  1.00  0.00    -0.358 C  
ENDBRANCH  15  17
ENDBRANCH  13  15
ENDBRANCH  11  13
ENDBRANCH   8  11
ENDBRANCH   5   8
TORSDOF 5
ENDMDL
MODEL       13
REMARK 921   NORMALIZED FREE ENERGY PREDICTED BY IDOCK:   -6.65 KCAL/MOL
REMARK 922        TOTAL FREE ENERGY PREDICTED BY IDOCK:   -9.37 KCAL/MOL
REMARK 923 INTER-LIGAND FREE ENERGY PREDICTED BY IDOCK:   -8.81 KCAL/MOL
REMARK 924 INTRA-LIGAND FREE ENERGY PREDICTED BY IDOCK:   -0.56 KCAL/MOL
REMARK 927      BINDING AFFINITY PREDICTED BY RF-SCORE:    0.00 PKD
ROOT
HETATM    1  C   UNL     1     -12.240   9.084  71.143  1.00  0.00    -0.331 C  
HETATM    2  C   UNL     1     -12.419  10.570  71.049  1.00  0.00    -0.501 A  
HETATM    3  C   UNL     1     -11.781  11.304  70.042  1.00  0.00    -0.428 A  
HETATM    4  C   UNL     1     -11.884  12.695  70.010  1.00  0.00    -0.358 A  
HETATM    5  C   UNL     1     -12.642  13.358  70.982  1.00  0.00    -0.343 A  
HETATM    6  C   UNL     1     -13.303  12.635  71.976  1.00  0.00    -0.555 A  
HETATM    7  C   UNL     1     -13.191  11.244  72.007  1.00  0.00    -0.437 A  
ENDROOT
BRANCH   5   8
HETATM    8  S   UNL     1     -12.625  15.133  71.060  1.00  0.00    -0.416 S  
HETATM    9  O   UNL     1     -11.363  15.516  71.661  1.00  0.00    -0.389 OA 
HETATM   10  O   UNL     1     -13.886  15.579  71.605  1.00  0.00    -0.484 OA 
BRANCH   8  11
HETATM   11  N   UNL     1     -12.603  15.582  69.471  1.00  0.00    -0.589 N  
HETATM   12  H   UNL     1     -13.504  15.551  68.991  1.00  0.00     0.000 HD 
BRANCH  11  13
HETATM   13  C   UNL     1     -11.522  15.999  68.696  1.00  0.00    -0.377 C  
HETATM   14  O   UNL     1     -10.786  16.868  69.144  1.00  0.00    -0.330 OA 
BRANCH  13  15
HETATM   15  N   UNL     1     -11.359  15.345  67.496  1.00  0.00    -0.308 N  
HETATM   16  H   UNL     1     -12.192  15.138  66.946  1.00  0.00     0.000 HD 
BRANCH  15  17
HETATM   17  N   UNL     1     -10.110  14.946  66.984  1.00  0.00    -0.242 NA 
HETATM   18  C   UNL     1      -9.970  13.477  66.920  1.00  0.00    -0.256 C  
HETATM   19  C   UNL     1     -10.348  13.023  65.504  1.00  0.00    -0.304 C  
HETATM   20  C   UNL     1     -11.656  12.243  65.408  1.00  0.00    -0.412 C  
HETATM   21  C   UNL     1     -12.736  13.306  65.334  1.00  0.00    -0.460 C  
HETATM   22  C   UNL     1     -12.101  14.415  64.504  1.00  0.00    -0.498 C  
HETATM   23  C   UNL     1     -10.581  14.313  64.713  1.00  0.00    -0.434 C  
HETATM   24  C   UNL     1      -9.952  15.394  65.588  1.00  0.00    -0.362 C  
ENDBRANCH  15  17
ENDBRANCH  13  15
ENDBRANCH  11  13
ENDBRANCH   8  11
ENDBRANCH   5   8
TORSDOF 5
ENDMDL
MODEL       14
REMARK 921   NORMALIZED FREE ENERGY PREDICTED BY IDOCK:   -6.64 KCAL/MOL
REMARK 922        TOTAL FREE ENERGY PREDICTED BY IDOCK:   -9.36 KCAL/MOL
REMARK 923 INTER-LIGAND FREE ENERGY PREDICTED BY IDOCK:   -8.63 KCAL/MOL
REMARK 924 INTRA-LIGAND FREE ENERGY PREDICTED BY IDOCK:   -0.73 KCAL/MOL
REMARK 927      BINDING AFFINITY PREDICTED BY RF-SCORE:    0.00 PKD
ROOT
HETATM    1  C   UNL     1     -12.419   9.196  71.391  1.00  0.00    -0.396 C  
HETATM    2  C   UNL     1     -12.494  10.666  71.099  1.00  0.00    -0.523 A  
HETATM    3  C   UNL     1     -11.799  11.216  70.016  1.00  0.00    -0.441 A  
HETATM    4  C   UNL     1     -11.807  12.594  69.800  1.00  0.00    -0.379 A  
HETATM    5  C   UNL     1     -12.526  13.429  70.663  1.00  0.00    -0.311 A  
HETATM    6  C   UNL     1     -13.243  12.889  71.731  1.00  0.00    -0.479 A  
HETATM    7  C   UNL     1     -13.227  11.510  71.947  1.00  0.00    -0.479 A  
ENDROOT
BRANCH   5   8
HETATM    8  S   UNL     1     -12.387  15.194  70.507  1.00  0.00    -0.385 S  
HETATM    9  O   UNL     1     -11.091  15.563  71.037  1.00  0.00    -0.344 OA 
HETATM   10  O   UNL     1     -13.605  15.792  71.004  1.00  0.00    -0.568 OA 
BRANCH   8  11
HETATM   11  N   UNL     1     -12.369  15.430  68.873  1.00  0.00    -0.608 N  
HETATM   12  H   UNL     1     -13.273  15.354  68.406  1.00  0.00     0.000 HD 
BRANCH  11  13
HETATM   13  C   UNL     1     -11.285  15.718  68.045  1.00  0.00    -0.338 C  
HETATM   14  O   UNL     1     -11.049  14.963  67.111  1.00  0.00    -0.316 OA 
BRANCH  13  15
HETATM   15  N   UNL     1     -10.599  16.875  68.338  1.00  0.00    -0.347 N  
HETATM   16  H   UNL     1      -9.879  16.835  69.059  1.00  0.00     0.000 HD 
BRANCH  15  17
HETATM   17  N   UNL     1     -10.833  18.109  67.702  1.00  0.00    -0.334 NA 
HETATM   18  C   UNL     1     -10.233  19.242  68.435  1.00  0.00    -0.411 C  
HETATM   19  C   UNL     1      -8.860  19.537  67.816  1.00  0.00    -0.370 C  
HETATM   20  C   UNL     1      -7.669  19.188  68.703  1.00  0.00    -0.387 C  
HETATM   21  C   UNL     1      -7.433  17.707  68.472  1.00  0.00    -0.269 C  
HETATM   22  C   UNL     1      -7.743  17.515  66.993  1.00  0.00    -0.239 C  
HETATM   23  C   UNL     1      -8.754  18.608  66.604  1.00  0.00    -0.307 C  
HETATM   24  C   UNL     1     -10.189  18.141  66.376  1.00  0.00    -0.399 C  
ENDBRANCH  15  17
ENDBRANCH  13  15
ENDBRANCH  11  13
ENDBRANCH   8  11
ENDBRANCH   5   8
TORSDOF 5
ENDMDL
MODEL       15
REMARK 921   NORMALIZED FREE ENERGY PREDICTED BY IDOCK:   -6.57 KCAL/MOL
REMARK 922        TOTAL FREE ENERGY PREDICTED BY IDOCK:   -9.27 KCAL/MOL
REMARK 923 INTER-LIGAND FREE ENERGY PREDICTED BY IDOCK:   -8.42 KCAL/MOL
REMARK 924 INTRA-LIGAND FREE ENERGY PREDICTED BY IDOCK:   -0.85 KCAL/MOL
REMARK 927      BINDING AFFINITY PREDICTED BY RF-SCORE:    0.00 PKD
ROOT
HETATM    1  C   UNL     1     -13.268  14.384  72.908  1.00  0.00    -0.613 C  
HETATM    2  C   UNL     1     -12.662  14.432  71.537  1.00  0.00    -0.417 A  
HETATM    3  C   UNL     1     -12.329  15.656  70.945  1.00  0.00    -0.479 A  
HETATM    4  C   UNL     1     -11.843  15.699  69.639  1.00  0.00    -0.377 A  
HETATM    5  C   UNL     1     -11.675  14.510  68.921  1.00  0.00    -0.319 A  
HETATM    6  C   UNL     1     -11.980  13.281  69.509  1.00  0.00    -0.366 A  
HETATM    7  C   UNL     1     -12.471  13.245  70.815  1.00  0.00    -0.403 A  
ENDROOT
BRANCH   5   8
HETATM    8  S   UNL     1     -11.238  14.569  67.199  1.00  0.00    -0.345 S  
HETATM    9  O   UNL     1     -12.439  14.263  66.449  1.00  0.00    -0.441 OA 
HETATM   10  O   UNL     1     -10.020  13.815  67.011  1.00  0.00    -0.242 OA 
BRANCH   8  11
HETATM   11  N   UNL     1     -10.861  16.158  66.957  1.00  0.00    -0.252 N  
HETATM   12  H   UNL     1     -11.114  16.792  67.716  1.00  0.00     0.000 HD 
BRANCH  11  13
HETATM   13  C   UNL     1     -10.244  16.750  65.857  1.00  0.00    -0.328 C  
HETATM   14  O   UNL     1     -10.702  16.530  64.744  1.00  0.00    -0.719 OA 
BRANCH  13  15
HETATM   15  N   UNL     1      -9.183  17.580  66.140  1.00  0.00    -0.189 N  
HETATM   16  H   UNL     1      -8.450  17.227  66.756  1.00  0.00     0.000 HD 
BRANCH  15  17
HETATM   17  N   UNL     1      -9.049  18.885  65.631  1.00  0.00    -0.123 NA 
HETATM   18  C   UNL     1     -10.172  19.761  66.021  1.00  0.00    -0.501 C  
HETATM   19  C   UNL     1      -9.755  20.541  67.275  1.00  0.00    -0.600 C  
HETATM   20  C   UNL     1     -10.485  20.140  68.552  1.00  0.00    -0.264 C  
HETATM   21  C   UNL     1      -9.724  18.936  69.073  1.00  0.00    -0.356 C  
HETATM   22  C   UNL     1      -8.271  19.250  68.739  1.00  0.00    -0.390 C  
HETATM   23  C   UNL     1      -8.287  20.175  67.510  1.00  0.00    -0.383 C  
HETATM   24  C   UNL     1      -7.853  19.543  66.190  1.00  0.00    -0.316 C  
ENDBRANCH  15  17
ENDBRANCH  13  15
ENDBRANCH  11  13
ENDBRANCH   8  11
ENDBRANCH   5   8
TORSDOF 5
ENDMDL
MODEL       16
REMARK 921   NORMALIZED FREE ENERGY PREDICTED BY IDOCK:   -6.56 KCAL/MOL
REMARK 922        TOTAL FREE ENERGY PREDICTED BY IDOCK:   -9.26 KCAL/MOL
REMARK 923 INTER-LIGAND FREE ENERGY PREDICTED BY IDOCK:   -7.84 KCAL/MOL
REMARK 924 INTRA-LIGAND FREE ENERGY PREDICTED BY IDOCK:   -1.41 KCAL/MOL
REMARK 927      BINDING AFFINITY PREDICTED BY RF-SCORE:    0.00 PKD
ROOT
HETATM    1  C   UNL     1     -10.898  10.560  69.927  1.00  0.00    -0.334 C  
HETATM    2  C   UNL     1     -11.160  11.086  68.547  1.00  0.00    -0.297 A  
HETATM    3  C   UNL     1     -10.722  10.384  67.419  1.00  0.00    -0.338 A  
HETATM    4  C   UNL     1     -10.896  10.920  66.142  1.00  0.00    -0.166 A  
HETATM    5  C   UNL     1     -11.525  12.161  65.990  1.00  0.00    -0.370 A  
HETATM    6  C   UNL     1     -11.989  12.859  67.106  1.00  0.00    -0.374 A  
HETATM    7  C   UNL     1     -11.807  12.320  68.381  1.00  0.00    -0.358 A  
ENDROOT
BRANCH   5   8
HETATM    8  S   UNL     1     -11.582  12.934  64.391  1.00  0.00    -0.390 S  
HETATM    9  O   UNL     1     -12.612  12.256  63.631  1.00  0.00    -0.649 OA 
HETATM   10  O   UNL     1     -10.230  13.052  63.893  1.00  0.00    -0.378 OA 
BRANCH   8  11
HETATM   11  N   UNL     1     -12.103  14.464  64.728  1.00  0.00    -0.433 N  
HETATM   12  H   UNL     1     -13.086  14.547  64.990  1.00  0.00     0.000 HD 
BRANCH  11  13
HETATM   13  C   UNL     1     -11.383  15.657  64.702  1.00  0.00    -0.349 C  
HETATM   14  O   UNL     1     -11.647  16.477  63.833  1.00  0.00    -1.175 OA 
BRANCH  13  15
HETATM   15  N   UNL     1     -10.456  15.818  65.706  1.00  0.00    -0.346 N  
HETATM   16  H   UNL     1      -9.694  15.143  65.767  1.00  0.00     0.000 HD 
BRANCH  15  17
HETATM   17  N   UNL     1     -10.497  16.859  66.654  1.00  0.00    -0.290 NA 
HETATM   18  C   UNL     1     -10.761  16.366  68.020  1.00  0.00    -0.334 C  
HETATM   19  C   UNL     1      -9.412  16.191  68.732  1.00  0.00    -0.230 C  
HETATM   20  C   UNL     1      -9.011  14.743  68.997  1.00  0.00    -0.135 C  
HETATM   21  C   UNL     1      -8.367  14.277  67.704  1.00  0.00    -0.187 C  
HETATM   22  C   UNL     1      -7.621  15.508  67.203  1.00  0.00    -0.253 C  
HETATM   23  C   UNL     1      -8.366  16.735  67.757  1.00  0.00    -0.193 C  
HETATM   24  C   UNL     1      -9.187  17.531  66.747  1.00  0.00    -0.265 C  
ENDBRANCH  15  17
ENDBRANCH  13  15
ENDBRANCH  11  13
ENDBRANCH   8  11
ENDBRANCH   5   8
TORSDOF 5
ENDMDL
MODEL       17
REMARK 921   NORMALIZED FREE ENERGY PREDICTED BY IDOCK:   -6.54 KCAL/MOL
REMARK 922        TOTAL FREE ENERGY PREDICTED BY IDOCK:   -9.23 KCAL/MOL
REMARK 923 INTER-LIGAND FREE ENERGY PREDICTED BY IDOCK:   -8.18 KCAL/MOL
REMARK 924 INTRA-LIGAND FREE ENERGY PREDICTED BY IDOCK:   -1.05 KCAL/MOL
REMARK 927      BINDING AFFINITY PREDICTED BY RF-SCORE:    0.00 PKD
ROOT
HETATM    1  C   UNL     1     -13.045  15.533  73.579  1.00  0.00    -0.616 C  
HETATM    2  C   UNL     1     -12.747  14.961  72.225  1.00  0.00    -0.411 A  
HETATM    3  C   UNL     1     -13.006  13.614  71.945  1.00  0.00    -0.432 A  
HETATM    4  C   UNL     1     -12.650  13.068  70.712  1.00  0.00    -0.321 A  
HETATM    5  C   UNL     1     -12.043  13.877  69.744  1.00  0.00    -0.345 A  
HETATM    6  C   UNL     1     -11.802  15.227  70.002  1.00  0.00    -0.365 A  
HETATM    7  C   UNL     1     -12.155  15.766  71.240  1.00  0.00    -0.487 A  
ENDROOT
BRANCH   5   8
HETATM    8  S   UNL     1     -11.417  13.149  68.248  1.00  0.00    -0.338 S  
HETATM    9  O   UNL     1     -12.136  11.906  68.052  1.00  0.00    -0.541 OA 
HETATM   10  O   UNL     1      -9.974  13.187  68.291  1.00  0.00    -0.228 OA 
BRANCH   8  11
HETATM   11  N   UNL     1     -11.891  14.215  67.080  1.00  0.00    -0.405 N  
HETATM   12  H   UNL     1     -12.898  14.299  66.941  1.00  0.00     0.000 HD 
BRANCH  11  13
HETATM   13  C   UNL     1     -11.100  15.016  66.257  1.00  0.00    -0.334 C  
HETATM   14  O   UNL     1     -11.036  14.742  65.066  1.00  0.00    -0.359 OA 
BRANCH  13  15
HETATM   15  N   UNL     1     -10.492  16.087  66.871  1.00  0.00    -0.304 N  
HETATM   16  H   UNL     1     -11.082  16.853  67.194  1.00  0.00     0.000 HD 
BRANCH  15  17
HETATM   17  N   UNL     1      -9.103  16.188  67.078  1.00  0.00    -0.201 NA 
HETATM   18  C   UNL     1      -8.476  17.207  66.212  1.00  0.00    -0.244 C  
HETATM   19  C   UNL     1      -8.376  18.514  67.010  1.00  0.00    -0.259 C  
HETATM   20  C   UNL     1      -9.302  19.628  66.532  1.00  0.00    -0.464 C  
HETATM   21  C   UNL     1     -10.631  19.343  67.204  1.00  0.00    -0.596 C  
HETATM   22  C   UNL     1     -10.240  18.808  68.576  1.00  0.00    -0.397 C  
HETATM   23  C   UNL     1      -8.851  18.164  68.422  1.00  0.00    -0.305 C  
HETATM   24  C   UNL     1      -8.813  16.639  68.452  1.00  0.00    -0.226 C  
ENDBRANCH  15  17
ENDBRANCH  13  15
ENDBRANCH  11  13
ENDBRANCH   8  11
ENDBRANCH   5   8
TORSDOF 5
ENDMDL
MODEL       18
REMARK 921   NORMALIZED FREE ENERGY PREDICTED BY IDOCK:   -6.48 KCAL/MOL
REMARK 922        TOTAL FREE ENERGY PREDICTED BY IDOCK:   -9.15 KCAL/MOL
REMARK 923 INTER-LIGAND FREE ENERGY PREDICTED BY IDOCK:   -8.41 KCAL/MOL
REMARK 924 INTRA-LIGAND FREE ENERGY PREDICTED BY IDOCK:   -0.74 KCAL/MOL
REMARK 927      BINDING AFFINITY PREDICTED BY RF-SCORE:    0.00 PKD
ROOT
HETATM    1  C   UNL     1     -13.023   9.792  71.788  1.00  0.00    -0.536 C  
HETATM    2  C   UNL     1     -12.727  11.178  71.297  1.00  0.00    -0.531 A  
HETATM    3  C   UNL     1     -11.891  11.382  70.192  1.00  0.00    -0.440 A  
HETATM    4  C   UNL     1     -11.554  12.675  69.792  1.00  0.00    -0.285 A  
HETATM    5  C   UNL     1     -12.066  13.774  70.491  1.00  0.00    -0.345 A  
HETATM    6  C   UNL     1     -12.920  13.584  71.579  1.00  0.00    -0.440 A  
HETATM    7  C   UNL     1     -13.249  12.287  71.978  1.00  0.00    -0.508 A  
ENDROOT
BRANCH   5   8
HETATM    8  S   UNL     1     -11.493  15.412  70.107  1.00  0.00    -0.351 S  
HETATM    9  O   UNL     1     -11.764  16.236  71.268  1.00  0.00    -0.435 OA 
HETATM   10  O   UNL     1     -11.984  15.771  68.797  1.00  0.00    -0.374 OA 
BRANCH   8  11
HETATM   11  N   UNL     1      -9.859  15.221  69.972  1.00  0.00    -0.480 N  
HETATM   12  H   UNL     1      -9.388  14.849  70.797  1.00  0.00     0.000 HD 
BRANCH  11  13
HETATM   13  C   UNL     1      -9.036  15.499  68.882  1.00  0.00    -0.220 C  
HETATM   14  O   UNL     1      -8.426  14.574  68.362  1.00  0.00    -0.150 OA 
BRANCH  13  15
HETATM   15  N   UNL     1      -9.022  16.809  68.460  1.00  0.00    -0.236 N  
HETATM   16  H   UNL     1      -9.863  17.368  68.606  1.00  0.00     0.000 HD 
BRANCH  15  17
HETATM   17  N   UNL     1      -7.918  17.423  67.841  1.00  0.00    -0.212 NA 
HETATM   18  C   UNL     1      -8.195  17.800  66.440  1.00  0.00    -0.255 C  
HETATM   19  C   UNL     1      -8.630  19.272  66.420  1.00  0.00    -0.355 C  
HETATM   20  C   UNL     1     -10.099  19.501  66.081  1.00  0.00    -0.557 C  
HETATM   21  C   UNL     1     -10.834  19.323  67.396  1.00  0.00    -0.554 C  
HETATM   22  C   UNL     1      -9.881  19.913  68.429  1.00  0.00    -0.489 C  
HETATM   23  C   UNL     1      -8.459  19.765  67.859  1.00  0.00    -0.348 C  
HETATM   24  C   UNL     1      -7.586  18.695  68.509  1.00  0.00    -0.311 C  
ENDBRANCH  15  17
ENDBRANCH  13  15
ENDBRANCH  11  13
ENDBRANCH   8  11
ENDBRANCH   5   8
TORSDOF 5
ENDMDL
MODEL       19
REMARK 921   NORMALIZED FREE ENERGY PREDICTED BY IDOCK:   -6.47 KCAL/MOL
REMARK 922        TOTAL FREE ENERGY PREDICTED BY IDOCK:   -9.14 KCAL/MOL
REMARK 923 INTER-LIGAND FREE ENERGY PREDICTED BY IDOCK:   -8.59 KCAL/MOL
REMARK 924 INTRA-LIGAND FREE ENERGY PREDICTED BY IDOCK:   -0.55 KCAL/MOL
REMARK 927      BINDING AFFINITY PREDICTED BY RF-SCORE:    0.00 PKD
ROOT
HETATM    1  C   UNL     1     -13.212  12.964  72.063  1.00  0.00    -0.549 C  
HETATM    2  C   UNL     1     -12.573  13.879  71.061  1.00  0.00    -0.444 A  
HETATM    3  C   UNL     1     -12.164  13.398  69.812  1.00  0.00    -0.307 A  
HETATM    4  C   UNL     1     -11.496  14.235  68.918  1.00  0.00    -0.318 A  
HETATM    5  C   UNL     1     -11.247  15.567  69.268  1.00  0.00    -0.310 A  
HETATM    6  C   UNL     1     -11.672  16.065  70.500  1.00  0.00    -0.350 A  
HETATM    7  C   UNL     1     -12.335  15.221  71.393  1.00  0.00    -0.424 A  
ENDROOT
BRANCH   5   8
HETATM    8  S   UNL     1     -10.235  16.584  68.218  1.00  0.00    -0.283 S  
HETATM    9  O   UNL     1      -8.947  16.710  68.870  1.00  0.00    -0.250 OA 
HETATM   10  O   UNL     1     -11.002  17.745  67.831  1.00  0.00    -0.308 OA 
BRANCH   8  11
HETATM   11  N   UNL     1     -10.046  15.660  66.863  1.00  0.00    -0.257 N  
HETATM   12  H   UNL     1      -9.547  14.780  66.995  1.00  0.00     0.000 HD 
BRANCH  11  13
HETATM   13  C   UNL     1     -10.477  15.920  65.563  1.00  0.00    -0.404 C  
HETATM   14  O   UNL     1     -10.543  17.085  65.194  1.00  0.00    -0.688 OA 
BRANCH  13  15
HETATM   15  N   UNL     1     -10.748  14.814  64.790  1.00  0.00    -0.567 N  
HETATM   16  H   UNL     1      -9.961  14.261  64.452  1.00  0.00     0.000 HD 
BRANCH  15  17
HETATM   17  N   UNL     1     -12.048  14.402  64.438  1.00  0.00    -0.479 NA 
HETATM   18  C   UNL     1     -12.048  13.421  63.334  1.00  0.00    -0.372 C  
HETATM   19  C   UNL     1     -12.103  12.015  63.946  1.00  0.00    -0.557 C  
HETATM   20  C   UNL     1     -10.823  11.199  63.792  1.00  0.00    -0.337 C  
HETATM   21  C   UNL     1      -9.939  11.643  64.942  1.00  0.00    -0.293 C  
HETATM   22  C   UNL     1     -10.918  11.871  66.088  1.00  0.00    -0.352 C  
HETATM   23  C   UNL     1     -12.271  12.234  65.451  1.00  0.00    -0.279 C  
HETATM   24  C   UNL     1     -12.692  13.696  65.562  1.00  0.00    -0.466 C  
ENDBRANCH  15  17
ENDBRANCH  13  15
ENDBRANCH  11  13
ENDBRANCH   8  11
ENDBRANCH   5   8
TORSDOF 5
ENDMDL
MODEL       20
REMARK 921   NORMALIZED FREE ENERGY PREDICTED BY IDOCK:   -6.37 KCAL/MOL
REMARK 922        TOTAL FREE ENERGY PREDICTED BY IDOCK:   -9.01 KCAL/MOL
REMARK 923 INTER-LIGAND FREE ENERGY PREDICTED BY IDOCK:   -7.92 KCAL/MOL
REMARK 924 INTRA-LIGAND FREE ENERGY PREDICTED BY IDOCK:   -1.09 KCAL/MOL
REMARK 927      BINDING AFFINITY PREDICTED BY RF-SCORE:    0.00 PKD
ROOT
HETATM    1  C   UNL     1     -11.765  11.864  63.574  1.00  0.00    -0.550 C  
HETATM    2  C   UNL     1     -11.818  12.446  64.955  1.00  0.00    -0.442 A  
HETATM    3  C   UNL     1     -12.398  13.700  65.180  1.00  0.00    -0.486 A  
HETATM    4  C   UNL     1     -12.370  14.272  66.452  1.00  0.00    -0.378 A  
HETATM    5  C   UNL     1     -11.771  13.581  67.512  1.00  0.00    -0.367 A  
HETATM    6  C   UNL     1     -11.211  12.319  67.304  1.00  0.00    -0.358 A  
HETATM    7  C   UNL     1     -11.237  11.755  66.028  1.00  0.00    -0.352 A  
ENDROOT
BRANCH   5   8
HETATM    8  S   UNL     1     -11.564  14.380  69.085  1.00  0.00    -0.327 S  
HETATM    9  O   UNL     1     -12.147  13.504  70.082  1.00  0.00    -0.330 OA 
HETATM   10  O   UNL     1     -11.979  15.758  68.956  1.00  0.00    -0.385 OA 
BRANCH   8  11
HETATM   11  N   UNL     1      -9.926  14.390  69.294  1.00  0.00    -0.417 N  
HETATM   12  H   UNL     1      -9.583  13.891  70.115  1.00  0.00     0.000 HD 
BRANCH  11  13
HETATM   13  C   UNL     1      -8.949  14.988  68.500  1.00  0.00    -0.186 C  
HETATM   14  O   UNL     1      -7.925  14.361  68.266  1.00  0.00    -0.124 OA 
BRANCH  13  15
HETATM   15  N   UNL     1      -9.258  16.236  68.008  1.00  0.00    -0.195 N  
HETATM   16  H   UNL     1      -9.547  16.954  68.672  1.00  0.00     0.000 HD 
BRANCH  15  17
HETATM   17  N   UNL     1      -9.200  16.579  66.644  1.00  0.00    -0.234 NA 
HETATM   18  C   UNL     1     -10.382  17.347  66.205  1.00  0.00    -0.330 C  
HETATM   19  C   UNL     1     -10.033  18.840  66.276  1.00  0.00    -0.418 C  
HETATM   20  C   UNL     1     -10.755  19.616  67.373  1.00  0.00    -0.563 C  
HETATM   21  C   UNL     1      -9.927  19.384  68.623  1.00  0.00    -0.527 C  
HETATM   22  C   UNL     1      -8.492  19.362  68.110  1.00  0.00    -0.367 C  
HETATM   23  C   UNL     1      -8.549  18.892  66.646  1.00  0.00    -0.312 C  
HETATM   24  C   UNL     1      -8.057  17.472  66.380  1.00  0.00    -0.274 C  
ENDBRANCH  15  17
ENDBRANCH  13  15
ENDBRANCH  11  13
ENDBRANCH   8  11
ENDBRANCH   5   8
TORSDOF 5
ENDMDL
MODEL       21
REMARK 921   NORMALIZED FREE ENERGY PREDICTED BY IDOCK:   -6.37 KCAL/MOL
REMARK 922        TOTAL FREE ENERGY PREDICTED BY IDOCK:   -9.01 KCAL/MOL
REMARK 923 INTER-LIGAND FREE ENERGY PREDICTED BY IDOCK:   -8.21 KCAL/MOL
REMARK 924 INTRA-LIGAND FREE ENERGY PREDICTED BY IDOCK:   -0.80 KCAL/MOL
REMARK 927      BINDING AFFINITY PREDICTED BY RF-SCORE:    0.00 PKD
ROOT
HETATM    1  C   UNL     1      -9.983   8.418  66.913  1.00  0.00    -0.341 C  
HETATM    2  C   UNL     1     -10.381   9.850  66.711  1.00  0.00    -0.285 A  
HETATM    3  C   UNL     1     -11.122  10.530  67.685  1.00  0.00    -0.375 A  
HETATM    4  C   UNL     1     -11.560  11.834  67.455  1.00  0.00    -0.352 A  
HETATM    5  C   UNL     1     -11.242  12.471  66.250  1.00  0.00    -0.315 A  
HETATM    6  C   UNL     1     -10.482  11.813  65.282  1.00  0.00    -0.320 A  
HETATM    7  C   UNL     1     -10.052  10.505  65.515  1.00  0.00    -0.349 A  
ENDROOT
BRANCH   5   8
HETATM    8  S   UNL     1     -11.951  14.056  65.873  1.00  0.00    -0.428 S  
HETATM    9  O   UNL     1     -13.262  13.807  65.308  1.00  0.00    -0.755 OA 
HETATM   10  O   UNL     1     -10.964  14.842  65.169  1.00  0.00    -0.350 OA 
BRANCH   8  11
HETATM   11  N   UNL     1     -12.146  14.748  67.359  1.00  0.00    -0.501 N  
HETATM   12  H   UNL     1     -13.105  14.782  67.708  1.00  0.00     0.000 HD 
BRANCH  11  13
HETATM   13  C   UNL     1     -11.179  15.293  68.201  1.00  0.00    -0.324 C  
HETATM   14  O   UNL     1     -10.943  14.726  69.260  1.00  0.00    -0.244 OA 
BRANCH  13  15
HETATM   15  N   UNL     1     -10.537  16.415  67.729  1.00  0.00    -0.314 N  
HETATM   16  H   UNL     1     -11.107  17.222  67.476  1.00  0.00     0.000 HD 
BRANCH  15  17
HETATM   17  N   UNL     1      -9.141  16.515  67.575  1.00  0.00    -0.197 NA 
HETATM   18  C   UNL     1      -8.760  17.222  66.336  1.00  0.00    -0.250 C  
HETATM   19  C   UNL     1      -8.514  18.696  66.684  1.00  0.00    -0.301 C  
HETATM   20  C   UNL     1      -9.556  19.666  66.135  1.00  0.00    -0.464 C  
HETATM   21  C   UNL     1     -10.686  19.636  67.147  1.00  0.00    -0.587 C  
HETATM   22  C   UNL     1      -9.972  19.495  68.486  1.00  0.00    -0.538 C  
HETATM   23  C   UNL     1      -8.639  18.779  68.207  1.00  0.00    -0.357 C  
HETATM   24  C   UNL     1      -8.554  17.324  68.660  1.00  0.00    -0.265 C  
ENDBRANCH  15  17
ENDBRANCH  13  15
ENDBRANCH  11  13
ENDBRANCH   8  11
ENDBRANCH   5   8
TORSDOF 5
ENDMDL
MODEL       22
REMARK 921   NORMALIZED FREE ENERGY PREDICTED BY IDOCK:   -6.36 KCAL/MOL
REMARK 922        TOTAL FREE ENERGY PREDICTED BY IDOCK:   -9.00 KCAL/MOL
REMARK 923 INTER-LIGAND FREE ENERGY PREDICTED BY IDOCK:   -8.36 KCAL/MOL
REMARK 924 INTRA-LIGAND FREE ENERGY PREDICTED BY IDOCK:   -0.64 KCAL/MOL
REMARK 927      BINDING AFFINITY PREDICTED BY RF-SCORE:    0.00 PKD
ROOT
HETATM    1  C   UNL     1     -13.359   9.076  72.575  1.00  0.00    -0.480 C  
HETATM    2  C   UNL     1     -12.788  10.067  71.606  1.00  0.00    -0.543 A  
HETATM    3  C   UNL     1     -13.098  11.428  71.708  1.00  0.00    -0.523 A  
HETATM    4  C   UNL     1     -12.630  12.333  70.755  1.00  0.00    -0.302 A  
HETATM    5  C   UNL     1     -11.835  11.877  69.697  1.00  0.00    -0.337 A  
HETATM    6  C   UNL     1     -11.498  10.526  69.598  1.00  0.00    -0.349 A  
HETATM    7  C   UNL     1     -11.974   9.625  70.552  1.00  0.00    -0.241 A  
ENDROOT
BRANCH   5   8
HETATM    8  S   UNL     1     -11.394  12.985  68.380  1.00  0.00    -0.316 S  
HETATM    9  O   UNL     1     -11.995  12.462  67.170  1.00  0.00    -0.528 OA 
HETATM   10  O   UNL     1      -9.976  13.252  68.463  1.00  0.00    -0.234 OA 
BRANCH   8  11
HETATM   11  N   UNL     1     -12.170  14.385  68.785  1.00  0.00    -0.567 N  
HETATM   12  H   UNL     1     -13.189  14.346  68.767  1.00  0.00     0.000 HD 
BRANCH  11  13
HETATM   13  C   UNL     1     -11.620  15.613  69.149  1.00  0.00    -0.383 C  
HETATM   14  O   UNL     1     -11.642  15.933  70.330  1.00  0.00    -0.328 OA 
BRANCH  13  15
HETATM   15  N   UNL     1     -11.055  16.342  68.128  1.00  0.00    -0.346 N  
HETATM   16  H   UNL     1     -11.640  17.022  67.644  1.00  0.00     0.000 HD 
BRANCH  15  17
HETATM   17  N   UNL     1      -9.716  16.205  67.714  1.00  0.00    -0.228 NA 
HETATM   18  C   UNL     1      -9.483  16.765  66.367  1.00  0.00    -0.282 C  
HETATM   19  C   UNL     1      -8.959  18.198  66.532  1.00  0.00    -0.288 C  
HETATM   20  C   UNL     1      -9.932  19.290  66.099  1.00  0.00    -0.466 C  
HETATM   21  C   UNL     1     -10.835  19.504  67.299  1.00  0.00    -0.557 C  
HETATM   22  C   UNL     1      -9.904  19.328  68.492  1.00  0.00    -0.498 C  
HETATM   23  C   UNL     1      -8.772  18.391  68.039  1.00  0.00    -0.302 C  
HETATM   24  C   UNL     1      -8.816  16.970  68.596  1.00  0.00    -0.267 C  
ENDBRANCH  15  17
ENDBRANCH  13  15
ENDBRANCH  11  13
ENDBRANCH   8  11
ENDBRANCH   5   8
TORSDOF 5
ENDMDL
MODEL       23
REMARK 921   NORMALIZED FREE ENERGY PREDICTED BY IDOCK:   -6.31 KCAL/MOL
REMARK 922        TOTAL FREE ENERGY PREDICTED BY IDOCK:   -8.93 KCAL/MOL
REMARK 923 INTER-LIGAND FREE ENERGY PREDICTED BY IDOCK:   -7.60 KCAL/MOL
REMARK 924 INTRA-LIGAND FREE ENERGY PREDICTED BY IDOCK:   -1.33 KCAL/MOL
REMARK 927      BINDING AFFINITY PREDICTED BY RF-SCORE:    0.00 PKD
ROOT
HETATM    1  C   UNL     1     -10.170  17.176  68.507  1.00  0.00    -0.346 C  
HETATM    2  C   UNL     1     -10.568  16.184  67.454  1.00  0.00    -0.311 A  
HETATM    3  C   UNL     1     -10.099  16.307  66.142  1.00  0.00    -0.362 A  
HETATM    4  C   UNL     1     -10.539  15.431  65.150  1.00  0.00    -0.458 A  
HETATM    5  C   UNL     1     -11.444  14.414  65.473  1.00  0.00    -0.340 A  
HETATM    6  C   UNL     1     -11.900  14.266  66.784  1.00  0.00    -0.449 A  
HETATM    7  C   UNL     1     -11.461  15.150  67.771  1.00  0.00    -0.329 A  
ENDROOT
BRANCH   5   8
HETATM    8  S   UNL     1     -12.152  13.415  64.185  1.00  0.00    -0.423 S  
HETATM    9  O   UNL     1     -12.715  14.325  63.208  1.00  0.00    -0.665 OA 
HETATM   10  O   UNL     1     -12.951  12.379  64.798  1.00  0.00    -0.786 OA 
BRANCH   8  11
HETATM   11  N   UNL     1     -10.838  12.675  63.513  1.00  0.00    -0.511 N  
HETATM   12  H   UNL     1     -10.342  13.215  62.804  1.00  0.00     0.000 HD 
BRANCH  11  13
HETATM   13  C   UNL     1     -10.315  11.412  63.784  1.00  0.00    -0.393 C  
HETATM   14  O   UNL     1     -10.041  10.681  62.841  1.00  0.00    -0.248 OA 
BRANCH  13  15
HETATM   15  N   UNL     1     -10.112  11.120  65.114  1.00  0.00    -0.264 N  
HETATM   16  H   UNL     1     -10.922  10.865  65.677  1.00  0.00     0.000 HD 
BRANCH  15  17
HETATM   17  N   UNL     1      -8.852  11.155  65.741  1.00  0.00    -0.192 NA 
HETATM   18  C   UNL     1      -8.811  12.106  66.870  1.00  0.00    -0.202 C  
HETATM   19  C   UNL     1      -9.087  11.325  68.162  1.00  0.00    -0.166 C  
HETATM   20  C   UNL     1     -10.431  11.625  68.817  1.00  0.00    -0.226 C  
HETATM   21  C   UNL     1     -11.424  10.736  68.091  1.00  0.00    -0.346 C  
HETATM   22  C   UNL     1     -10.639   9.458  67.821  1.00  0.00    -0.317 C  
HETATM   23  C   UNL     1      -9.155   9.855  67.740  1.00  0.00    -0.138 C  
HETATM   24  C   UNL     1      -8.535   9.847  66.346  1.00  0.00    -0.124 C  
ENDBRANCH  15  17
ENDBRANCH  13  15
ENDBRANCH  11  13
ENDBRANCH   8  11
ENDBRANCH   5   8
TORSDOF 5
ENDMDL
MODEL       24
REMARK 921   NORMALIZED FREE ENERGY PREDICTED BY IDOCK:   -6.29 KCAL/MOL
REMARK 922        TOTAL FREE ENERGY PREDICTED BY IDOCK:   -8.91 KCAL/MOL
REMARK 923 INTER-LIGAND FREE ENERGY PREDICTED BY IDOCK:   -8.17 KCAL/MOL
REMARK 924 INTRA-LIGAND FREE ENERGY PREDICTED BY IDOCK:   -0.74 KCAL/MOL
REMARK 927      BINDING AFFINITY PREDICTED BY RF-SCORE:    0.00 PKD
ROOT
HETATM    1  C   UNL     1     -12.499  15.571  73.921  1.00  0.00    -0.769 C  
HETATM    2  C   UNL     1     -12.321  15.156  72.491  1.00  0.00    -0.460 A  
HETATM    3  C   UNL     1     -12.716  13.883  72.061  1.00  0.00    -0.338 A  
HETATM    4  C   UNL     1     -12.472  13.474  70.751  1.00  0.00    -0.428 A  
HETATM    5  C   UNL     1     -11.841  14.346  69.856  1.00  0.00    -0.323 A  
HETATM    6  C   UNL     1     -11.466  15.627  70.265  1.00  0.00    -0.361 A  
HETATM    7  C   UNL     1     -11.707  16.029  71.580  1.00  0.00    -0.583 A  
ENDROOT
BRANCH   5   8
HETATM    8  S   UNL     1     -11.359  13.768  68.246  1.00  0.00    -0.306 S  
HETATM    9  O   UNL     1     -12.217  14.432  67.286  1.00  0.00    -0.383 OA 
HETATM   10  O   UNL     1     -11.250  12.328  68.293  1.00  0.00    -0.228 OA 
BRANCH   8  11
HETATM   11  N   UNL     1      -9.828  14.360  68.074  1.00  0.00    -0.216 N  
HETATM   12  H   UNL     1      -9.142  14.013  68.745  1.00  0.00     0.000 HD 
BRANCH  11  13
HETATM   13  C   UNL     1      -9.344  15.270  67.135  1.00  0.00    -0.216 C  
HETATM   14  O   UNL     1      -9.194  14.892  65.981  1.00  0.00    -0.277 OA 
BRANCH  13  15
HETATM   15  N   UNL     1      -9.121  16.546  67.599  1.00  0.00    -0.198 N  
HETATM   16  H   UNL     1      -9.887  17.026  68.070  1.00  0.00     0.000 HD 
BRANCH  15  17
HETATM   17  N   UNL     1      -7.897  17.229  67.461  1.00  0.00    -0.179 NA 
HETATM   18  C   UNL     1      -7.904  18.176  66.328  1.00  0.00    -0.245 C  
HETATM   19  C   UNL     1      -8.262  19.566  66.871  1.00  0.00    -0.310 C  
HETATM   20  C   UNL     1      -9.636  20.082  66.456  1.00  0.00    -0.539 C  
HETATM   21  C   UNL     1     -10.599  19.467  67.454  1.00  0.00    -0.603 C  
HETATM   22  C   UNL     1      -9.819  19.468  68.763  1.00  0.00    -0.532 C  
HETATM   23  C   UNL     1      -8.327  19.403  68.391  1.00  0.00    -0.385 C  
HETATM   24  C   UNL     1      -7.632  18.068  68.645  1.00  0.00    -0.290 C  
ENDBRANCH  15  17
ENDBRANCH  13  15
ENDBRANCH  11  13
ENDBRANCH   8  11
ENDBRANCH   5   8
TORSDOF 5
ENDMDL
MODEL       25
REMARK 921   NORMALIZED FREE ENERGY PREDICTED BY IDOCK:   -6.28 KCAL/MOL
REMARK 922        TOTAL FREE ENERGY PREDICTED BY IDOCK:   -8.90 KCAL/MOL
REMARK 923 INTER-LIGAND FREE ENERGY PREDICTED BY IDOCK:   -8.01 KCAL/MOL
REMARK 924 INTRA-LIGAND FREE ENERGY PREDICTED BY IDOCK:   -0.89 KCAL/MOL
REMARK 927      BINDING AFFINITY PREDICTED BY RF-SCORE:    0.00 PKD
ROOT
HETATM    1  C   UNL     1     -14.212  15.387  71.721  1.00  0.00    -0.632 C  
HETATM    2  C   UNL     1     -13.461  14.128  71.408  1.00  0.00    -0.388 A  
HETATM    3  C   UNL     1     -12.569  14.076  70.330  1.00  0.00    -0.374 A  
HETATM    4  C   UNL     1     -11.936  12.880  69.994  1.00  0.00    -0.380 A  
HETATM    5  C   UNL     1     -12.184  11.727  70.749  1.00  0.00    -0.326 A  
HETATM    6  C   UNL     1     -13.052  11.772  71.840  1.00  0.00    -0.482 A  
HETATM    7  C   UNL     1     -13.687  12.971  72.168  1.00  0.00    -0.547 A  
ENDROOT
BRANCH   5   8
HETATM    8  S   UNL     1     -11.532  10.162  70.215  1.00  0.00    -0.323 S  
HETATM    9  O   UNL     1     -12.339   9.134  70.841  1.00  0.00    -0.254 OA 
HETATM   10  O   UNL     1     -10.095  10.191  70.369  1.00  0.00    -0.194 OA 
BRANCH   8  11
HETATM   11  N   UNL     1     -11.841  10.155  68.594  1.00  0.00    -0.410 N  
HETATM   12  H   UNL     1     -12.823  10.060  68.332  1.00  0.00     0.000 HD 
BRANCH  11  13
HETATM   13  C   UNL     1     -10.943  10.260  67.533  1.00  0.00    -0.280 C  
HETATM   14  O   UNL     1     -10.236   9.296  67.271  1.00  0.00    -0.216 OA 
BRANCH  13  15
HETATM   15  N   UNL     1     -10.970  11.449  66.841  1.00  0.00    -0.288 N  
HETATM   16  H   UNL     1     -11.842  11.978  66.832  1.00  0.00     0.000 HD 
BRANCH  15  17
HETATM   17  N   UNL     1      -9.867  11.979  66.145  1.00  0.00    -0.230 NA 
HETATM   18  C   UNL     1     -10.162  12.216  64.718  1.00  0.00    -0.281 C  
HETATM   19  C   UNL     1     -10.575  13.685  64.555  1.00  0.00    -0.428 C  
HETATM   20  C   UNL     1     -12.046  13.904  64.217  1.00  0.00    -0.477 C  
HETATM   21  C   UNL     1     -12.760  13.873  65.555  1.00  0.00    -0.536 C  
HETATM   22  C   UNL     1     -11.781  14.548  66.507  1.00  0.00    -0.380 C  
HETATM   23  C   UNL     1     -10.372  14.319  65.934  1.00  0.00    -0.325 C  
HETATM   24  C   UNL     1      -9.505  13.306  66.676  1.00  0.00    -0.260 C  
ENDBRANCH  15  17
ENDBRANCH  13  15
ENDBRANCH  11  13
ENDBRANCH   8  11
ENDBRANCH   5   8
TORSDOF 5
ENDMDL
MODEL       26
REMARK 921   NORMALIZED FREE ENERGY PREDICTED BY IDOCK:   -6.28 KCAL/MOL
REMARK 922        TOTAL FREE ENERGY PREDICTED BY IDOCK:   -8.89 KCAL/MOL
REMARK 923 INTER-LIGAND FREE ENERGY PREDICTED BY IDOCK:   -7.73 KCAL/MOL
REMARK 924 INTRA-LIGAND FREE ENERGY PREDICTED BY IDOCK:   -1.16 KCAL/MOL
REMARK 927      BINDING AFFINITY PREDICTED BY RF-SCORE:    0.00 PKD
ROOT
HETATM    1  C   UNL     1     -12.931  13.963  71.548  1.00  0.00    -0.436 C  
HETATM    2  C   UNL     1     -12.283  14.198  70.215  1.00  0.00    -0.416 A  
HETATM    3  C   UNL     1     -12.136  15.495  69.710  1.00  0.00    -0.372 A  
HETATM    4  C   UNL     1     -11.608  15.699  68.435  1.00  0.00    -0.358 A  
HETATM    5  C   UNL     1     -11.210  14.602  67.664  1.00  0.00    -0.321 A  
HETATM    6  C   UNL     1     -11.328  13.305  68.167  1.00  0.00    -0.323 A  
HETATM    7  C   UNL     1     -11.863  13.106  69.441  1.00  0.00    -0.383 A  
ENDROOT
BRANCH   5   8
HETATM    8  S   UNL     1     -10.714  14.840  65.974  1.00  0.00    -0.325 S  
HETATM    9  O   UNL     1     -11.106  16.185  65.606  1.00  0.00    -0.173 OA 
HETATM   10  O   UNL     1     -11.142  13.693  65.207  1.00  0.00    -0.291 OA 
BRANCH   8  11
HETATM   11  N   UNL     1      -9.066  14.779  66.049  1.00  0.00    -0.502 N  
HETATM   12  H   UNL     1      -8.622  14.088  65.444  1.00  0.00     0.000 HD 
BRANCH  11  13
HETATM   13  C   UNL     1      -8.199  15.543  66.828  1.00  0.00    -0.242 C  
HETATM   14  O   UNL     1      -7.241  14.988  67.349  1.00  0.00    -0.194 OA 
BRANCH  13  15
HETATM   15  N   UNL     1      -8.487  16.887  66.901  1.00  0.00    -0.199 N  
HETATM   16  H   UNL     1      -9.461  17.174  66.813  1.00  0.00     0.000 HD 
BRANCH  15  17
HETATM   17  N   UNL     1      -7.515  17.889  67.089  1.00  0.00    -0.192 NA 
HETATM   18  C   UNL     1      -7.785  19.094  66.279  1.00  0.00    -0.282 C  
HETATM   19  C   UNL     1      -8.542  20.099  67.157  1.00  0.00    -0.415 C  
HETATM   20  C   UNL     1     -10.001  20.316  66.769  1.00  0.00    -0.587 C  
HETATM   21  C   UNL     1     -10.755  19.187  67.446  1.00  0.00    -0.578 C  
HETATM   22  C   UNL     1     -10.028  19.007  68.773  1.00  0.00    -0.475 C  
HETATM   23  C   UNL     1      -8.578  19.472  68.552  1.00  0.00    -0.379 C  
HETATM   24  C   UNL     1      -7.525  18.369  68.484  1.00  0.00    -0.293 C  
ENDBRANCH  15  17
ENDBRANCH  13  15
ENDBRANCH  11  13
ENDBRANCH   8  11
ENDBRANCH   5   8
TORSDOF 5
ENDMDL
MODEL       27
REMARK 921   NORMALIZED FREE ENERGY PREDICTED BY IDOCK:   -6.18 KCAL/MOL
REMARK 922        TOTAL FREE ENERGY PREDICTED BY IDOCK:   -8.77 KCAL/MOL
REMARK 923 INTER-LIGAND FREE ENERGY PREDICTED BY IDOCK:   -7.07 KCAL/MOL
REMARK 924 INTRA-LIGAND FREE ENERGY PREDICTED BY IDOCK:   -1.69 KCAL/MOL
REMARK 927      BINDING AFFINITY PREDICTED BY RF-SCORE:    0.00 PKD
ROOT
HETATM    1  C   UNL     1     -11.787  12.271  63.208  1.00  0.00    -0.476 C  
HETATM    2  C   UNL     1     -11.616  13.132  64.425  1.00  0.00    -0.422 A  
HETATM    3  C   UNL     1     -10.429  13.842  64.636  1.00  0.00    -0.419 A  
HETATM    4  C   UNL     1     -10.245  14.575  65.809  1.00  0.00    -0.354 A  
HETATM    5  C   UNL     1     -11.259  14.610  66.773  1.00  0.00    -0.344 A  
HETATM    6  C   UNL     1     -12.457  13.925  66.562  1.00  0.00    -0.364 A  
HETATM    7  C   UNL     1     -12.633  13.189  65.389  1.00  0.00    -0.512 A  
ENDROOT
BRANCH   5   8
HETATM    8  S   UNL     1     -10.960  15.381  68.346  1.00  0.00    -0.299 S  
HETATM    9  O   UNL     1     -11.220  16.796  68.177  1.00  0.00    -0.325 OA 
HETATM   10  O   UNL     1      -9.696  14.902  68.855  1.00  0.00    -0.214 OA 
BRANCH   8  11
HETATM   11  N   UNL     1     -12.138  14.745  69.311  1.00  0.00    -0.489 N  
HETATM   12  H   UNL     1     -13.070  15.143  69.190  1.00  0.00     0.000 HD 
BRANCH  11  13
HETATM   13  C   UNL     1     -12.033  13.738  70.268  1.00  0.00    -0.326 C  
HETATM   14  O   UNL     1     -12.617  13.884  71.334  1.00  0.00    -0.344 OA 
BRANCH  13  15
HETATM   15  N   UNL     1     -11.302  12.632  69.897  1.00  0.00    -0.505 N  
HETATM   16  H   UNL     1     -10.306  12.756  69.716  1.00  0.00     0.000 HD 
BRANCH  15  17
HETATM   17  N   UNL     1     -11.847  11.343  69.751  1.00  0.00    -0.332 NA 
HETATM   18  C   UNL     1     -12.064  10.979  68.336  1.00  0.00     0.063 C  
HETATM   19  C   UNL     1     -10.844  10.179  67.858  1.00  0.00    -0.336 C  
HETATM   20  C   UNL     1      -9.957  10.904  66.851  1.00  0.00    -0.232 C  
HETATM   21  C   UNL     1      -9.036  11.765  67.695  1.00  0.00    -0.177 C  
HETATM   22  C   UNL     1      -8.761  10.909  68.925  1.00  0.00    -0.144 C  
HETATM   23  C   UNL     1      -9.976   9.982  69.102  1.00  0.00    -0.213 C  
HETATM   24  C   UNL     1     -10.912  10.321  70.259  1.00  0.00    -0.309 C  
ENDBRANCH  15  17
ENDBRANCH  13  15
ENDBRANCH  11  13
ENDBRANCH   8  11
ENDBRANCH   5   8
TORSDOF 5
ENDMDL
MODEL       28
REMARK 921   NORMALIZED FREE ENERGY PREDICTED BY IDOCK:   -6.14 KCAL/MOL
REMARK 922        TOTAL FREE ENERGY PREDICTED BY IDOCK:   -8.71 KCAL/MOL
REMARK 923 INTER-LIGAND FREE ENERGY PREDICTED BY IDOCK:   -8.01 KCAL/MOL
REMARK 924 INTRA-LIGAND FREE ENERGY PREDICTED BY IDOCK:   -0.70 KCAL/MOL
REMARK 927      BINDING AFFINITY PREDICTED BY RF-SCORE:    0.00 PKD
ROOT
HETATM    1  C   UNL     1     -12.876   9.837  71.738  1.00  0.00    -0.530 C  
HETATM    2  C   UNL     1     -12.422  10.952  70.843  1.00  0.00    -0.507 A  
HETATM    3  C   UNL     1     -12.617  12.288  71.212  1.00  0.00    -0.336 A  
HETATM    4  C   UNL     1     -12.268  13.319  70.339  1.00  0.00    -0.404 A  
HETATM    5  C   UNL     1     -11.706  13.014  69.093  1.00  0.00    -0.326 A  
HETATM    6  C   UNL     1     -11.484  11.686  68.725  1.00  0.00    -0.346 A  
HETATM    7  C   UNL     1     -11.841  10.659  69.601  1.00  0.00    -0.358 A  
ENDROOT
BRANCH   5   8
HETATM    8  S   UNL     1     -11.434  14.307  67.905  1.00  0.00    -0.333 S  
HETATM    9  O   UNL     1     -12.355  14.073  66.810  1.00  0.00    -0.439 OA 
HETATM   10  O   UNL     1     -10.012  14.429  67.681  1.00  0.00    -0.222 OA 
BRANCH   8  11
HETATM   11  N   UNL     1     -11.912  15.668  68.707  1.00  0.00    -0.550 N  
HETATM   12  H   UNL     1     -12.904  15.896  68.637  1.00  0.00     0.000 HD 
BRANCH  11  13
HETATM   13  C   UNL     1     -11.144  16.547  69.469  1.00  0.00    -0.245 C  
HETATM   14  O   UNL     1     -11.266  16.522  70.686  1.00  0.00    -0.320 OA 
BRANCH  13  15
HETATM   15  N   UNL     1     -10.271  17.344  68.764  1.00  0.00    -0.346 N  
HETATM   16  H   UNL     1      -9.273  17.145  68.840  1.00  0.00     0.000 HD 
BRANCH  15  17
HETATM   17  N   UNL     1     -10.673  18.416  67.945  1.00  0.00    -0.361 NA 
HETATM   18  C   UNL     1     -10.109  19.706  68.389  1.00  0.00    -0.449 C  
HETATM   19  C   UNL     1      -8.834  19.973  67.578  1.00  0.00    -0.426 C  
HETATM   20  C   UNL     1      -7.537  19.883  68.377  1.00  0.00    -0.298 C  
HETATM   21  C   UNL     1      -7.194  18.405  68.393  1.00  0.00    -0.281 C  
HETATM   22  C   UNL     1      -7.626  17.914  67.017  1.00  0.00    -0.224 C  
HETATM   23  C   UNL     1      -8.762  18.841  66.551  1.00  0.00    -0.317 C  
HETATM   24  C   UNL     1     -10.165  18.241  66.571  1.00  0.00    -0.394 C  
ENDBRANCH  15  17
ENDBRANCH  13  15
ENDBRANCH  11  13
ENDBRANCH   8  11
ENDBRANCH   5   8
TORSDOF 5
ENDMDL
MODEL       29
REMARK 921   NORMALIZED FREE ENERGY PREDICTED BY IDOCK:   -6.12 KCAL/MOL
REMARK 922        TOTAL FREE ENERGY PREDICTED BY IDOCK:   -8.68 KCAL/MOL
REMARK 923 INTER-LIGAND FREE ENERGY PREDICTED BY IDOCK:   -7.94 KCAL/MOL
REMARK 924 INTRA-LIGAND FREE ENERGY PREDICTED BY IDOCK:   -0.74 KCAL/MOL
REMARK 927      BINDING AFFINITY PREDICTED BY RF-SCORE:    0.00 PKD
ROOT
HETATM    1  C   UNL     1     -14.015  15.944  72.536  1.00  0.00    -0.424 C  
HETATM    2  C   UNL     1     -13.438  14.688  71.953  1.00  0.00    -0.461 A  
HETATM    3  C   UNL     1     -12.648  14.732  70.799  1.00  0.00    -0.412 A  
HETATM    4  C   UNL     1     -12.184  13.553  70.215  1.00  0.00    -0.417 A  
HETATM    5  C   UNL     1     -12.499  12.320  70.797  1.00  0.00    -0.265 A  
HETATM    6  C   UNL     1     -13.265  12.264  71.962  1.00  0.00    -0.508 A  
HETATM    7  C   UNL     1     -13.732  13.447  72.538  1.00  0.00    -0.636 A  
ENDROOT
BRANCH   5   8
HETATM    8  S   UNL     1     -12.073  10.811  69.960  1.00  0.00    -0.347 S  
HETATM    9  O   UNL     1     -10.791  10.386  70.483  1.00  0.00    -0.276 OA 
HETATM   10  O   UNL     1     -12.284  11.000  68.543  1.00  0.00    -0.582 OA 
BRANCH   8  11
HETATM   11  N   UNL     1     -13.227   9.750  70.479  1.00  0.00    -0.582 N  
HETATM   12  H   UNL     1     -14.119   9.791  69.985  1.00  0.00     0.000 HD 
BRANCH  11  13
HETATM   13  C   UNL     1     -13.147   8.806  71.502  1.00  0.00    -0.318 C  
HETATM   14  O   UNL     1     -13.939   8.887  72.431  1.00  0.00    -0.454 OA 
BRANCH  13  15
HETATM   15  N   UNL     1     -12.193   7.827  71.340  1.00  0.00    -0.312 N  
HETATM   16  H   UNL     1     -11.994   7.505  70.393  1.00  0.00     0.000 HD 
BRANCH  15  17
HETATM   17  N   UNL     1     -11.478   7.245  72.404  1.00  0.00    -0.285 NA 
HETATM   18  C   UNL     1     -11.401   5.775  72.293  1.00  0.00    -0.278 C  
HETATM   19  C   UNL     1     -10.072   5.417  71.613  1.00  0.00    -0.259 C  
HETATM   20  C   UNL     1     -10.205   4.858  70.200  1.00  0.00    -0.310 C  
HETATM   21  C   UNL     1     -10.310   6.080  69.307  1.00  0.00    -0.294 C  
HETATM   22  C   UNL     1      -9.377   7.091  69.962  1.00  0.00    -0.158 C  
HETATM   23  C   UNL     1      -9.325   6.744  71.460  1.00  0.00    -0.153 C  
HETATM   24  C   UNL     1     -10.072   7.693  72.393  1.00  0.00    -0.211 C  
ENDBRANCH  15  17
ENDBRANCH  13  15
ENDBRANCH  11  13
ENDBRANCH   8  11
ENDBRANCH   5   8
TORSDOF 5
ENDMDL
MODEL       30
REMARK 921   NORMALIZED FREE ENERGY PREDICTED BY IDOCK:   -6.10 KCAL/MOL
REMARK 922        TOTAL FREE ENERGY PREDICTED BY IDOCK:   -8.66 KCAL/MOL
REMARK 923 INTER-LIGAND FREE ENERGY PREDICTED BY IDOCK:   -7.25 KCAL/MOL
REMARK 924 INTRA-LIGAND FREE ENERGY PREDICTED BY IDOCK:   -1.41 KCAL/MOL
REMARK 927      BINDING AFFINITY PREDICTED BY RF-SCORE:    0.00 PKD
ROOT
HETATM    1  C   UNL     1      -5.135  14.484  69.155  1.00  0.00    -0.079 C  
HETATM    2  C   UNL     1      -6.483  14.952  68.692  1.00  0.00    -0.083 A  
HETATM    3  C   UNL     1      -6.643  15.538  67.431  1.00  0.00    -0.174 A  
HETATM    4  C   UNL     1      -7.882  16.045  67.040  1.00  0.00    -0.263 A  
HETATM    5  C   UNL     1      -8.975  15.955  67.910  1.00  0.00    -0.181 A  
HETATM    6  C   UNL     1      -8.834  15.351  69.160  1.00  0.00    -0.249 A  
HETATM    7  C   UNL     1      -7.590  14.850  69.548  1.00  0.00    -0.137 A  
ENDROOT
BRANCH   5   8
HETATM    8  S   UNL     1     -10.503  16.764  67.499  1.00  0.00    -0.305 S  
HETATM    9  O   UNL     1     -10.484  18.057  68.152  1.00  0.00    -0.376 OA 
HETATM   10  O   UNL     1     -11.584  15.829  67.708  1.00  0.00    -0.246 OA 
BRANCH   8  11
HETATM   11  N   UNL     1     -10.381  17.000  65.869  1.00  0.00    -0.340 N  
HETATM   12  H   UNL     1      -9.755  17.751  65.578  1.00  0.00     0.000 HD 
BRANCH  11  13
HETATM   13  C   UNL     1     -11.017  16.312  64.838  1.00  0.00    -0.307 C  
HETATM   14  O   UNL     1     -11.658  16.955  64.018  1.00  0.00    -1.123 OA 
BRANCH  13  15
HETATM   15  N   UNL     1     -10.822  14.950  64.817  1.00  0.00    -0.563 N  
HETATM   16  H   UNL     1      -9.942  14.586  65.182  1.00  0.00     0.000 HD 
BRANCH  15  17
HETATM   17  N   UNL     1     -11.765  14.029  64.322  1.00  0.00    -0.390 NA 
HETATM   18  C   UNL     1     -11.130  12.840  63.720  1.00  0.00    -0.427 C  
HETATM   19  C   UNL     1     -11.074  11.737  64.785  1.00  0.00    -0.356 C  
HETATM   20  C   UNL     1      -9.675  11.411  65.298  1.00  0.00    -0.276 C  
HETATM   21  C   UNL     1      -9.407  12.441  66.378  1.00  0.00    -0.219 C  
HETATM   22  C   UNL     1     -10.763  12.628  67.049  1.00  0.00    -0.268 C  
HETATM   23  C   UNL     1     -11.831  12.300  65.991  1.00  0.00    -0.409 C  
HETATM   24  C   UNL     1     -12.594  13.492  65.418  1.00  0.00    -0.483 C  
ENDBRANCH  15  17
ENDBRANCH  13  15
ENDBRANCH  11  13
ENDBRANCH   8  11
ENDBRANCH   5   8
TORSDOF 5
ENDMDL
MODEL       31
REMARK 921   NORMALIZED FREE ENERGY PREDICTED BY IDOCK:   -6.07 KCAL/MOL
REMARK 922        TOTAL FREE ENERGY PREDICTED BY IDOCK:   -8.62 KCAL/MOL
REMARK 923 INTER-LIGAND FREE ENERGY PREDICTED BY IDOCK:   -7.68 KCAL/MOL
REMARK 924 INTRA-LIGAND FREE ENERGY PREDICTED BY IDOCK:   -0.94 KCAL/MOL
REMARK 927      BINDING AFFINITY PREDICTED BY RF-SCORE:    0.00 PKD
ROOT
HETATM    1  C   UNL     1     -11.515  12.319  63.491  1.00  0.00    -0.558 C  
HETATM    2  C   UNL     1     -11.442  13.226  64.683  1.00  0.00    -0.373 A  
HETATM    3  C   UNL     1     -10.540  14.296  64.713  1.00  0.00    -0.434 A  
HETATM    4  C   UNL     1     -10.419  15.086  65.857  1.00  0.00    -0.341 A  
HETATM    5  C   UNL     1     -11.215  14.814  66.975  1.00  0.00    -0.345 A  
HETATM    6  C   UNL     1     -12.136  13.765  66.949  1.00  0.00    -0.454 A  
HETATM    7  C   UNL     1     -12.248  12.975  65.803  1.00  0.00    -0.511 A  
ENDROOT
BRANCH   5   8
HETATM    8  S   UNL     1     -10.936  15.691  68.495  1.00  0.00    -0.322 S  
HETATM    9  O   UNL     1      -9.637  15.278  68.987  1.00  0.00    -0.212 OA 
HETATM   10  O   UNL     1     -12.122  15.579  69.312  1.00  0.00    -0.332 OA 
BRANCH   8  11
HETATM   11  N   UNL     1     -10.833  17.266  68.011  1.00  0.00    -0.357 N  
HETATM   12  H   UNL     1     -11.639  17.624  67.498  1.00  0.00     0.000 HD 
BRANCH  11  13
HETATM   13  C   UNL     1      -9.794  18.174  68.209  1.00  0.00    -0.351 C  
HETATM   14  O   UNL     1      -9.987  19.128  68.950  1.00  0.00    -0.418 OA 
BRANCH  13  15
HETATM   15  N   UNL     1      -8.610  17.877  67.572  1.00  0.00    -0.237 N  
HETATM   16  H   UNL     1      -7.899  17.369  68.096  1.00  0.00     0.000 HD 
BRANCH  15  17
HETATM   17  N   UNL     1      -8.325  18.233  66.240  1.00  0.00    -0.433 NA 
HETATM   18  C   UNL     1      -8.369  19.693  66.025  1.00  0.00    -0.280 C  
HETATM   19  C   UNL     1      -6.940  20.237  66.150  1.00  0.00    -0.292 C  
HETATM   20  C   UNL     1      -6.685  21.091  67.388  1.00  0.00    -0.446 C  
HETATM   21  C   UNL     1      -6.380  20.094  68.490  1.00  0.00    -0.335 C  
HETATM   22  C   UNL     1      -5.597  18.995  67.782  1.00  0.00    -0.179 C  
HETATM   23  C   UNL     1      -6.049  19.003  66.312  1.00  0.00    -0.194 C  
HETATM   24  C   UNL     1      -6.947  17.846  65.882  1.00  0.00    -0.278 C  
ENDBRANCH  15  17
ENDBRANCH  13  15
ENDBRANCH  11  13
ENDBRANCH   8  11
ENDBRANCH   5   8
TORSDOF 5
ENDMDL
MODEL       32
REMARK 921   NORMALIZED FREE ENERGY PREDICTED BY IDOCK:   -6.05 KCAL/MOL
REMARK 922        TOTAL FREE ENERGY PREDICTED BY IDOCK:   -8.60 KCAL/MOL
REMARK 923 INTER-LIGAND FREE ENERGY PREDICTED BY IDOCK:   -7.72 KCAL/MOL
REMARK 924 INTRA-LIGAND FREE ENERGY PREDICTED BY IDOCK:   -0.88 KCAL/MOL
REMARK 927      BINDING AFFINITY PREDICTED BY RF-SCORE:    0.00 PKD
ROOT
HETATM    1  C   UNL     1      -6.345  20.812  64.666  1.00  0.00    -0.314 C  
HETATM    2  C   UNL     1      -6.992  19.731  65.479  1.00  0.00    -0.330 A  
HETATM    3  C   UNL     1      -6.500  18.421  65.448  1.00  0.00    -0.249 A  
HETATM    4  C   UNL     1      -7.156  17.404  66.141  1.00  0.00    -0.320 A  
HETATM    5  C   UNL     1      -8.306  17.698  66.882  1.00  0.00    -0.236 A  
HETATM    6  C   UNL     1      -8.792  19.005  66.941  1.00  0.00    -0.314 A  
HETATM    7  C   UNL     1      -8.134  20.018  66.241  1.00  0.00    -0.318 A  
ENDROOT
BRANCH   5   8
HETATM    8  S   UNL     1      -9.252  16.382  67.610  1.00  0.00    -0.199 S  
HETATM    9  O   UNL     1      -9.607  16.808  68.949  1.00  0.00    -0.247 OA 
HETATM   10  O   UNL     1      -8.557  15.137  67.375  1.00  0.00    -0.163 OA 
BRANCH   8  11
HETATM   11  N   UNL     1     -10.624  16.347  66.693  1.00  0.00    -0.279 N  
HETATM   12  H   UNL     1     -11.500  16.445  67.205  1.00  0.00     0.000 HD 
BRANCH  11  13
HETATM   13  C   UNL     1     -10.746  16.202  65.312  1.00  0.00    -0.368 C  
HETATM   14  O   UNL     1     -10.945  17.203  64.637  1.00  0.00    -1.005 OA 
BRANCH  13  15
HETATM   15  N   UNL     1     -10.583  14.925  64.827  1.00  0.00    -0.566 N  
HETATM   16  H   UNL     1      -9.653  14.510  64.872  1.00  0.00     0.000 HD 
BRANCH  15  17
HETATM   17  N   UNL     1     -11.625  14.156  64.272  1.00  0.00    -0.347 NA 
HETATM   18  C   UNL     1     -11.148  12.868  63.730  1.00  0.00    -0.379 C  
HETATM   19  C   UNL     1     -11.348  11.794  64.808  1.00  0.00    -0.313 C  
HETATM   20  C   UNL     1     -10.060  11.259  65.426  1.00  0.00    -0.314 C  
HETATM   21  C   UNL     1      -9.708  12.256  66.514  1.00  0.00    -0.242 C  
HETATM   22  C   UNL     1     -11.061  12.672  67.079  1.00  0.00    -0.322 C  
HETATM   23  C   UNL     1     -12.089  12.497  65.948  1.00  0.00    -0.420 C  
HETATM   24  C   UNL     1     -12.606  13.783  65.309  1.00  0.00    -0.473 C  
ENDBRANCH  15  17
ENDBRANCH  13  15
ENDBRANCH  11  13
ENDBRANCH   8  11
ENDBRANCH   5   8
TORSDOF 5
ENDMDL
MODEL       33
REMARK 921   NORMALIZED FREE ENERGY PREDICTED BY IDOCK:   -6.02 KCAL/MOL
REMARK 922        TOTAL FREE ENERGY PREDICTED BY IDOCK:   -8.56 KCAL/MOL
REMARK 923 INTER-LIGAND FREE ENERGY PREDICTED BY IDOCK:   -7.62 KCAL/MOL
REMARK 924 INTRA-LIGAND FREE ENERGY PREDICTED BY IDOCK:   -0.94 KCAL/MOL
REMARK 927      BINDING AFFINITY PREDICTED BY RF-SCORE:    0.00 PKD
ROOT
HETATM    1  C   UNL     1     -13.730  13.657  72.352  1.00  0.00    -0.697 C  
HETATM    2  C   UNL     1     -13.030  12.609  71.538  1.00  0.00    -0.380 A  
HETATM    3  C   UNL     1     -13.073  11.262  71.917  1.00  0.00    -0.510 A  
HETATM    4  C   UNL     1     -12.352  10.305  71.203  1.00  0.00    -0.501 A  
HETATM    5  C   UNL     1     -11.594  10.692  70.093  1.00  0.00    -0.330 A  
HETATM    6  C   UNL     1     -11.564  12.028  69.690  1.00  0.00    -0.371 A  
HETATM    7  C   UNL     1     -12.282  12.983  70.412  1.00  0.00    -0.386 A  
ENDROOT
BRANCH   5   8
HETATM    8  S   UNL     1     -10.528   9.516  69.295  1.00  0.00    -0.218 S  
HETATM    9  O   UNL     1     -10.923   8.203  69.763  1.00  0.00    -0.225 OA 
HETATM   10  O   UNL     1      -9.165   9.980  69.415  1.00  0.00    -0.191 OA 
BRANCH   8  11
HETATM   11  N   UNL     1     -10.941   9.648  67.702  1.00  0.00    -0.459 N  
HETATM   12  H   UNL     1     -11.912   9.430  67.478  1.00  0.00     0.000 HD 
BRANCH  11  13
HETATM   13  C   UNL     1     -10.142  10.018  66.621  1.00  0.00    -0.227 C  
HETATM   14  O   UNL     1      -9.382   9.184  66.147  1.00  0.00    -0.190 OA 
BRANCH  13  15
HETATM   15  N   UNL     1     -10.323  11.299  66.154  1.00  0.00    -0.244 N  
HETATM   16  H   UNL     1      -9.955  12.069  66.712  1.00  0.00     0.000 HD 
BRANCH  15  17
HETATM   17  N   UNL     1     -10.985  11.611  64.951  1.00  0.00    -0.300 NA 
HETATM   18  C   UNL     1     -12.247  12.344  65.176  1.00  0.00    -0.384 C  
HETATM   19  C   UNL     1     -11.956  13.845  65.041  1.00  0.00    -0.403 C  
HETATM   20  C   UNL     1     -12.034  14.632  66.346  1.00  0.00    -0.274 C  
HETATM   21  C   UNL     1     -10.674  14.447  66.993  1.00  0.00    -0.285 C  
HETATM   22  C   UNL     1      -9.708  14.443  65.815  1.00  0.00    -0.283 C  
HETATM   23  C   UNL     1     -10.496  13.936  64.594  1.00  0.00    -0.419 C  
HETATM   24  C   UNL     1     -10.168  12.521  64.127  1.00  0.00    -0.350 C  
ENDBRANCH  15  17
ENDBRANCH  13  15
ENDBRANCH  11  13
ENDBRANCH   8  11
ENDBRANCH   5   8
TORSDOF 5
ENDMDL
MODEL       34
REMARK 921   NORMALIZED FREE ENERGY PREDICTED BY IDOCK:   -5.96 KCAL/MOL
REMARK 922        TOTAL FREE ENERGY PREDICTED BY IDOCK:   -8.49 KCAL/MOL
REMARK 923 INTER-LIGAND FREE ENERGY PREDICTED BY IDOCK:   -7.75 KCAL/MOL
REMARK 924 INTRA-LIGAND FREE ENERGY PREDICTED BY IDOCK:   -0.74 KCAL/MOL
REMARK 927      BINDING AFFINITY PREDICTED BY RF-SCORE:    0.00 PKD
ROOT
HETATM    1  C   UNL     1     -10.498   6.963  73.673  1.00  0.00    -0.400 C  
HETATM    2  C   UNL     1     -10.567   8.038  72.629  1.00  0.00    -0.419 A  
HETATM    3  C   UNL     1     -11.794   8.609  72.271  1.00  0.00    -0.436 A  
HETATM    4  C   UNL     1     -11.861   9.548  71.242  1.00  0.00    -0.450 A  
HETATM    5  C   UNL     1     -10.692   9.933  70.575  1.00  0.00    -0.317 A  
HETATM    6  C   UNL     1      -9.459   9.390  70.940  1.00  0.00    -0.279 A  
HETATM    7  C   UNL     1      -9.399   8.445  71.966  1.00  0.00    -0.332 A  
ENDROOT
BRANCH   5   8
HETATM    8  S   UNL     1     -10.793  10.983  69.145  1.00  0.00    -0.246 S  
HETATM    9  O   UNL     1     -11.919  10.518  68.359  1.00  0.00    -0.364 OA 
HETATM   10  O   UNL     1      -9.472  11.103  68.572  1.00  0.00    -0.181 OA 
BRANCH   8  11
HETATM   11  N   UNL     1     -11.176  12.457  69.782  1.00  0.00    -0.488 N  
HETATM   12  H   UNL     1     -10.864  12.618  70.741  1.00  0.00     0.000 HD 
BRANCH  11  13
HETATM   13  C   UNL     1     -11.867  13.512  69.188  1.00  0.00    -0.340 C  
HETATM   14  O   UNL     1     -12.527  14.252  69.905  1.00  0.00    -0.337 OA 
BRANCH  13  15
HETATM   15  N   UNL     1     -11.698  13.648  67.829  1.00  0.00    -0.341 N  
HETATM   16  H   UNL     1     -12.424  13.275  67.217  1.00  0.00     0.000 HD 
BRANCH  15  17
HETATM   17  N   UNL     1     -10.585  14.272  67.235  1.00  0.00    -0.276 NA 
HETATM   18  C   UNL     1      -9.879  13.383  66.290  1.00  0.00    -0.290 C  
HETATM   19  C   UNL     1     -10.405  13.675  64.878  1.00  0.00    -0.408 C  
HETATM   20  C   UNL     1     -11.251  12.562  64.267  1.00  0.00    -0.407 C  
HETATM   21  C   UNL     1     -12.648  12.792  64.813  1.00  0.00    -0.518 C  
HETATM   22  C   UNL     1     -12.773  14.310  64.866  1.00  0.00    -0.243 C  
HETATM   23  C   UNL     1     -11.350  14.868  65.036  1.00  0.00    -0.398 C  
HETATM   24  C   UNL     1     -11.009  15.423  66.416  1.00  0.00    -0.277 C  
ENDBRANCH  15  17
ENDBRANCH  13  15
ENDBRANCH  11  13
ENDBRANCH   8  11
ENDBRANCH   5   8
TORSDOF 5
ENDMDL
MODEL       35
REMARK 921   NORMALIZED FREE ENERGY PREDICTED BY IDOCK:   -5.96 KCAL/MOL
REMARK 922        TOTAL FREE ENERGY PREDICTED BY IDOCK:   -8.48 KCAL/MOL
REMARK 923 INTER-LIGAND FREE ENERGY PREDICTED BY IDOCK:   -7.74 KCAL/MOL
REMARK 924 INTRA-LIGAND FREE ENERGY PREDICTED BY IDOCK:   -0.74 KCAL/MOL
REMARK 927      BINDING AFFINITY PREDICTED BY RF-SCORE:    0.00 PKD
ROOT
HETATM    1  C   UNL     1     -13.594  15.574  73.067  1.00  0.00    -0.593 C  
HETATM    2  C   UNL     1     -13.117  14.714  71.935  1.00  0.00    -0.414 A  
HETATM    3  C   UNL     1     -13.202  13.319  72.011  1.00  0.00    -0.541 A  
HETATM    4  C   UNL     1     -12.682  12.524  70.990  1.00  0.00    -0.316 A  
HETATM    5  C   UNL     1     -12.083  13.125  69.877  1.00  0.00    -0.287 A  
HETATM    6  C   UNL     1     -12.015  14.516  69.778  1.00  0.00    -0.383 A  
HETATM    7  C   UNL     1     -12.532  15.307  70.806  1.00  0.00    -0.457 A  
ENDROOT
BRANCH   5   8
HETATM    8  S   UNL     1     -11.253  12.123  68.668  1.00  0.00    -0.293 S  
HETATM    9  O   UNL     1     -10.388  13.005  67.911  1.00  0.00    -0.221 OA 
HETATM   10  O   UNL     1     -12.235  11.287  68.016  1.00  0.00    -0.621 OA 
BRANCH   8  11
HETATM   11  N   UNL     1     -10.308  11.127  69.585  1.00  0.00    -0.440 N  
HETATM   12  H   UNL     1     -10.101  11.459  70.528  1.00  0.00     0.000 HD 
BRANCH  11  13
HETATM   13  C   UNL     1      -9.753   9.894  69.246  1.00  0.00    -0.208 C  
HETATM   14  O   UNL     1      -8.633   9.875  68.754  1.00  0.00    -0.120 OA 
BRANCH  13  15
HETATM   15  N   UNL     1     -10.519   8.790  69.544  1.00  0.00    -0.218 N  
HETATM   16  H   UNL     1     -11.525   8.920  69.651  1.00  0.00     0.000 HD 
BRANCH  15  17
HETATM   17  N   UNL     1      -9.997   7.494  69.711  1.00  0.00    -0.184 NA 
HETATM   18  C   UNL     1      -9.373   7.304  71.036  1.00  0.00    -0.158 C  
HETATM   19  C   UNL     1     -10.414   6.667  71.967  1.00  0.00    -0.227 C  
HETATM   20  C   UNL     1     -10.931   7.583  73.072  1.00  0.00    -0.443 C  
HETATM   21  C   UNL     1     -12.036   8.393  72.421  1.00  0.00    -0.443 C  
HETATM   22  C   UNL     1     -12.699   7.405  71.469  1.00  0.00    -0.409 C  
HETATM   23  C   UNL     1     -11.626   6.374  71.078  1.00  0.00    -0.386 C  
HETATM   24  C   UNL     1     -11.074   6.487  69.660  1.00  0.00    -0.376 C  
ENDBRANCH  15  17
ENDBRANCH  13  15
ENDBRANCH  11  13
ENDBRANCH   8  11
ENDBRANCH   5   8
TORSDOF 5
ENDMDL
MODEL       36
REMARK 921   NORMALIZED FREE ENERGY PREDICTED BY IDOCK:   -5.93 KCAL/MOL
REMARK 922        TOTAL FREE ENERGY PREDICTED BY IDOCK:   -8.45 KCAL/MOL
REMARK 923 INTER-LIGAND FREE ENERGY PREDICTED BY IDOCK:   -7.55 KCAL/MOL
REMARK 924 INTRA-LIGAND FREE ENERGY PREDICTED BY IDOCK:   -0.90 KCAL/MOL
REMARK 927      BINDING AFFINITY PREDICTED BY RF-SCORE:    0.00 PKD
ROOT
HETATM    1  C   UNL     1     -13.238   8.888  72.744  1.00  0.00    -0.226 C  
HETATM    2  C   UNL     1     -12.759   9.958  71.809  1.00  0.00    -0.523 A  
HETATM    3  C   UNL     1     -13.211  11.276  71.939  1.00  0.00    -0.491 A  
HETATM    4  C   UNL     1     -12.826  12.249  71.016  1.00  0.00    -0.251 A  
HETATM    5  C   UNL     1     -11.972  11.906  69.962  1.00  0.00    -0.332 A  
HETATM    6  C   UNL     1     -11.495  10.601  69.836  1.00  0.00    -0.393 A  
HETATM    7  C   UNL     1     -11.888   9.631  70.759  1.00  0.00    -0.378 A  
ENDROOT
BRANCH   5   8
HETATM    8  S   UNL     1     -11.629  13.088  68.680  1.00  0.00    -0.339 S  
HETATM    9  O   UNL     1     -12.230  12.577  67.464  1.00  0.00    -0.418 OA 
HETATM   10  O   UNL     1     -10.228  13.434  68.740  1.00  0.00    -0.211 OA 
BRANCH   8  11
HETATM   11  N   UNL     1     -12.474  14.423  69.158  1.00  0.00    -0.545 N  
HETATM   12  H   UNL     1     -13.489  14.323  69.167  1.00  0.00     0.000 HD 
BRANCH  11  13
HETATM   13  C   UNL     1     -11.987  15.668  69.553  1.00  0.00    -0.345 C  
HETATM   14  O   UNL     1     -12.066  15.976  70.735  1.00  0.00    -0.380 OA 
BRANCH  13  15
HETATM   15  N   UNL     1     -11.413  16.429  68.560  1.00  0.00    -0.298 N  
HETATM   16  H   UNL     1     -11.732  16.285  67.602  1.00  0.00     0.000 HD 
BRANCH  15  17
HETATM   17  N   UNL     1     -10.412  17.392  68.788  1.00  0.00    -0.351 NA 
HETATM   18  C   UNL     1      -9.052  16.823  68.698  1.00  0.00    -0.254 C  
HETATM   19  C   UNL     1      -8.527  17.067  67.277  1.00  0.00    -0.210 C  
HETATM   20  C   UNL     1      -8.395  15.812  66.418  1.00  0.00    -0.267 C  
HETATM   21  C   UNL     1      -9.782  15.587  65.846  1.00  0.00    -0.392 C  
HETATM   22  C   UNL     1     -10.304  16.996  65.589  1.00  0.00    -0.226 C  
HETATM   23  C   UNL     1      -9.594  17.922  66.591  1.00  0.00    -0.311 C  
HETATM   24  C   UNL     1     -10.447  18.437  67.747  1.00  0.00    -0.409 C  
ENDBRANCH  15  17
ENDBRANCH  13  15
ENDBRANCH  11  13
ENDBRANCH   8  11
ENDBRANCH   5   8
TORSDOF 5
ENDMDL
MODEL       37
REMARK 921   NORMALIZED FREE ENERGY PREDICTED BY IDOCK:   -5.92 KCAL/MOL
REMARK 922        TOTAL FREE ENERGY PREDICTED BY IDOCK:   -8.43 KCAL/MOL
REMARK 923 INTER-LIGAND FREE ENERGY PREDICTED BY IDOCK:   -7.76 KCAL/MOL
REMARK 924 INTRA-LIGAND FREE ENERGY PREDICTED BY IDOCK:   -0.67 KCAL/MOL
REMARK 927      BINDING AFFINITY PREDICTED BY RF-SCORE:    0.00 PKD
ROOT
HETATM    1  C   UNL     1      -5.300  21.045  68.541  1.00  0.00    -0.363 C  
HETATM    2  C   UNL     1      -6.543  20.339  68.087  1.00  0.00    -0.336 A  
HETATM    3  C   UNL     1      -7.279  19.544  68.973  1.00  0.00    -0.397 A  
HETATM    4  C   UNL     1      -8.386  18.825  68.524  1.00  0.00    -0.379 A  
HETATM    5  C   UNL     1      -8.772  18.911  67.181  1.00  0.00    -0.284 A  
HETATM    6  C   UNL     1      -8.061  19.720  66.293  1.00  0.00    -0.356 A  
HETATM    7  C   UNL     1      -6.950  20.433  66.748  1.00  0.00    -0.310 A  
ENDROOT
BRANCH   5   8
HETATM    8  S   UNL     1     -10.061  17.857  66.561  1.00  0.00    -0.384 S  
HETATM    9  O   UNL     1     -10.683  18.558  65.456  1.00  0.00    -0.586 OA 
HETATM   10  O   UNL     1     -10.836  17.376  67.681  1.00  0.00    -0.338 OA 
BRANCH   8  11
HETATM   11  N   UNL     1      -9.234  16.561  65.958  1.00  0.00    -0.293 N  
HETATM   12  H   UNL     1      -8.947  16.636  64.982  1.00  0.00     0.000 HD 
BRANCH  11  13
HETATM   13  C   UNL     1      -8.876  15.378  66.603  1.00  0.00    -0.295 C  
HETATM   14  O   UNL     1      -8.054  15.435  67.508  1.00  0.00    -0.143 OA 
BRANCH  13  15
HETATM   15  N   UNL     1      -9.528  14.244  66.178  1.00  0.00    -0.460 N  
HETATM   16  H   UNL     1      -9.128  13.339  66.427  1.00  0.00     0.000 HD 
BRANCH  15  17
HETATM   17  N   UNL     1     -10.715  14.257  65.421  1.00  0.00    -0.323 NA 
HETATM   18  C   UNL     1     -10.643  13.367  64.245  1.00  0.00    -0.341 C  
HETATM   19  C   UNL     1     -11.271  12.020  64.628  1.00  0.00    -0.380 C  
HETATM   20  C   UNL     1     -10.283  10.862  64.741  1.00  0.00    -0.398 C  
HETATM   21  C   UNL     1      -9.713  10.973  66.142  1.00  0.00    -0.257 C  
HETATM   22  C   UNL     1     -10.897  11.441  66.981  1.00  0.00    -0.331 C  
HETATM   23  C   UNL     1     -11.830  12.219  66.039  1.00  0.00    -0.409 C  
HETATM   24  C   UNL     1     -11.844  13.736  66.214  1.00  0.00    -0.398 C  
ENDBRANCH  15  17
ENDBRANCH  13  15
ENDBRANCH  11  13
ENDBRANCH   8  11
ENDBRANCH   5   8
TORSDOF 5
ENDMDL
MODEL       38
REMARK 921   NORMALIZED FREE ENERGY PREDICTED BY IDOCK:   -5.92 KCAL/MOL
REMARK 922        TOTAL FREE ENERGY PREDICTED BY IDOCK:   -8.43 KCAL/MOL
REMARK 923 INTER-LIGAND FREE ENERGY PREDICTED BY IDOCK:   -7.39 KCAL/MOL
REMARK 924 INTRA-LIGAND FREE ENERGY PREDICTED BY IDOCK:   -1.05 KCAL/MOL
REMARK 927      BINDING AFFINITY PREDICTED BY RF-SCORE:    0.00 PKD
ROOT
HETATM    1  C   UNL     1     -10.063  20.330  69.236  1.00  0.00    -0.024 C  
HETATM    2  C   UNL     1     -10.157  19.266  68.183  1.00  0.00    -0.507 A  
HETATM    3  C   UNL     1     -10.344  19.606  66.838  1.00  0.00    -0.583 A  
HETATM    4  C   UNL     1     -10.513  18.610  65.876  1.00  0.00    -0.395 A  
HETATM    5  C   UNL     1     -10.480  17.263  66.257  1.00  0.00    -0.268 A  
HETATM    6  C   UNL     1     -10.269  16.912  67.591  1.00  0.00    -0.306 A  
HETATM    7  C   UNL     1     -10.107  17.913  68.550  1.00  0.00    -0.392 A  
ENDROOT
BRANCH   5   8
HETATM    8  S   UNL     1     -10.880  15.999  65.074  1.00  0.00    -0.306 S  
HETATM    9  O   UNL     1      -9.676  15.221  64.865  1.00  0.00    -0.112 OA 
HETATM   10  O   UNL     1     -11.584  16.612  63.971  1.00  0.00    -1.197 OA 
BRANCH   8  11
HETATM   11  N   UNL     1     -11.974  15.060  65.878  1.00  0.00    -0.042 N  
HETATM   12  H   UNL     1     -12.402  15.487  66.701  1.00  0.00     0.000 HD 
BRANCH  11  13
HETATM   13  C   UNL     1     -12.393  13.763  65.586  1.00  0.00    -0.482 C  
HETATM   14  O   UNL     1     -13.535  13.598  65.179  1.00  0.00    -0.484 OA 
BRANCH  13  15
HETATM   15  N   UNL     1     -11.445  12.778  65.745  1.00  0.00    -0.330 N  
HETATM   16  H   UNL     1     -10.564  12.876  65.242  1.00  0.00     0.000 HD 
BRANCH  15  17
HETATM   17  N   UNL     1     -11.621  11.644  66.560  1.00  0.00    -0.477 NA 
HETATM   18  C   UNL     1     -10.494  10.695  66.456  1.00  0.00    -0.224 C  
HETATM   19  C   UNL     1      -9.519  10.986  67.605  1.00  0.00    -0.173 C  
HETATM   20  C   UNL     1      -8.187  11.594  67.177  1.00  0.00    -0.165 C  
HETATM   21  C   UNL     1      -8.460  13.082  67.059  1.00  0.00    -0.142 C  
HETATM   22  C   UNL     1      -9.437  13.365  68.193  1.00  0.00    -0.218 C  
HETATM   23  C   UNL     1     -10.204  12.057  68.457  1.00  0.00    -0.218 C  
HETATM   24  C   UNL     1     -11.655  12.026  67.984  1.00  0.00    -0.342 C  
ENDBRANCH  15  17
ENDBRANCH  13  15
ENDBRANCH  11  13
ENDBRANCH   8  11
ENDBRANCH   5   8
TORSDOF 5
ENDMDL
MODEL       39
REMARK 921   NORMALIZED FREE ENERGY PREDICTED BY IDOCK:   -5.91 KCAL/MOL
REMARK 922        TOTAL FREE ENERGY PREDICTED BY IDOCK:   -8.42 KCAL/MOL
REMARK 923 INTER-LIGAND FREE ENERGY PREDICTED BY IDOCK:   -8.00 KCAL/MOL
REMARK 924 INTRA-LIGAND FREE ENERGY PREDICTED BY IDOCK:   -0.43 KCAL/MOL
REMARK 927      BINDING AFFINITY PREDICTED BY RF-SCORE:    0.00 PKD
ROOT
HETATM    1  C   UNL     1      -8.741   9.097  62.348  1.00  0.00    -0.226 C  
HETATM    2  C   UNL     1      -9.401  10.097  63.250  1.00  0.00    -0.332 A  
HETATM    3  C   UNL     1      -9.473   9.875  64.630  1.00  0.00    -0.343 A  
HETATM    4  C   UNL     1     -10.160  10.768  65.453  1.00  0.00    -0.347 A  
HETATM    5  C   UNL     1     -10.768  11.899  64.895  1.00  0.00    -0.301 A  
HETATM    6  C   UNL     1     -10.681  12.144  63.524  1.00  0.00    -0.509 A  
HETATM    7  C   UNL     1      -9.997  11.243  62.705  1.00  0.00    -0.197 A  
ENDROOT
BRANCH   5   8
HETATM    8  S   UNL     1     -11.800  12.937  65.903  1.00  0.00    -0.442 S  
HETATM    9  O   UNL     1     -12.096  12.192  67.110  1.00  0.00    -0.575 OA 
HETATM   10  O   UNL     1     -12.853  13.477  65.073  1.00  0.00    -0.684 OA 
BRANCH   8  11
HETATM   11  N   UNL     1     -10.806  14.195  66.296  1.00  0.00    -0.297 N  
HETATM   12  H   UNL     1      -9.860  14.146  65.916  1.00  0.00     0.000 HD 
BRANCH  11  13
HETATM   13  C   UNL     1     -11.084  15.315  67.077  1.00  0.00    -0.305 C  
HETATM   14  O   UNL     1     -12.012  15.255  67.872  1.00  0.00    -0.234 OA 
BRANCH  13  15
HETATM   15  N   UNL     1     -10.239  16.388  66.907  1.00  0.00    -0.285 N  
HETATM   16  H   UNL     1     -10.357  16.963  66.073  1.00  0.00     0.000 HD 
BRANCH  15  17
HETATM   17  N   UNL     1      -9.222  16.739  67.815  1.00  0.00    -0.220 NA 
HETATM   18  C   UNL     1      -8.134  17.505  67.174  1.00  0.00    -0.210 C  
HETATM   19  C   UNL     1      -8.412  18.999  67.390  1.00  0.00    -0.300 C  
HETATM   20  C   UNL     1      -8.804  19.766  66.131  1.00  0.00    -0.378 C  
HETATM   21  C   UNL     1     -10.295  19.530  65.980  1.00  0.00    -0.604 C  
HETATM   22  C   UNL     1     -10.809  19.518  67.415  1.00  0.00    -0.536 C  
HETATM   23  C   UNL     1      -9.640  19.055  68.302  1.00  0.00    -0.411 C  
HETATM   24  C   UNL     1      -9.744  17.639  68.861  1.00  0.00    -0.258 C  
ENDBRANCH  15  17
ENDBRANCH  13  15
ENDBRANCH  11  13
ENDBRANCH   8  11
ENDBRANCH   5   8
TORSDOF 5
ENDMDL
MODEL       40
REMARK 921   NORMALIZED FREE ENERGY PREDICTED BY IDOCK:   -5.91 KCAL/MOL
REMARK 922        TOTAL FREE ENERGY PREDICTED BY IDOCK:   -8.41 KCAL/MOL
REMARK 923 INTER-LIGAND FREE ENERGY PREDICTED BY IDOCK:   -7.75 KCAL/MOL
REMARK 924 INTRA-LIGAND FREE ENERGY PREDICTED BY IDOCK:   -0.66 KCAL/MOL
REMARK 927      BINDING AFFINITY PREDICTED BY RF-SCORE:    0.00 PKD
ROOT
HETATM    1  C   UNL     1     -13.189  15.906  73.314  1.00  0.00    -0.698 C  
HETATM    2  C   UNL     1     -12.617  15.205  72.118  1.00  0.00    -0.407 A  
HETATM    3  C   UNL     1     -11.802  15.890  71.210  1.00  0.00    -0.502 A  
HETATM    4  C   UNL     1     -11.342  15.256  70.056  1.00  0.00    -0.311 A  
HETATM    5  C   UNL     1     -11.686  13.921  69.814  1.00  0.00    -0.309 A  
HETATM    6  C   UNL     1     -12.478  13.219  70.724  1.00  0.00    -0.403 A  
HETATM    7  C   UNL     1     -12.941  13.862  71.874  1.00  0.00    -0.440 A  
ENDROOT
BRANCH   5   8
HETATM    8  S   UNL     1     -11.263  13.165  68.262  1.00  0.00    -0.295 S  
HETATM    9  O   UNL     1      -9.825  12.985  68.259  1.00  0.00    -0.223 OA 
HETATM   10  O   UNL     1     -11.934  13.887  67.205  1.00  0.00    -0.389 OA 
BRANCH   8  11
HETATM   11  N   UNL     1     -11.976  11.679  68.356  1.00  0.00    -0.276 N  
HETATM   12  H   UNL     1     -12.996  11.680  68.386  1.00  0.00     0.000 HD 
BRANCH  11  13
HETATM   13  C   UNL     1     -11.373  10.423  68.401  1.00  0.00    -0.227 C  
HETATM   14  O   UNL     1     -10.616  10.108  67.493  1.00  0.00    -0.234 OA 
BRANCH  13  15
HETATM   15  N   UNL     1     -11.659   9.661  69.511  1.00  0.00    -0.444 N  
HETATM   16  H   UNL     1     -12.303   8.878  69.401  1.00  0.00     0.000 HD 
BRANCH  15  17
HETATM   17  N   UNL     1     -11.115   9.898  70.788  1.00  0.00    -0.327 NA 
HETATM   18  C   UNL     1     -11.935   9.311  71.867  1.00  0.00    -0.363 C  
HETATM   19  C   UNL     1     -11.350   7.935  72.215  1.00  0.00    -0.393 C  
HETATM   20  C   UNL     1     -12.218   6.749  71.808  1.00  0.00    -0.402 C  
HETATM   21  C   UNL     1     -11.879   6.502  70.350  1.00  0.00    -0.378 C  
HETATM   22  C   UNL     1     -10.387   6.800  70.267  1.00  0.00    -0.224 C  
HETATM   23  C   UNL     1     -10.074   7.815  71.380  1.00  0.00    -0.211 C  
HETATM   24  C   UNL     1      -9.800   9.245  70.923  1.00  0.00    -0.293 C  
ENDBRANCH  15  17
ENDBRANCH  13  15
ENDBRANCH  11  13
ENDBRANCH   8  11
ENDBRANCH   5   8
TORSDOF 5
ENDMDL
MODEL       41
REMARK 921   NORMALIZED FREE ENERGY PREDICTED BY IDOCK:   -5.89 KCAL/MOL
REMARK 922        TOTAL FREE ENERGY PREDICTED BY IDOCK:   -8.39 KCAL/MOL
REMARK 923 INTER-LIGAND FREE ENERGY PREDICTED BY IDOCK:   -7.95 KCAL/MOL
REMARK 924 INTRA-LIGAND FREE ENERGY PREDICTED BY IDOCK:   -0.44 KCAL/MOL
REMARK 927      BINDING AFFINITY PREDICTED BY RF-SCORE:    0.00 PKD
ROOT
HETATM    1  C   UNL     1     -13.541  13.212  72.512  1.00  0.00    -0.595 C  
HETATM    2  C   UNL     1     -12.790  14.070  71.538  1.00  0.00    -0.440 A  
HETATM    3  C   UNL     1     -12.296  13.532  70.344  1.00  0.00    -0.397 A  
HETATM    4  C   UNL     1     -11.528  14.315  69.482  1.00  0.00    -0.336 A  
HETATM    5  C   UNL     1     -11.263  15.651  69.807  1.00  0.00    -0.321 A  
HETATM    6  C   UNL     1     -11.772  16.205  70.982  1.00  0.00    -0.407 A  
HETATM    7  C   UNL     1     -12.534  15.415  71.844  1.00  0.00    -0.452 A  
ENDROOT
BRANCH   5   8
HETATM    8  S   UNL     1     -10.134  16.597  68.813  1.00  0.00    -0.288 S  
HETATM    9  O   UNL     1      -8.833  15.973  68.945  1.00  0.00    -0.205 OA 
HETATM   10  O   UNL     1     -10.332  17.998  69.105  1.00  0.00    -0.322 OA 
BRANCH   8  11
HETATM   11  N   UNL     1     -10.680  16.345  67.275  1.00  0.00    -0.296 N  
HETATM   12  H   UNL     1     -11.684  16.466  67.138  1.00  0.00     0.000 HD 
BRANCH  11  13
HETATM   13  C   UNL     1      -9.954  15.990  66.139  1.00  0.00    -0.325 C  
HETATM   14  O   UNL     1      -9.153  16.797  65.685  1.00  0.00    -0.489 OA 
BRANCH  13  15
HETATM   15  N   UNL     1     -10.182  14.723  65.655  1.00  0.00    -0.334 N  
HETATM   16  H   UNL     1     -10.231  14.598  64.644  1.00  0.00     0.000 HD 
BRANCH  15  17
HETATM   17  N   UNL     1     -10.353  13.589  66.472  1.00  0.00    -0.277 NA 
HETATM   18  C   UNL     1     -11.743  13.093  66.465  1.00  0.00    -0.382 C  
HETATM   19  C   UNL     1     -11.844  11.972  65.422  1.00  0.00    -0.258 C  
HETATM   20  C   UNL     1     -12.660  12.322  64.181  1.00  0.00    -0.493 C  
HETATM   21  C   UNL     1     -11.689  13.053  63.273  1.00  0.00    -0.349 C  
HETATM   22  C   UNL     1     -10.364  12.335  63.501  1.00  0.00    -0.443 C  
HETATM   23  C   UNL     1     -10.414  11.752  64.924  1.00  0.00    -0.334 C  
HETATM   24  C   UNL     1      -9.552  12.458  65.967  1.00  0.00    -0.209 C  
ENDBRANCH  15  17
ENDBRANCH  13  15
ENDBRANCH  11  13
ENDBRANCH   8  11
ENDBRANCH   5   8
TORSDOF 5
ENDMDL
MODEL       42
REMARK 921   NORMALIZED FREE ENERGY PREDICTED BY IDOCK:   -5.86 KCAL/MOL
REMARK 922        TOTAL FREE ENERGY PREDICTED BY IDOCK:   -8.36 KCAL/MOL
REMARK 923 INTER-LIGAND FREE ENERGY PREDICTED BY IDOCK:   -7.37 KCAL/MOL
REMARK 924 INTRA-LIGAND FREE ENERGY PREDICTED BY IDOCK:   -0.98 KCAL/MOL
REMARK 927      BINDING AFFINITY PREDICTED BY RF-SCORE:    0.00 PKD
ROOT
HETATM    1  C   UNL     1     -13.268   9.399  72.126  1.00  0.00    -0.541 C  
HETATM    2  C   UNL     1     -12.139   9.879  71.263  1.00  0.00    -0.485 A  
HETATM    3  C   UNL     1     -12.299  10.995  70.434  1.00  0.00    -0.442 A  
HETATM    4  C   UNL     1     -11.273  11.387  69.573  1.00  0.00    -0.322 A  
HETATM    5  C   UNL     1     -10.073  10.667  69.550  1.00  0.00    -0.132 A  
HETATM    6  C   UNL     1      -9.893   9.568  70.391  1.00  0.00    -0.329 A  
HETATM    7  C   UNL     1     -10.925   9.177  71.246  1.00  0.00    -0.400 A  
ENDROOT
BRANCH   5   8
HETATM    8  S   UNL     1      -8.838  11.043  68.328  1.00  0.00    -0.150 S  
HETATM    9  O   UNL     1      -9.386  10.656  67.044  1.00  0.00    -0.154 OA 
HETATM   10  O   UNL     1      -7.568  10.532  68.791  1.00  0.00    -0.087 OA 
BRANCH   8  11
HETATM   11  N   UNL     1      -8.741  12.690  68.380  1.00  0.00    -0.300 N  
HETATM   12  H   UNL     1      -9.016  13.121  69.264  1.00  0.00     0.000 HD 
BRANCH  11  13
HETATM   13  C   UNL     1      -8.335  13.572  67.380  1.00  0.00    -0.194 C  
HETATM   14  O   UNL     1      -7.212  14.054  67.451  1.00  0.00    -0.178 OA 
BRANCH  13  15
HETATM   15  N   UNL     1      -9.239  13.784  66.365  1.00  0.00    -0.461 N  
HETATM   16  H   UNL     1      -9.284  13.098  65.612  1.00  0.00     0.000 HD 
BRANCH  15  17
HETATM   17  N   UNL     1     -10.107  14.891  66.306  1.00  0.00    -0.269 NA 
HETATM   18  C   UNL     1     -10.594  15.152  64.936  1.00  0.00    -0.365 C  
HETATM   19  C   UNL     1     -11.958  14.469  64.777  1.00  0.00    -0.449 C  
HETATM   20  C   UNL     1     -11.966  13.263  63.842  1.00  0.00    -0.541 C  
HETATM   21  C   UNL     1     -11.507  12.101  64.703  1.00  0.00    -0.388 C  
HETATM   22  C   UNL     1     -12.127  12.389  66.065  1.00  0.00    -0.327 C  
HETATM   23  C   UNL     1     -12.298  13.915  66.162  1.00  0.00    -0.504 C  
HETATM   24  C   UNL     1     -11.329  14.639  67.093  1.00  0.00    -0.356 C  
ENDBRANCH  15  17
ENDBRANCH  13  15
ENDBRANCH  11  13
ENDBRANCH   8  11
ENDBRANCH   5   8
TORSDOF 5
ENDMDL
MODEL       43
REMARK 921   NORMALIZED FREE ENERGY PREDICTED BY IDOCK:   -5.84 KCAL/MOL
REMARK 922        TOTAL FREE ENERGY PREDICTED BY IDOCK:   -8.32 KCAL/MOL
REMARK 923 INTER-LIGAND FREE ENERGY PREDICTED BY IDOCK:   -7.31 KCAL/MOL
REMARK 924 INTRA-LIGAND FREE ENERGY PREDICTED BY IDOCK:   -1.02 KCAL/MOL
REMARK 927      BINDING AFFINITY PREDICTED BY RF-SCORE:    0.00 PKD
ROOT
HETATM    1  C   UNL     1     -10.116  17.490  68.583  1.00  0.00    -0.361 C  
HETATM    2  C   UNL     1     -10.646  16.517  67.571  1.00  0.00    -0.313 A  
HETATM    3  C   UNL     1     -11.401  15.409  67.971  1.00  0.00    -0.345 A  
HETATM    4  C   UNL     1     -11.819  14.465  67.033  1.00  0.00    -0.437 A  
HETATM    5  C   UNL     1     -11.494  14.635  65.683  1.00  0.00    -0.340 A  
HETATM    6  C   UNL     1     -10.763  15.749  65.268  1.00  0.00    -0.446 A  
HETATM    7  C   UNL     1     -10.341  16.688  66.212  1.00  0.00    -0.323 A  
ENDROOT
BRANCH   5   8
HETATM    8  S   UNL     1     -11.859  13.347  64.515  1.00  0.00    -0.420 S  
HETATM    9  O   UNL     1     -12.582  13.963  63.421  1.00  0.00    -0.853 OA 
HETATM   10  O   UNL     1     -12.399  12.217  65.235  1.00  0.00    -0.555 OA 
BRANCH   8  11
HETATM   11  N   UNL     1     -10.368  12.898  63.967  1.00  0.00    -0.520 N  
HETATM   12  H   UNL     1      -9.764  13.659  63.654  1.00  0.00     0.000 HD 
BRANCH  11  13
HETATM   13  C   UNL     1      -9.821  11.619  63.874  1.00  0.00    -0.281 C  
HETATM   14  O   UNL     1      -9.505  11.199  62.768  1.00  0.00    -0.327 OA 
BRANCH  13  15
HETATM   15  N   UNL     1      -9.644  10.955  65.067  1.00  0.00    -0.234 N  
HETATM   16  H   UNL     1     -10.033  10.016  65.155  1.00  0.00     0.000 HD 
BRANCH  15  17
HETATM   17  N   UNL     1      -8.959  11.495  66.172  1.00  0.00    -0.209 NA 
HETATM   18  C   UNL     1      -9.737  11.390  67.423  1.00  0.00    -0.181 C  
HETATM   19  C   UNL     1      -9.286  10.121  68.159  1.00  0.00    -0.140 C  
HETATM   20  C   UNL     1     -10.321   9.000  68.196  1.00  0.00    -0.262 C  
HETATM   21  C   UNL     1     -10.151   8.271  66.876  1.00  0.00    -0.366 C  
HETATM   22  C   UNL     1      -8.649   8.317  66.624  1.00  0.00    -0.135 C  
HETATM   23  C   UNL     1      -8.116   9.571  67.339  1.00  0.00    -0.110 C  
HETATM   24  C   UNL     1      -7.722  10.738  66.439  1.00  0.00    -0.145 C  
ENDBRANCH  15  17
ENDBRANCH  13  15
ENDBRANCH  11  13
ENDBRANCH   8  11
ENDBRANCH   5   8
TORSDOF 5
ENDMDL
MODEL       44
REMARK 921   NORMALIZED FREE ENERGY PREDICTED BY IDOCK:   -5.79 KCAL/MOL
REMARK 922        TOTAL FREE ENERGY PREDICTED BY IDOCK:   -8.26 KCAL/MOL
REMARK 923 INTER-LIGAND FREE ENERGY PREDICTED BY IDOCK:   -7.33 KCAL/MOL
REMARK 924 INTRA-LIGAND FREE ENERGY PREDICTED BY IDOCK:   -0.93 KCAL/MOL
REMARK 927      BINDING AFFINITY PREDICTED BY RF-SCORE:    0.00 PKD
ROOT
HETATM    1  C   UNL     1     -12.531  13.867  65.532  1.00  0.00    -0.541 C  
HETATM    2  C   UNL     1     -11.747  12.657  65.947  1.00  0.00    -0.470 A  
HETATM    3  C   UNL     1     -11.027  11.914  65.004  1.00  0.00    -0.365 A  
HETATM    4  C   UNL     1     -10.369  10.743  65.382  1.00  0.00    -0.315 A  
HETATM    5  C   UNL     1     -10.418  10.319  66.715  1.00  0.00    -0.214 A  
HETATM    6  C   UNL     1     -11.111  11.065  67.669  1.00  0.00    -0.363 A  
HETATM    7  C   UNL     1     -11.773  12.232  67.283  1.00  0.00    -0.394 A  
ENDROOT
BRANCH   5   8
HETATM    8  S   UNL     1      -9.744   8.737  67.165  1.00  0.00    -0.210 S  
HETATM    9  O   UNL     1      -8.907   8.952  68.328  1.00  0.00    -0.133 OA 
HETATM   10  O   UNL     1      -9.230   8.104  65.972  1.00  0.00    -0.189 OA 
BRANCH   8  11
HETATM   11  N   UNL     1     -11.074   7.877  67.631  1.00  0.00    -0.466 N  
HETATM   12  H   UNL     1     -11.974   8.288  67.384  1.00  0.00     0.000 HD 
BRANCH  11  13
HETATM   13  C   UNL     1     -11.132   6.664  68.315  1.00  0.00    -0.198 C  
HETATM   14  O   UNL     1     -10.578   5.690  67.822  1.00  0.00    -0.227 OA 
BRANCH  13  15
HETATM   15  N   UNL     1     -11.785   6.690  69.526  1.00  0.00    -0.657 N  
HETATM   16  H   UNL     1     -12.687   7.164  69.574  1.00  0.00     0.000 HD 
BRANCH  15  17
HETATM   17  N   UNL     1     -11.282   6.103  70.702  1.00  0.00    -0.323 NA 
HETATM   18  C   UNL     1      -9.986   6.681  71.111  1.00  0.00    -0.182 C  
HETATM   19  C   UNL     1     -10.260   7.779  72.147  1.00  0.00    -0.269 C  
HETATM   20  C   UNL     1      -9.993   9.200  71.661  1.00  0.00    -0.319 C  
HETATM   21  C   UNL     1     -11.258   9.604  70.928  1.00  0.00    -0.422 C  
HETATM   22  C   UNL     1     -12.373   8.955  71.740  1.00  0.00    -0.424 C  
HETATM   23  C   UNL     1     -11.765   7.715  72.418  1.00  0.00    -0.366 C  
HETATM   24  C   UNL     1     -12.181   6.365  71.841  1.00  0.00    -0.279 C  
ENDBRANCH  15  17
ENDBRANCH  13  15
ENDBRANCH  11  13
ENDBRANCH   8  11
ENDBRANCH   5   8
TORSDOF 5
ENDMDL
MODEL       45
REMARK 921   NORMALIZED FREE ENERGY PREDICTED BY IDOCK:   -5.78 KCAL/MOL
REMARK 922        TOTAL FREE ENERGY PREDICTED BY IDOCK:   -8.24 KCAL/MOL
REMARK 923 INTER-LIGAND FREE ENERGY PREDICTED BY IDOCK:   -7.29 KCAL/MOL
REMARK 924 INTRA-LIGAND FREE ENERGY PREDICTED BY IDOCK:   -0.95 KCAL/MOL
REMARK 927      BINDING AFFINITY PREDICTED BY RF-SCORE:    0.00 PKD
ROOT
HETATM    1  C   UNL     1     -12.738  11.964  63.208  1.00  0.00    -0.407 C  
HETATM    2  C   UNL     1     -12.194  12.440  64.522  1.00  0.00    -0.509 A  
HETATM    3  C   UNL     1     -11.182  11.728  65.177  1.00  0.00    -0.311 A  
HETATM    4  C   UNL     1     -10.739  12.129  66.437  1.00  0.00    -0.292 A  
HETATM    5  C   UNL     1     -11.300  13.259  67.043  1.00  0.00    -0.312 A  
HETATM    6  C   UNL     1     -12.292  13.992  66.389  1.00  0.00    -0.468 A  
HETATM    7  C   UNL     1     -12.736  13.581  65.131  1.00  0.00    -0.453 A  
ENDROOT
BRANCH   5   8
HETATM    8  S   UNL     1     -10.878  13.666  68.721  1.00  0.00    -0.243 S  
HETATM    9  O   UNL     1      -9.456  13.946  68.741  1.00  0.00    -0.158 OA 
HETATM   10  O   UNL     1     -11.463  12.673  69.592  1.00  0.00    -0.250 OA 
BRANCH   8  11
HETATM   11  N   UNL     1     -11.692  15.077  68.986  1.00  0.00    -0.315 N  
HETATM   12  H   UNL     1     -12.656  15.099  68.654  1.00  0.00     0.000 HD 
BRANCH  11  13
HETATM   13  C   UNL     1     -11.239  16.243  69.602  1.00  0.00    -0.311 C  
HETATM   14  O   UNL     1     -11.495  16.412  70.787  1.00  0.00    -0.368 OA 
BRANCH  13  15
HETATM   15  N   UNL     1     -10.495  17.088  68.811  1.00  0.00    -0.330 N  
HETATM   16  H   UNL     1      -9.685  17.545  69.228  1.00  0.00     0.000 HD 
BRANCH  15  17
HETATM   17  N   UNL     1     -10.785  17.357  67.460  1.00  0.00    -0.322 NA 
HETATM   18  C   UNL     1     -10.809  18.805  67.167  1.00  0.00    -0.306 C  
HETATM   19  C   UNL     1      -9.429  19.205  66.628  1.00  0.00    -0.387 C  
HETATM   20  C   UNL     1      -8.603  20.078  67.566  1.00  0.00    -0.401 C  
HETATM   21  C   UNL     1      -7.928  19.102  68.512  1.00  0.00    -0.386 C  
HETATM   22  C   UNL     1      -7.611  17.901  67.629  1.00  0.00    -0.215 C  
HETATM   23  C   UNL     1      -8.650  17.894  66.495  1.00  0.00    -0.279 C  
HETATM   24  C   UNL     1      -9.729  16.818  66.582  1.00  0.00    -0.269 C  
ENDBRANCH  15  17
ENDBRANCH  13  15
ENDBRANCH  11  13
ENDBRANCH   8  11
ENDBRANCH   5   8
TORSDOF 5
ENDMDL
MODEL       46
REMARK 921   NORMALIZED FREE ENERGY PREDICTED BY IDOCK:   -5.72 KCAL/MOL
REMARK 922        TOTAL FREE ENERGY PREDICTED BY IDOCK:   -8.17 KCAL/MOL
REMARK 923 INTER-LIGAND FREE ENERGY PREDICTED BY IDOCK:   -7.48 KCAL/MOL
REMARK 924 INTRA-LIGAND FREE ENERGY PREDICTED BY IDOCK:   -0.69 KCAL/MOL
REMARK 927      BINDING AFFINITY PREDICTED BY RF-SCORE:    0.00 PKD
ROOT
HETATM    1  C   UNL     1     -12.278  14.730  64.334  1.00  0.00    -0.447 C  
HETATM    2  C   UNL     1     -11.802  13.688  65.303  1.00  0.00    -0.365 A  
HETATM    3  C   UNL     1     -11.092  12.568  64.857  1.00  0.00    -0.336 A  
HETATM    4  C   UNL     1     -10.725  11.562  65.751  1.00  0.00    -0.325 A  
HETATM    5  C   UNL     1     -11.058  11.683  67.106  1.00  0.00    -0.299 A  
HETATM    6  C   UNL     1     -11.744  12.807  67.567  1.00  0.00    -0.422 A  
HETATM    7  C   UNL     1     -12.114  13.807  66.665  1.00  0.00    -0.471 A  
ENDROOT
BRANCH   5   8
HETATM    8  S   UNL     1     -10.762  10.325  68.214  1.00  0.00    -0.255 S  
HETATM    9  O   UNL     1      -9.562  10.645  68.961  1.00  0.00    -0.191 OA 
HETATM   10  O   UNL     1     -10.881   9.093  67.468  1.00  0.00    -0.242 OA 
BRANCH   8  11
HETATM   11  N   UNL     1     -12.051  10.389  69.244  1.00  0.00    -0.537 N  
HETATM   12  H   UNL     1     -12.969  10.303  68.808  1.00  0.00     0.000 HD 
BRANCH  11  13
HETATM   13  C   UNL     1     -12.053  10.544  70.629  1.00  0.00    -0.356 C  
HETATM   14  O   UNL     1     -12.691  11.472  71.109  1.00  0.00    -0.393 OA 
BRANCH  13  15
HETATM   15  N   UNL     1     -11.360   9.592  71.340  1.00  0.00    -0.376 N  
HETATM   16  H   UNL     1     -10.343   9.586  71.267  1.00  0.00     0.000 HD 
BRANCH  15  17
HETATM   17  N   UNL     1     -11.971   8.625  72.161  1.00  0.00    -0.367 NA 
HETATM   18  C   UNL     1     -12.649   7.570  71.381  1.00  0.00    -0.351 C  
HETATM   19  C   UNL     1     -11.682   6.387  71.239  1.00  0.00    -0.359 C  
HETATM   20  C   UNL     1     -11.143   6.166  69.829  1.00  0.00    -0.486 C  
HETATM   21  C   UNL     1      -9.967   7.116  69.709  1.00  0.00    -0.180 C  
HETATM   22  C   UNL     1      -9.339   7.096  71.097  1.00  0.00    -0.157 C  
HETATM   23  C   UNL     1     -10.464   6.754  72.089  1.00  0.00    -0.231 C  
HETATM   24  C   UNL     1     -10.961   7.906  72.959  1.00  0.00    -0.333 C  
ENDBRANCH  15  17
ENDBRANCH  13  15
ENDBRANCH  11  13
ENDBRANCH   8  11
ENDBRANCH   5   8
TORSDOF 5
ENDMDL
MODEL       47
REMARK 921   NORMALIZED FREE ENERGY PREDICTED BY IDOCK:   -5.71 KCAL/MOL
REMARK 922        TOTAL FREE ENERGY PREDICTED BY IDOCK:   -8.16 KCAL/MOL
REMARK 923 INTER-LIGAND FREE ENERGY PREDICTED BY IDOCK:   -7.12 KCAL/MOL
REMARK 924 INTRA-LIGAND FREE ENERGY PREDICTED BY IDOCK:   -1.04 KCAL/MOL
REMARK 927      BINDING AFFINITY PREDICTED BY RF-SCORE:    0.00 PKD
ROOT
HETATM    1  C   UNL     1     -13.228  14.051  72.729  1.00  0.00    -0.580 C  
HETATM    2  C   UNL     1     -12.607  13.886  71.373  1.00  0.00    -0.444 A  
HETATM    3  C   UNL     1     -12.360  14.998  70.560  1.00  0.00    -0.411 A  
HETATM    4  C   UNL     1     -11.861  14.830  69.268  1.00  0.00    -0.352 A  
HETATM    5  C   UNL     1     -11.592  13.543  68.789  1.00  0.00    -0.325 A  
HETATM    6  C   UNL     1     -11.810  12.428  69.600  1.00  0.00    -0.380 A  
HETATM    7  C   UNL     1     -12.316  12.602  70.889  1.00  0.00    -0.352 A  
ENDROOT
BRANCH   5   8
HETATM    8  S   UNL     1     -11.136  13.309  67.088  1.00  0.00    -0.295 S  
HETATM    9  O   UNL     1     -12.041  12.319  66.541  1.00  0.00    -0.616 OA 
HETATM   10  O   UNL     1      -9.702  13.140  67.018  1.00  0.00    -0.228 OA 
BRANCH   8  11
HETATM   11  N   UNL     1     -11.481  14.769  66.398  1.00  0.00    -0.343 N  
HETATM   12  H   UNL     1     -12.327  15.228  66.736  1.00  0.00     0.000 HD 
BRANCH  11  13
HETATM   13  C   UNL     1     -10.773  15.459  65.415  1.00  0.00    -0.400 C  
HETATM   14  O   UNL     1     -11.321  15.668  64.342  1.00  0.00    -0.382 OA 
BRANCH  13  15
HETATM   15  N   UNL     1      -9.514  15.886  65.773  1.00  0.00    -0.324 N  
HETATM   16  H   UNL     1      -8.785  15.183  65.891  1.00  0.00     0.000 HD 
BRANCH  15  17
HETATM   17  N   UNL     1      -9.174  17.236  65.985  1.00  0.00    -0.514 NA 
HETATM   18  C   UNL     1      -9.608  17.724  67.310  1.00  0.00    -0.272 C  
HETATM   19  C   UNL     1      -8.423  17.597  68.276  1.00  0.00    -0.271 C  
HETATM   20  C   UNL     1      -8.584  16.526  69.350  1.00  0.00     0.080 C  
HETATM   21  C   UNL     1      -8.151  15.236  68.680  1.00  0.00    -0.156 C  
HETATM   22  C   UNL     1      -7.001  15.663  67.775  1.00  0.00    -0.179 C  
HETATM   23  C   UNL     1      -7.244  17.138  67.414  1.00  0.00    -0.178 C  
HETATM   24  C   UNL     1      -7.709  17.410  65.986  1.00  0.00    -0.198 C  
ENDBRANCH  15  17
ENDBRANCH  13  15
ENDBRANCH  11  13
ENDBRANCH   8  11
ENDBRANCH   5   8
TORSDOF 5
ENDMDL
MODEL       48
REMARK 921   NORMALIZED FREE ENERGY PREDICTED BY IDOCK:   -5.71 KCAL/MOL
REMARK 922        TOTAL FREE ENERGY PREDICTED BY IDOCK:   -8.15 KCAL/MOL
REMARK 923 INTER-LIGAND FREE ENERGY PREDICTED BY IDOCK:   -7.07 KCAL/MOL
REMARK 924 INTRA-LIGAND FREE ENERGY PREDICTED BY IDOCK:   -1.08 KCAL/MOL
REMARK 927      BINDING AFFINITY PREDICTED BY RF-SCORE:    0.00 PKD
ROOT
HETATM    1  C   UNL     1     -12.535  12.085  63.433  1.00  0.00    -0.625 C  
HETATM    2  C   UNL     1     -11.617  12.629  64.487  1.00  0.00    -0.399 A  
HETATM    3  C   UNL     1     -11.280  13.988  64.511  1.00  0.00    -0.358 A  
HETATM    4  C   UNL     1     -10.362  14.471  65.443  1.00  0.00    -0.405 A  
HETATM    5  C   UNL     1      -9.784  13.594  66.368  1.00  0.00    -0.292 A  
HETATM    6  C   UNL     1     -10.131  12.242  66.370  1.00  0.00    -0.245 A  
HETATM    7  C   UNL     1     -11.046  11.763  65.431  1.00  0.00    -0.336 A  
ENDROOT
BRANCH   5   8
HETATM    8  S   UNL     1      -8.478  14.162  67.430  1.00  0.00    -0.211 S  
HETATM    9  O   UNL     1      -7.502  13.093  67.507  1.00  0.00    -0.149 OA 
HETATM   10  O   UNL     1      -9.071  14.729  68.620  1.00  0.00    -0.178 OA 
BRANCH   8  11
HETATM   11  N   UNL     1      -7.815  15.413  66.581  1.00  0.00    -0.289 N  
HETATM   12  H   UNL     1      -8.079  15.468  65.597  1.00  0.00     0.000 HD 
BRANCH  11  13
HETATM   13  C   UNL     1      -6.944  16.406  67.027  1.00  0.00    -0.219 C  
HETATM   14  O   UNL     1      -5.796  16.405  66.606  1.00  0.00    -0.317 OA 
BRANCH  13  15
HETATM   15  N   UNL     1      -7.486  17.338  67.883  1.00  0.00    -0.179 N  
HETATM   16  H   UNL     1      -8.050  17.001  68.663  1.00  0.00     0.000 HD 
BRANCH  15  17
HETATM   17  N   UNL     1      -7.309  18.728  67.745  1.00  0.00    -0.231 NA 
HETATM   18  C   UNL     1      -7.794  19.231  66.444  1.00  0.00    -0.291 C  
HETATM   19  C   UNL     1      -9.226  19.746  66.636  1.00  0.00    -0.467 C  
HETATM   20  C   UNL     1     -10.307  18.902  65.967  1.00  0.00    -0.485 C  
HETATM   21  C   UNL     1     -10.596  17.788  66.955  1.00  0.00    -0.266 C  
HETATM   22  C   UNL     1     -10.472  18.466  68.315  1.00  0.00    -0.329 C  
HETATM   23  C   UNL     1      -9.497  19.642  68.139  1.00  0.00    -0.449 C  
HETATM   24  C   UNL     1      -8.109  19.457  68.746  1.00  0.00    -0.353 C  
ENDBRANCH  15  17
ENDBRANCH  13  15
ENDBRANCH  11  13
ENDBRANCH   8  11
ENDBRANCH   5   8
TORSDOF 5
ENDMDL
MODEL       49
REMARK 921   NORMALIZED FREE ENERGY PREDICTED BY IDOCK:   -5.66 KCAL/MOL
REMARK 922        TOTAL FREE ENERGY PREDICTED BY IDOCK:   -8.10 KCAL/MOL
REMARK 923 INTER-LIGAND FREE ENERGY PREDICTED BY IDOCK:   -7.34 KCAL/MOL
REMARK 924 INTRA-LIGAND FREE ENERGY PREDICTED BY IDOCK:   -0.76 KCAL/MOL
REMARK 927      BINDING AFFINITY PREDICTED BY RF-SCORE:    0.00 PKD
ROOT
HETATM    1  C   UNL     1      -9.680   8.245  66.396  1.00  0.00    -0.300 C  
HETATM    2  C   UNL     1     -10.134   9.670  66.281  1.00  0.00    -0.322 A  
HETATM    3  C   UNL     1     -10.033  10.356  65.065  1.00  0.00    -0.399 A  
HETATM    4  C   UNL     1     -10.380  11.705  64.986  1.00  0.00    -0.329 A  
HETATM    5  C   UNL     1     -10.845  12.371  66.126  1.00  0.00    -0.273 A  
HETATM    6  C   UNL     1     -10.974  11.690  67.337  1.00  0.00    -0.313 A  
HETATM    7  C   UNL     1     -10.619  10.342  67.412  1.00  0.00    -0.321 A  
ENDROOT
BRANCH   5   8
HETATM    8  S   UNL     1     -11.109  14.128  66.079  1.00  0.00    -0.320 S  
HETATM    9  O   UNL     1     -12.268  14.358  65.242  1.00  0.00    -0.393 OA 
HETATM   10  O   UNL     1      -9.844  14.772  65.810  1.00  0.00    -0.317 OA 
BRANCH   8  11
HETATM   11  N   UNL     1     -11.510  14.493  67.638  1.00  0.00    -0.337 N  
HETATM   12  H   UNL     1     -11.890  13.722  68.189  1.00  0.00     0.000 HD 
BRANCH  11  13
HETATM   13  C   UNL     1     -11.401  15.712  68.305  1.00  0.00    -0.356 C  
HETATM   14  O   UNL     1     -12.025  15.864  69.347  1.00  0.00    -0.354 OA 
BRANCH  13  15
HETATM   15  N   UNL     1     -10.547  16.630  67.738  1.00  0.00    -0.336 N  
HETATM   16  H   UNL     1      -9.609  16.319  67.484  1.00  0.00     0.000 HD 
BRANCH  15  17
HETATM   17  N   UNL     1     -10.891  17.972  67.487  1.00  0.00    -0.325 NA 
HETATM   18  C   UNL     1     -10.265  18.903  68.447  1.00  0.00    -0.373 C  
HETATM   19  C   UNL     1      -8.973  19.441  67.817  1.00  0.00    -0.365 C  
HETATM   20  C   UNL     1      -7.687  18.945  68.469  1.00  0.00    -0.365 C  
HETATM   21  C   UNL     1      -7.418  17.599  67.822  1.00  0.00    -0.205 C  
HETATM   22  C   UNL     1      -7.868  17.791  66.378  1.00  0.00    -0.312 C  
HETATM   23  C   UNL     1      -8.954  18.881  66.393  1.00  0.00    -0.315 C  
HETATM   24  C   UNL     1     -10.385  18.401  66.170  1.00  0.00    -0.407 C  
ENDBRANCH  15  17
ENDBRANCH  13  15
ENDBRANCH  11  13
ENDBRANCH   8  11
ENDBRANCH   5   8
TORSDOF 5
ENDMDL
MODEL       50
REMARK 921   NORMALIZED FREE ENERGY PREDICTED BY IDOCK:   -5.66 KCAL/MOL
REMARK 922        TOTAL FREE ENERGY PREDICTED BY IDOCK:   -8.09 KCAL/MOL
REMARK 923 INTER-LIGAND FREE ENERGY PREDICTED BY IDOCK:   -7.17 KCAL/MOL
REMARK 924 INTRA-LIGAND FREE ENERGY PREDICTED BY IDOCK:   -0.92 KCAL/MOL
REMARK 927      BINDING AFFINITY PREDICTED BY RF-SCORE:    0.00 PKD
ROOT
HETATM    1  C   UNL     1     -12.381   8.309  72.139  1.00  0.00    -0.410 C  
HETATM    2  C   UNL     1     -12.186   9.542  71.306  1.00  0.00    -0.433 A  
HETATM    3  C   UNL     1     -11.296   9.541  70.226  1.00  0.00    -0.284 A  
HETATM    4  C   UNL     1     -11.058  10.713  69.507  1.00  0.00    -0.328 A  
HETATM    5  C   UNL     1     -11.725  11.892  69.860  1.00  0.00    -0.308 A  
HETATM    6  C   UNL     1     -12.634  11.898  70.920  1.00  0.00    -0.361 A  
HETATM    7  C   UNL     1     -12.863  10.724  71.639  1.00  0.00    -0.562 A  
ENDROOT
BRANCH   5   8
HETATM    8  S   UNL     1     -11.289  13.425  69.075  1.00  0.00    -0.296 S  
HETATM    9  O   UNL     1     -12.374  13.762  68.176  1.00  0.00    -0.245 OA 
HETATM   10  O   UNL     1      -9.925  13.326  68.607  1.00  0.00    -0.210 OA 
BRANCH   8  11
HETATM   11  N   UNL     1     -11.290  14.505  70.323  1.00  0.00    -0.431 N  
HETATM   12  H   UNL     1     -11.470  14.111  71.247  1.00  0.00     0.000 HD 
BRANCH  11  13
HETATM   13  C   UNL     1     -11.079  15.882  70.286  1.00  0.00    -0.373 C  
HETATM   14  O   UNL     1     -11.534  16.566  71.194  1.00  0.00    -0.331 OA 
BRANCH  13  15
HETATM   15  N   UNL     1     -10.326  16.344  69.231  1.00  0.00    -0.274 N  
HETATM   16  H   UNL     1      -9.320  16.175  69.250  1.00  0.00     0.000 HD 
BRANCH  15  17
HETATM   17  N   UNL     1     -10.860  17.036  68.127  1.00  0.00    -0.372 NA 
HETATM   18  C   UNL     1     -10.392  18.435  68.059  1.00  0.00    -0.384 C  
HETATM   19  C   UNL     1      -9.185  18.487  67.112  1.00  0.00    -0.280 C  
HETATM   20  C   UNL     1      -7.848  18.766  67.793  1.00  0.00    -0.262 C  
HETATM   21  C   UNL     1      -7.375  17.412  68.288  1.00  0.00    -0.214 C  
HETATM   22  C   UNL     1      -7.828  16.447  67.199  1.00  0.00    -0.223 C  
HETATM   23  C   UNL     1      -9.063  17.077  66.532  1.00  0.00    -0.291 C  
HETATM   24  C   UNL     1     -10.405  16.429  66.862  1.00  0.00    -0.300 C  
ENDBRANCH  15  17
ENDBRANCH  13  15
ENDBRANCH  11  13
ENDBRANCH   8  11
ENDBRANCH   5   8
TORSDOF 5
ENDMDL
MODEL       51
REMARK 921   NORMALIZED FREE ENERGY PREDICTED BY IDOCK:   -5.64 KCAL/MOL
REMARK 922        TOTAL FREE ENERGY PREDICTED BY IDOCK:   -8.07 KCAL/MOL
REMARK 923 INTER-LIGAND FREE ENERGY PREDICTED BY IDOCK:   -7.21 KCAL/MOL
REMARK 924 INTRA-LIGAND FREE ENERGY PREDICTED BY IDOCK:   -0.86 KCAL/MOL
REMARK 927      BINDING AFFINITY PREDICTED BY RF-SCORE:    0.00 PKD
ROOT
HETATM    1  C   UNL     1     -10.315  17.252  66.333  1.00  0.00    -0.316 C  
HETATM    2  C   UNL     1     -10.595  15.901  66.920  1.00  0.00    -0.309 A  
HETATM    3  C   UNL     1     -10.796  15.747  68.297  1.00  0.00    -0.305 A  
HETATM    4  C   UNL     1     -10.974  14.478  68.847  1.00  0.00    -0.268 A  
HETATM    5  C   UNL     1     -10.965  13.353  68.014  1.00  0.00    -0.244 A  
HETATM    6  C   UNL     1     -10.791  13.495  66.637  1.00  0.00    -0.283 A  
HETATM    7  C   UNL     1     -10.607  14.768  66.093  1.00  0.00    -0.314 A  
ENDROOT
BRANCH   5   8
HETATM    8  S   UNL     1     -11.002  11.725  68.725  1.00  0.00    -0.248 S  
HETATM    9  O   UNL     1      -9.625  11.305  68.888  1.00  0.00    -0.183 OA 
HETATM   10  O   UNL     1     -11.952  10.925  67.986  1.00  0.00    -0.586 OA 
BRANCH   8  11
HETATM   11  N   UNL     1     -11.651  11.979  70.222  1.00  0.00    -0.527 N  
HETATM   12  H   UNL     1     -11.469  12.895  70.633  1.00  0.00     0.000 HD 
BRANCH  11  13
HETATM   13  C   UNL     1     -12.415  11.111  71.000  1.00  0.00    -0.403 C  
HETATM   14  O   UNL     1     -13.246  11.589  71.761  1.00  0.00    -0.457 OA 
BRANCH  13  15
HETATM   15  N   UNL     1     -12.186   9.769  70.800  1.00  0.00    -0.390 N  
HETATM   16  H   UNL     1     -12.069   9.440  69.842  1.00  0.00     0.000 HD 
BRANCH  15  17
HETATM   17  N   UNL     1     -12.104   8.823  71.840  1.00  0.00    -0.337 NA 
HETATM   18  C   UNL     1     -12.609   7.495  71.435  1.00  0.00    -0.351 C  
HETATM   19  C   UNL     1     -11.412   6.646  70.988  1.00  0.00    -0.382 C  
HETATM   20  C   UNL     1     -11.359   6.352  69.492  1.00  0.00    -0.460 C  
HETATM   21  C   UNL     1     -10.696   7.572  68.880  1.00  0.00    -0.135 C  
HETATM   22  C   UNL     1      -9.657   7.981  69.916  1.00  0.00    -0.171 C  
HETATM   23  C   UNL     1     -10.177   7.500  71.282  1.00  0.00    -0.198 C  
HETATM   24  C   UNL     1     -10.699   8.586  72.219  1.00  0.00    -0.341 C  
ENDBRANCH  15  17
ENDBRANCH  13  15
ENDBRANCH  11  13
ENDBRANCH   8  11
ENDBRANCH   5   8
TORSDOF 5
ENDMDL
MODEL       52
REMARK 921   NORMALIZED FREE ENERGY PREDICTED BY IDOCK:   -5.61 KCAL/MOL
REMARK 922        TOTAL FREE ENERGY PREDICTED BY IDOCK:   -8.03 KCAL/MOL
REMARK 923 INTER-LIGAND FREE ENERGY PREDICTED BY IDOCK:   -7.18 KCAL/MOL
REMARK 924 INTRA-LIGAND FREE ENERGY PREDICTED BY IDOCK:   -0.85 KCAL/MOL
REMARK 927      BINDING AFFINITY PREDICTED BY RF-SCORE:    0.00 PKD
ROOT
HETATM    1  C   UNL     1     -12.731  15.741  74.183  1.00  0.00    -0.678 C  
HETATM    2  C   UNL     1     -12.579  15.212  72.788  1.00  0.00    -0.487 A  
HETATM    3  C   UNL     1     -13.156  13.991  72.419  1.00  0.00    -0.536 A  
HETATM    4  C   UNL     1     -12.941  13.464  71.146  1.00  0.00    -0.314 A  
HETATM    5  C   UNL     1     -12.156  14.169  70.226  1.00  0.00    -0.342 A  
HETATM    6  C   UNL     1     -11.596  15.400  70.574  1.00  0.00    -0.355 A  
HETATM    7  C   UNL     1     -11.809  15.918  71.852  1.00  0.00    -0.595 A  
ENDROOT
BRANCH   5   8
HETATM    8  S   UNL     1     -11.723  13.421  68.674  1.00  0.00    -0.367 S  
HETATM    9  O   UNL     1     -12.114  14.351  67.634  1.00  0.00    -0.363 OA 
HETATM   10  O   UNL     1     -12.194  12.055  68.679  1.00  0.00    -0.299 OA 
BRANCH   8  11
HETATM   11  N   UNL     1     -10.074  13.360  68.728  1.00  0.00    -0.406 N  
HETATM   12  H   UNL     1      -9.616  14.171  69.145  1.00  0.00     0.000 HD 
BRANCH  11  13
HETATM   13  C   UNL     1      -9.223  12.351  68.281  1.00  0.00    -0.189 C  
HETATM   14  O   UNL     1      -8.413  12.619  67.404  1.00  0.00    -0.168 OA 
BRANCH  13  15
HETATM   15  N   UNL     1      -9.350  11.136  68.915  1.00  0.00    -0.335 N  
HETATM   16  H   UNL     1     -10.215  10.948  69.422  1.00  0.00     0.000 HD 
BRANCH  15  17
HETATM   17  N   UNL     1      -8.357  10.138  68.905  1.00  0.00    -0.121 NA 
HETATM   18  C   UNL     1      -7.894   9.790  70.264  1.00  0.00    -0.171 C  
HETATM   19  C   UNL     1      -8.684   8.563  70.738  1.00  0.00    -0.183 C  
HETATM   20  C   UNL     1      -9.681   8.836  71.860  1.00  0.00    -0.386 C  
HETATM   21  C   UNL     1     -10.927   9.343  71.159  1.00  0.00    -0.430 C  
HETATM   22  C   UNL     1     -10.978   8.527  69.872  1.00  0.00    -0.165 C  
HETATM   23  C   UNL     1      -9.529   8.136  69.535  1.00  0.00    -0.156 C  
HETATM   24  C   UNL     1      -8.893   8.876  68.361  1.00  0.00    -0.134 C  
ENDBRANCH  15  17
ENDBRANCH  13  15
ENDBRANCH  11  13
ENDBRANCH   8  11
ENDBRANCH   5   8
TORSDOF 5
ENDMDL
MODEL       53
REMARK 921   NORMALIZED FREE ENERGY PREDICTED BY IDOCK:   -5.61 KCAL/MOL
REMARK 922        TOTAL FREE ENERGY PREDICTED BY IDOCK:   -8.03 KCAL/MOL
REMARK 923 INTER-LIGAND FREE ENERGY PREDICTED BY IDOCK:   -6.98 KCAL/MOL
REMARK 924 INTRA-LIGAND FREE ENERGY PREDICTED BY IDOCK:   -1.05 KCAL/MOL
REMARK 927      BINDING AFFINITY PREDICTED BY RF-SCORE:    0.00 PKD
ROOT
HETATM    1  C   UNL     1     -12.228  14.724  64.220  1.00  0.00    -0.402 C  
HETATM    2  C   UNL     1     -11.835  13.811  65.343  1.00  0.00    -0.371 A  
HETATM    3  C   UNL     1     -11.278  12.554  65.081  1.00  0.00    -0.342 A  
HETATM    4  C   UNL     1     -10.991  11.677  66.127  1.00  0.00    -0.339 A  
HETATM    5  C   UNL     1     -11.248  12.064  67.448  1.00  0.00    -0.307 A  
HETATM    6  C   UNL     1     -11.780  13.325  67.723  1.00  0.00    -0.398 A  
HETATM    7  C   UNL     1     -12.071  14.195  66.672  1.00  0.00    -0.480 A  
ENDROOT
BRANCH   5   8
HETATM    8  S   UNL     1     -11.063  10.887  68.767  1.00  0.00    -0.281 S  
HETATM    9  O   UNL     1     -12.169  11.100  69.679  1.00  0.00    -0.320 OA 
HETATM   10  O   UNL     1      -9.692  10.924  69.222  1.00  0.00    -0.170 OA 
BRANCH   8  11
HETATM   11  N   UNL     1     -11.280   9.435  68.013  1.00  0.00    -0.492 N  
HETATM   12  H   UNL     1     -12.184   9.304  67.557  1.00  0.00     0.000 HD 
BRANCH  11  13
HETATM   13  C   UNL     1     -10.395   8.362  67.914  1.00  0.00    -0.221 C  
HETATM   14  O   UNL     1     -10.108   7.945  66.800  1.00  0.00    -0.254 OA 
BRANCH  13  15
HETATM   15  N   UNL     1      -9.884   7.896  69.104  1.00  0.00    -0.171 N  
HETATM   16  H   UNL     1      -9.407   8.560  69.714  1.00  0.00     0.000 HD 
BRANCH  15  17
HETATM   17  N   UNL     1      -9.981   6.557  69.529  1.00  0.00    -0.157 NA 
HETATM   18  C   UNL     1      -9.319   6.330  70.829  1.00  0.00    -0.158 C  
HETATM   19  C   UNL     1     -10.383   6.431  71.931  1.00  0.00    -0.228 C  
HETATM   20  C   UNL     1     -10.261   7.658  72.829  1.00  0.00    -0.336 C  
HETATM   21  C   UNL     1     -10.969   8.765  72.071  1.00  0.00    -0.438 C  
HETATM   22  C   UNL     1     -12.139   8.057  71.399  1.00  0.00    -0.332 C  
HETATM   23  C   UNL     1     -11.714   6.593  71.194  1.00  0.00    -0.399 C  
HETATM   24  C   UNL     1     -11.390   6.185  69.760  1.00  0.00    -0.382 C  
ENDBRANCH  15  17
ENDBRANCH  13  15
ENDBRANCH  11  13
ENDBRANCH   8  11
ENDBRANCH   5   8
TORSDOF 5
ENDMDL
MODEL       54
REMARK 921   NORMALIZED FREE ENERGY PREDICTED BY IDOCK:   -5.60 KCAL/MOL
REMARK 922        TOTAL FREE ENERGY PREDICTED BY IDOCK:   -8.02 KCAL/MOL
REMARK 923 INTER-LIGAND FREE ENERGY PREDICTED BY IDOCK:   -7.07 KCAL/MOL
REMARK 924 INTRA-LIGAND FREE ENERGY PREDICTED BY IDOCK:   -0.95 KCAL/MOL
REMARK 927      BINDING AFFINITY PREDICTED BY RF-SCORE:    0.00 PKD
ROOT
HETATM    1  C   UNL     1     -13.830   9.142  72.573  1.00  0.00    -0.485 C  
HETATM    2  C   UNL     1     -12.798   9.187  71.485  1.00  0.00    -0.412 A  
HETATM    3  C   UNL     1     -11.987   8.077  71.223  1.00  0.00    -0.321 A  
HETATM    4  C   UNL     1     -10.974   8.154  70.267  1.00  0.00    -0.240 A  
HETATM    5  C   UNL     1     -10.778   9.344  69.556  1.00  0.00    -0.222 A  
HETATM    6  C   UNL     1     -11.597  10.449  69.792  1.00  0.00    -0.339 A  
HETATM    7  C   UNL     1     -12.605  10.368  70.754  1.00  0.00    -0.462 A  
ENDROOT
BRANCH   5   8
HETATM    8  S   UNL     1      -9.376   9.510  68.477  1.00  0.00    -0.138 S  
HETATM    9  O   UNL     1      -8.552   8.334  68.673  1.00  0.00    -0.131 OA 
HETATM   10  O   UNL     1      -8.839  10.842  68.629  1.00  0.00    -0.146 OA 
BRANCH   8  11
HETATM   11  N   UNL     1     -10.046   9.432  66.970  1.00  0.00    -0.222 N  
HETATM   12  H   UNL     1     -10.528   8.561  66.746  1.00  0.00     0.000 HD 
BRANCH  11  13
HETATM   13  C   UNL     1     -10.042  10.395  65.963  1.00  0.00    -0.243 C  
HETATM   14  O   UNL     1      -9.722  10.054  64.832  1.00  0.00    -0.296 OA 
BRANCH  13  15
HETATM   15  N   UNL     1     -10.452  11.655  66.337  1.00  0.00    -0.236 N  
HETATM   16  H   UNL     1      -9.738  12.369  66.478  1.00  0.00     0.000 HD 
BRANCH  15  17
HETATM   17  N   UNL     1     -11.799  12.015  66.536  1.00  0.00    -0.605 NA 
HETATM   18  C   UNL     1     -11.946  13.145  67.475  1.00  0.00    -0.317 C  
HETATM   19  C   UNL     1     -12.045  14.438  66.654  1.00  0.00    -0.392 C  
HETATM   20  C   UNL     1     -10.836  15.362  66.764  1.00  0.00    -0.306 C  
HETATM   21  C   UNL     1      -9.841  14.820  65.755  1.00  0.00    -0.373 C  
HETATM   22  C   UNL     1     -10.714  14.352  64.597  1.00  0.00    -0.357 C  
HETATM   23  C   UNL     1     -12.085  13.987  65.192  1.00  0.00    -0.418 C  
HETATM   24  C   UNL     1     -12.401  12.496  65.278  1.00  0.00    -0.403 C  
ENDBRANCH  15  17
ENDBRANCH  13  15
ENDBRANCH  11  13
ENDBRANCH   8  11
ENDBRANCH   5   8
TORSDOF 5
ENDMDL
MODEL       55
REMARK 921   NORMALIZED FREE ENERGY PREDICTED BY IDOCK:   -5.57 KCAL/MOL
REMARK 922        TOTAL FREE ENERGY PREDICTED BY IDOCK:   -7.98 KCAL/MOL
REMARK 923 INTER-LIGAND FREE ENERGY PREDICTED BY IDOCK:   -7.18 KCAL/MOL
REMARK 924 INTRA-LIGAND FREE ENERGY PREDICTED BY IDOCK:   -0.80 KCAL/MOL
REMARK 927      BINDING AFFINITY PREDICTED BY RF-SCORE:    0.00 PKD
ROOT
HETATM    1  C   UNL     1     -10.393   6.735  74.105  1.00  0.00    -0.322 C  
HETATM    2  C   UNL     1     -10.512   7.727  72.986  1.00  0.00    -0.432 A  
HETATM    3  C   UNL     1     -11.767   8.108  72.499  1.00  0.00    -0.457 A  
HETATM    4  C   UNL     1     -11.868   8.967  71.404  1.00  0.00    -0.383 A  
HETATM    5  C   UNL     1     -10.707   9.462  70.800  1.00  0.00    -0.305 A  
HETATM    6  C   UNL     1      -9.450   9.110  71.293  1.00  0.00    -0.313 A  
HETATM    7  C   UNL     1      -9.355   8.245  72.385  1.00  0.00    -0.338 A  
ENDROOT
BRANCH   5   8
HETATM    8  S   UNL     1     -10.822  10.401  69.296  1.00  0.00    -0.258 S  
HETATM    9  O   UNL     1      -9.598  11.168  69.183  1.00  0.00    -0.132 OA 
HETATM   10  O   UNL     1     -12.118  11.039  69.255  1.00  0.00    -0.339 OA 
BRANCH   8  11
HETATM   11  N   UNL     1     -10.821   9.240  68.122  1.00  0.00    -0.455 N  
HETATM   12  H   UNL     1     -11.082   8.303  68.429  1.00  0.00     0.000 HD 
BRANCH  11  13
HETATM   13  C   UNL     1     -10.511   9.368  66.769  1.00  0.00    -0.195 C  
HETATM   14  O   UNL     1     -10.117   8.378  66.167  1.00  0.00    -0.182 OA 
BRANCH  13  15
HETATM   15  N   UNL     1     -10.727  10.611  66.220  1.00  0.00    -0.155 N  
HETATM   16  H   UNL     1     -11.685  10.957  66.179  1.00  0.00     0.000 HD 
BRANCH  15  17
HETATM   17  N   UNL     1      -9.703  11.434  65.713  1.00  0.00    -0.224 NA 
HETATM   18  C   UNL     1      -9.851  11.688  64.266  1.00  0.00    -0.230 C  
HETATM   19  C   UNL     1     -10.585  13.024  64.089  1.00  0.00    -0.421 C  
HETATM   20  C   UNL     1     -12.005  12.908  63.544  1.00  0.00    -0.629 C  
HETATM   21  C   UNL     1     -12.865  12.618  64.759  1.00  0.00    -0.349 C  
HETATM   22  C   UNL     1     -12.221  13.443  65.867  1.00  0.00    -0.502 C  
HETATM   23  C   UNL     1     -10.734  13.594  65.502  1.00  0.00    -0.296 C  
HETATM   24  C   UNL     1      -9.754  12.771  66.333  1.00  0.00    -0.261 C  
ENDBRANCH  15  17
ENDBRANCH  13  15
ENDBRANCH  11  13
ENDBRANCH   8  11
ENDBRANCH   5   8
TORSDOF 5
ENDMDL
MODEL       56
REMARK 921   NORMALIZED FREE ENERGY PREDICTED BY IDOCK:   -5.56 KCAL/MOL
REMARK 922        TOTAL FREE ENERGY PREDICTED BY IDOCK:   -7.97 KCAL/MOL
REMARK 923 INTER-LIGAND FREE ENERGY PREDICTED BY IDOCK:   -7.10 KCAL/MOL
REMARK 924 INTRA-LIGAND FREE ENERGY PREDICTED BY IDOCK:   -0.87 KCAL/MOL
REMARK 927      BINDING AFFINITY PREDICTED BY RF-SCORE:    0.00 PKD
ROOT
HETATM    1  C   UNL     1     -10.507  18.290  67.344  1.00  0.00    -0.430 C  
HETATM    2  C   UNL     1     -10.649  16.797  67.321  1.00  0.00    -0.275 A  
HETATM    3  C   UNL     1     -11.215  16.115  68.405  1.00  0.00    -0.358 A  
HETATM    4  C   UNL     1     -11.268  14.721  68.412  1.00  0.00    -0.298 A  
HETATM    5  C   UNL     1     -10.765  14.002  67.322  1.00  0.00    -0.278 A  
HETATM    6  C   UNL     1     -10.221  14.671  66.224  1.00  0.00    -0.302 A  
HETATM    7  C   UNL     1     -10.165  16.066  66.226  1.00  0.00    -0.329 A  
ENDROOT
BRANCH   5   8
HETATM    8  S   UNL     1     -10.657  12.230  67.405  1.00  0.00    -0.226 S  
HETATM    9  O   UNL     1      -9.391  11.856  66.808  1.00  0.00    -0.189 OA 
HETATM   10  O   UNL     1     -11.905  11.674  66.935  1.00  0.00    -0.577 OA 
BRANCH   8  11
HETATM   11  N   UNL     1     -10.578  11.930  69.026  1.00  0.00    -0.373 N  
HETATM   12  H   UNL     1      -9.802  12.372  69.520  1.00  0.00     0.000 HD 
BRANCH  11  13
HETATM   13  C   UNL     1     -11.428  11.153  69.812  1.00  0.00    -0.312 C  
HETATM   14  O   UNL     1     -12.122  11.716  70.649  1.00  0.00    -0.368 OA 
BRANCH  13  15
HETATM   15  N   UNL     1     -11.437   9.806  69.534  1.00  0.00    -0.440 N  
HETATM   16  H   UNL     1     -12.334   9.365  69.331  1.00  0.00     0.000 HD 
BRANCH  15  17
HETATM   17  N   UNL     1     -10.283   9.001  69.512  1.00  0.00    -0.197 NA 
HETATM   18  C   UNL     1      -9.614   8.940  70.827  1.00  0.00    -0.229 C  
HETATM   19  C   UNL     1     -10.102   7.678  71.552  1.00  0.00    -0.205 C  
HETATM   20  C   UNL     1     -11.000   7.939  72.757  1.00  0.00    -0.456 C  
HETATM   21  C   UNL     1     -12.389   8.118  72.175  1.00  0.00    -0.383 C  
HETATM   22  C   UNL     1     -12.431   7.126  71.019  1.00  0.00    -0.359 C  
HETATM   23  C   UNL     1     -10.981   6.943  70.538  1.00  0.00    -0.313 C  
HETATM   24  C   UNL     1     -10.630   7.600  69.206  1.00  0.00    -0.201 C  
ENDBRANCH  15  17
ENDBRANCH  13  15
ENDBRANCH  11  13
ENDBRANCH   8  11
ENDBRANCH   5   8
TORSDOF 5
ENDMDL
MODEL       57
REMARK 921   NORMALIZED FREE ENERGY PREDICTED BY IDOCK:   -5.54 KCAL/MOL
REMARK 922        TOTAL FREE ENERGY PREDICTED BY IDOCK:   -7.94 KCAL/MOL
REMARK 923 INTER-LIGAND FREE ENERGY PREDICTED BY IDOCK:   -7.02 KCAL/MOL
REMARK 924 INTRA-LIGAND FREE ENERGY PREDICTED BY IDOCK:   -0.93 KCAL/MOL
REMARK 927      BINDING AFFINITY PREDICTED BY RF-SCORE:    0.00 PKD
ROOT
HETATM    1  C   UNL     1     -14.032  15.890  72.801  1.00  0.00    -0.461 C  
HETATM    2  C   UNL     1     -13.311  14.985  71.846  1.00  0.00    -0.475 A  
HETATM    3  C   UNL     1     -12.722  15.496  70.684  1.00  0.00    -0.487 A  
HETATM    4  C   UNL     1     -12.125  14.638  69.760  1.00  0.00    -0.371 A  
HETATM    5  C   UNL     1     -12.104  13.260  70.005  1.00  0.00    -0.315 A  
HETATM    6  C   UNL     1     -12.666  12.742  71.172  1.00  0.00    -0.355 A  
HETATM    7  C   UNL     1     -13.267  13.605  72.090  1.00  0.00    -0.541 A  
ENDROOT
BRANCH   5   8
HETATM    8  S   UNL     1     -11.517  12.147  68.750  1.00  0.00    -0.332 S  
HETATM    9  O   UNL     1     -12.326  10.948  68.839  1.00  0.00    -0.486 OA 
HETATM   10  O   UNL     1     -10.075  12.091  68.828  1.00  0.00    -0.190 OA 
BRANCH   8  11
HETATM   11  N   UNL     1     -11.892  12.927  67.345  1.00  0.00    -0.374 N  
HETATM   12  H   UNL     1     -12.250  13.877  67.449  1.00  0.00     0.000 HD 
BRANCH  11  13
HETATM   13  C   UNL     1     -11.786  12.464  66.034  1.00  0.00    -0.410 C  
HETATM   14  O   UNL     1     -12.389  13.063  65.155  1.00  0.00    -0.433 OA 
BRANCH  13  15
HETATM   15  N   UNL     1     -10.958  11.380  65.847  1.00  0.00    -0.249 N  
HETATM   16  H   UNL     1     -11.256  10.480  66.222  1.00  0.00     0.000 HD 
BRANCH  15  17
HETATM   17  N   UNL     1      -9.726  11.441  65.170  1.00  0.00    -0.239 NA 
HETATM   18  C   UNL     1      -8.574  11.440  66.094  1.00  0.00    -0.128 C  
HETATM   19  C   UNL     1      -8.074   9.996  66.231  1.00  0.00    -0.117 C  
HETATM   20  C   UNL     1      -8.326   9.356  67.593  1.00  0.00    -0.119 C  
HETATM   21  C   UNL     1      -9.749   8.835  67.519  1.00  0.00    -0.214 C  
HETATM   22  C   UNL     1      -9.887   8.352  66.081  1.00  0.00    -0.183 C  
HETATM   23  C   UNL     1      -8.906   9.183  65.236  1.00  0.00    -0.240 C  
HETATM   24  C   UNL     1      -9.532  10.242  64.333  1.00  0.00    -0.302 C  
ENDBRANCH  15  17
ENDBRANCH  13  15
ENDBRANCH  11  13
ENDBRANCH   8  11
ENDBRANCH   5   8
TORSDOF 5
ENDMDL
MODEL       58
REMARK 921   NORMALIZED FREE ENERGY PREDICTED BY IDOCK:   -5.52 KCAL/MOL
REMARK 922        TOTAL FREE ENERGY PREDICTED BY IDOCK:   -7.92 KCAL/MOL
REMARK 923 INTER-LIGAND FREE ENERGY PREDICTED BY IDOCK:   -6.53 KCAL/MOL
REMARK 924 INTRA-LIGAND FREE ENERGY PREDICTED BY IDOCK:   -1.38 KCAL/MOL
REMARK 927      BINDING AFFINITY PREDICTED BY RF-SCORE:    0.00 PKD
ROOT
HETATM    1  C   UNL     1     -12.857  11.748  63.208  1.00  0.00    -0.224 C  
HETATM    2  C   UNL     1     -11.965  12.744  63.888  1.00  0.00    -0.554 A  
HETATM    3  C   UNL     1     -10.613  12.457  64.110  1.00  0.00    -0.414 A  
HETATM    4  C   UNL     1      -9.808  13.351  64.816  1.00  0.00    -0.021 A  
HETATM    5  C   UNL     1     -10.354  14.549  65.292  1.00  0.00    -0.410 A  
HETATM    6  C   UNL     1     -11.694  14.858  65.055  1.00  0.00    -0.329 A  
HETATM    7  C   UNL     1     -12.496  13.955  64.353  1.00  0.00    -0.321 A  
ENDROOT
BRANCH   5   8
HETATM    8  S   UNL     1      -9.389  15.602  66.350  1.00  0.00    -0.327 S  
HETATM    9  O   UNL     1      -9.342  16.905  65.717  1.00  0.00    -0.521 OA 
HETATM   10  O   UNL     1      -8.183  14.898  66.717  1.00  0.00    -0.191 OA 
BRANCH   8  11
HETATM   11  N   UNL     1     -10.312  15.717  67.714  1.00  0.00    -0.268 N  
HETATM   12  H   UNL     1     -11.080  16.388  67.672  1.00  0.00     0.000 HD 
BRANCH  11  13
HETATM   13  C   UNL     1     -10.184  15.022  68.915  1.00  0.00    -0.235 C  
HETATM   14  O   UNL     1      -9.975  15.661  69.938  1.00  0.00    -0.283 OA 
BRANCH  13  15
HETATM   15  N   UNL     1     -10.354  13.659  68.839  1.00  0.00    -0.397 N  
HETATM   16  H   UNL     1      -9.520  13.074  68.786  1.00  0.00     0.000 HD 
BRANCH  15  17
HETATM   17  N   UNL     1     -11.611  13.023  68.830  1.00  0.00    -0.288 NA 
HETATM   18  C   UNL     1     -11.856  12.278  67.579  1.00  0.00    -0.261 C  
HETATM   19  C   UNL     1     -11.464  10.813  67.812  1.00  0.00    -0.283 C  
HETATM   20  C   UNL     1     -10.215  10.357  67.064  1.00  0.00    -0.277 C  
HETATM   21  C   UNL     1      -9.057  10.786  67.945  1.00  0.00    -0.150 C  
HETATM   22  C   UNL     1      -9.578  10.576  69.361  1.00  0.00    -0.170 C  
HETATM   23  C   UNL     1     -11.109  10.720  69.298  1.00  0.00    -0.312 C  
HETATM   24  C   UNL     1     -11.686  12.002  69.892  1.00  0.00    -0.299 C  
ENDBRANCH  15  17
ENDBRANCH  13  15
ENDBRANCH  11  13
ENDBRANCH   8  11
ENDBRANCH   5   8
TORSDOF 5
ENDMDL
MODEL       59
REMARK 921   NORMALIZED FREE ENERGY PREDICTED BY IDOCK:   -5.52 KCAL/MOL
REMARK 922        TOTAL FREE ENERGY PREDICTED BY IDOCK:   -7.92 KCAL/MOL
REMARK 923 INTER-LIGAND FREE ENERGY PREDICTED BY IDOCK:   -7.19 KCAL/MOL
REMARK 924 INTRA-LIGAND FREE ENERGY PREDICTED BY IDOCK:   -0.72 KCAL/MOL
REMARK 927      BINDING AFFINITY PREDICTED BY RF-SCORE:    0.00 PKD
ROOT
HETATM    1  C   UNL     1     -13.937   9.081  72.455  1.00  0.00    -0.517 C  
HETATM    2  C   UNL     1     -12.798   9.538  71.592  1.00  0.00    -0.483 A  
HETATM    3  C   UNL     1     -12.951  10.625  70.724  1.00  0.00    -0.396 A  
HETATM    4  C   UNL     1     -11.916  10.993  69.864  1.00  0.00    -0.427 A  
HETATM    5  C   UNL     1     -10.712  10.279  69.882  1.00  0.00    -0.294 A  
HETATM    6  C   UNL     1     -10.539   9.209  70.761  1.00  0.00    -0.324 A  
HETATM    7  C   UNL     1     -11.581   8.841  71.614  1.00  0.00    -0.390 A  
ENDROOT
BRANCH   5   8
HETATM    8  S   UNL     1      -9.463  10.619  68.664  1.00  0.00    -0.183 S  
HETATM    9  O   UNL     1      -8.242   9.992  69.127  1.00  0.00    -0.115 OA 
HETATM   10  O   UNL     1      -9.513  12.027  68.341  1.00  0.00    -0.201 OA 
BRANCH   8  11
HETATM   11  N   UNL     1      -9.997   9.802  67.333  1.00  0.00    -0.180 N  
HETATM   12  H   UNL     1     -10.452   8.907  67.517  1.00  0.00     0.000 HD 
BRANCH  11  13
HETATM   13  C   UNL     1      -9.911  10.169  65.991  1.00  0.00    -0.256 C  
HETATM   14  O   UNL     1      -9.021   9.679  65.310  1.00  0.00    -0.175 OA 
BRANCH  13  15
HETATM   15  N   UNL     1     -10.885  11.032  65.543  1.00  0.00    -0.148 N  
HETATM   16  H   UNL     1     -11.635  11.285  66.187  1.00  0.00     0.000 HD 
BRANCH  15  17
HETATM   17  N   UNL     1     -10.908  11.587  64.249  1.00  0.00    -0.347 NA 
HETATM   18  C   UNL     1     -12.201  12.227  63.933  1.00  0.00    -0.515 C  
HETATM   19  C   UNL     1     -12.076  13.727  64.237  1.00  0.00    -0.481 C  
HETATM   20  C   UNL     1     -12.882  14.206  65.440  1.00  0.00    -0.393 C  
HETATM   21  C   UNL     1     -12.001  13.911  66.639  1.00  0.00    -0.474 C  
HETATM   22  C   UNL     1     -10.590  14.185  66.133  1.00  0.00    -0.293 C  
HETATM   23  C   UNL     1     -10.609  13.943  64.613  1.00  0.00    -0.432 C  
HETATM   24  C   UNL     1      -9.916  12.672  64.130  1.00  0.00    -0.170 C  
ENDBRANCH  15  17
ENDBRANCH  13  15
ENDBRANCH  11  13
ENDBRANCH   8  11
ENDBRANCH   5   8
TORSDOF 5
ENDMDL
MODEL       60
REMARK 921   NORMALIZED FREE ENERGY PREDICTED BY IDOCK:   -5.52 KCAL/MOL
REMARK 922        TOTAL FREE ENERGY PREDICTED BY IDOCK:   -7.91 KCAL/MOL
REMARK 923 INTER-LIGAND FREE ENERGY PREDICTED BY IDOCK:   -7.13 KCAL/MOL
REMARK 924 INTRA-LIGAND FREE ENERGY PREDICTED BY IDOCK:   -0.78 KCAL/MOL
REMARK 927      BINDING AFFINITY PREDICTED BY RF-SCORE:    0.00 PKD
ROOT
HETATM    1  C   UNL     1     -10.653   4.813  66.264  1.00  0.00    -0.246 C  
HETATM    2  C   UNL     1     -10.591   6.015  67.159  1.00  0.00    -0.374 A  
HETATM    3  C   UNL     1     -10.823   5.895  68.535  1.00  0.00    -0.323 A  
HETATM    4  C   UNL     1     -10.846   7.028  69.348  1.00  0.00    -0.253 A  
HETATM    5  C   UNL     1     -10.621   8.291  68.786  1.00  0.00    -0.123 A  
HETATM    6  C   UNL     1     -10.363   8.420  67.420  1.00  0.00    -0.355 A  
HETATM    7  C   UNL     1     -10.348   7.283  66.611  1.00  0.00    -0.229 A  
ENDROOT
BRANCH   5   8
HETATM    8  S   UNL     1     -10.834   9.751  69.776  1.00  0.00    -0.270 S  
HETATM    9  O   UNL     1      -9.565  10.452  69.772  1.00  0.00    -0.165 OA 
HETATM   10  O   UNL     1     -11.483   9.374  71.011  1.00  0.00    -0.281 OA 
BRANCH   8  11
HETATM   11  N   UNL     1     -11.924  10.640  68.912  1.00  0.00    -0.514 N  
HETATM   12  H   UNL     1     -12.754  10.136  68.598  1.00  0.00     0.000 HD 
BRANCH  11  13
HETATM   13  C   UNL     1     -11.864  11.985  68.553  1.00  0.00    -0.311 C  
HETATM   14  O   UNL     1     -12.026  12.828  69.426  1.00  0.00    -0.301 OA 
BRANCH  13  15
HETATM   15  N   UNL     1     -11.578  12.240  67.232  1.00  0.00    -0.354 N  
HETATM   16  H   UNL     1     -12.348  12.220  66.562  1.00  0.00     0.000 HD 
BRANCH  15  17
HETATM   17  N   UNL     1     -10.287  12.526  66.748  1.00  0.00    -0.225 NA 
HETATM   18  C   UNL     1      -9.930  11.704  65.575  1.00  0.00    -0.242 C  
HETATM   19  C   UNL     1     -10.244  12.515  64.311  1.00  0.00    -0.359 C  
HETATM   20  C   UNL     1     -11.421  11.994  63.492  1.00  0.00    -0.536 C  
HETATM   21  C   UNL     1     -12.649  12.589  64.155  1.00  0.00    -0.474 C  
HETATM   22  C   UNL     1     -12.194  13.977  64.590  1.00  0.00    -0.460 C  
HETATM   23  C   UNL     1     -10.673  13.896  64.812  1.00  0.00    -0.437 C  
HETATM   24  C   UNL     1     -10.208  13.917  66.265  1.00  0.00    -0.297 C  
ENDBRANCH  15  17
ENDBRANCH  13  15
ENDBRANCH  11  13
ENDBRANCH   8  11
ENDBRANCH   5   8
TORSDOF 5
ENDMDL
MODEL       61
REMARK 921   NORMALIZED FREE ENERGY PREDICTED BY IDOCK:   -5.51 KCAL/MOL
REMARK 922        TOTAL FREE ENERGY PREDICTED BY IDOCK:   -7.90 KCAL/MOL
REMARK 923 INTER-LIGAND FREE ENERGY PREDICTED BY IDOCK:   -6.93 KCAL/MOL
REMARK 924 INTRA-LIGAND FREE ENERGY PREDICTED BY IDOCK:   -0.97 KCAL/MOL
REMARK 927      BINDING AFFINITY PREDICTED BY RF-SCORE:    0.00 PKD
ROOT
HETATM    1  C   UNL     1     -13.035  12.277  63.993  1.00  0.00    -0.296 C  
HETATM    2  C   UNL     1     -11.905  12.697  64.886  1.00  0.00    -0.436 A  
HETATM    3  C   UNL     1     -11.784  12.175  66.179  1.00  0.00    -0.384 A  
HETATM    4  C   UNL     1     -10.780  12.632  67.033  1.00  0.00    -0.268 A  
HETATM    5  C   UNL     1      -9.880  13.607  66.588  1.00  0.00    -0.284 A  
HETATM    6  C   UNL     1      -9.975  14.117  65.292  1.00  0.00    -0.295 A  
HETATM    7  C   UNL     1     -10.986  13.660  64.444  1.00  0.00    -0.379 A  
ENDROOT
BRANCH   5   8
HETATM    8  S   UNL     1      -8.721  14.328  67.726  1.00  0.00    -0.192 S  
HETATM    9  O   UNL     1      -7.860  15.202  66.954  1.00  0.00    -0.201 OA 
HETATM   10  O   UNL     1      -8.179  13.275  68.553  1.00  0.00    -0.147 OA 
BRANCH   8  11
HETATM   11  N   UNL     1      -9.674  15.261  68.699  1.00  0.00    -0.205 N  
HETATM   12  H   UNL     1      -9.502  15.173  69.701  1.00  0.00     0.000 HD 
BRANCH  11  13
HETATM   13  C   UNL     1     -10.683  16.152  68.337  1.00  0.00    -0.298 C  
HETATM   14  O   UNL     1     -11.795  16.001  68.825  1.00  0.00    -0.375 OA 
BRANCH  13  15
HETATM   15  N   UNL     1     -10.310  17.163  67.482  1.00  0.00    -0.331 N  
HETATM   16  H   UNL     1      -9.620  16.952  66.762  1.00  0.00     0.000 HD 
BRANCH  15  17
HETATM   17  N   UNL     1     -10.825  18.472  67.542  1.00  0.00    -0.376 NA 
HETATM   18  C   UNL     1     -10.193  19.277  68.607  1.00  0.00    -0.355 C  
HETATM   19  C   UNL     1      -9.052  20.088  67.979  1.00  0.00    -0.348 C  
HETATM   20  C   UNL     1      -7.651  19.648  68.390  1.00  0.00    -0.362 C  
HETATM   21  C   UNL     1      -7.317  18.496  67.461  1.00  0.00    -0.223 C  
HETATM   22  C   UNL     1      -7.954  18.899  66.137  1.00  0.00    -0.256 C  
HETATM   23  C   UNL     1      -9.142  19.816  66.475  1.00  0.00    -0.450 C  
HETATM   24  C   UNL     1     -10.530  19.206  66.298  1.00  0.00    -0.467 C  
ENDBRANCH  15  17
ENDBRANCH  13  15
ENDBRANCH  11  13
ENDBRANCH   8  11
ENDBRANCH   5   8
TORSDOF 5
ENDMDL
MODEL       62
REMARK 921   NORMALIZED FREE ENERGY PREDICTED BY IDOCK:   -5.48 KCAL/MOL
REMARK 922        TOTAL FREE ENERGY PREDICTED BY IDOCK:   -7.86 KCAL/MOL
REMARK 923 INTER-LIGAND FREE ENERGY PREDICTED BY IDOCK:   -7.33 KCAL/MOL
REMARK 924 INTRA-LIGAND FREE ENERGY PREDICTED BY IDOCK:   -0.53 KCAL/MOL
REMARK 927      BINDING AFFINITY PREDICTED BY RF-SCORE:    0.00 PKD
ROOT
HETATM    1  C   UNL     1     -12.591  11.927  63.184  1.00  0.00    -0.329 C  
HETATM    2  C   UNL     1     -12.105  12.400  64.522  1.00  0.00    -0.492 A  
HETATM    3  C   UNL     1     -11.040  11.757  65.164  1.00  0.00    -0.341 A  
HETATM    4  C   UNL     1     -10.647  12.150  66.443  1.00  0.00    -0.275 A  
HETATM    5  C   UNL     1     -11.313  13.201  67.083  1.00  0.00    -0.316 A  
HETATM    6  C   UNL     1     -12.361  13.866  66.443  1.00  0.00    -0.468 A  
HETATM    7  C   UNL     1     -12.753  13.465  65.165  1.00  0.00    -0.459 A  
ENDROOT
BRANCH   5   8
HETATM    8  S   UNL     1     -10.945  13.581  68.779  1.00  0.00    -0.259 S  
HETATM    9  O   UNL     1     -12.160  14.111  69.366  1.00  0.00    -0.316 OA 
HETATM   10  O   UNL     1      -9.704  14.319  68.823  1.00  0.00    -0.221 OA 
BRANCH   8  11
HETATM   11  N   UNL     1     -10.647  12.100  69.444  1.00  0.00    -0.434 N  
HETATM   12  H   UNL     1      -9.665  11.826  69.490  1.00  0.00     0.000 HD 
BRANCH  11  13
HETATM   13  C   UNL     1     -11.556  11.172  69.951  1.00  0.00    -0.337 C  
HETATM   14  O   UNL     1     -12.430  11.569  70.710  1.00  0.00    -0.362 OA 
BRANCH  13  15
HETATM   15  N   UNL     1     -11.405   9.880  69.504  1.00  0.00    -0.398 N  
HETATM   16  H   UNL     1     -12.181   9.454  68.998  1.00  0.00     0.000 HD 
BRANCH  15  17
HETATM   17  N   UNL     1     -10.242   9.111  69.703  1.00  0.00    -0.195 NA 
HETATM   18  C   UNL     1      -9.808   9.102  71.115  1.00  0.00    -0.301 C  
HETATM   19  C   UNL     1     -10.380   7.843  71.781  1.00  0.00    -0.260 C  
HETATM   20  C   UNL     1     -11.478   8.104  72.807  1.00  0.00    -0.397 C  
HETATM   21  C   UNL     1     -12.751   8.225  71.991  1.00  0.00    -0.376 C  
HETATM   22  C   UNL     1     -12.566   7.206  70.873  1.00  0.00    -0.268 C  
HETATM   23  C   UNL     1     -11.051   7.057  70.653  1.00  0.00    -0.307 C  
HETATM   24  C   UNL     1     -10.494   7.693  69.383  1.00  0.00    -0.220 C  
ENDBRANCH  15  17
ENDBRANCH  13  15
ENDBRANCH  11  13
ENDBRANCH   8  11
ENDBRANCH   5   8
TORSDOF 5
ENDMDL
MODEL       63
REMARK 921   NORMALIZED FREE ENERGY PREDICTED BY IDOCK:   -5.47 KCAL/MOL
REMARK 922        TOTAL FREE ENERGY PREDICTED BY IDOCK:   -7.85 KCAL/MOL
REMARK 923 INTER-LIGAND FREE ENERGY PREDICTED BY IDOCK:   -7.03 KCAL/MOL
REMARK 924 INTRA-LIGAND FREE ENERGY PREDICTED BY IDOCK:   -0.82 KCAL/MOL
REMARK 927      BINDING AFFINITY PREDICTED BY RF-SCORE:    0.00 PKD
ROOT
HETATM    1  C   UNL     1     -10.533  19.897  66.327  1.00  0.00    -0.590 C  
HETATM    2  C   UNL     1      -9.672  18.786  66.851  1.00  0.00    -0.344 A  
HETATM    3  C   UNL     1      -8.611  18.284  66.088  1.00  0.00    -0.127 A  
HETATM    4  C   UNL     1      -7.866  17.197  66.546  1.00  0.00    -0.325 A  
HETATM    5  C   UNL     1      -8.174  16.614  67.781  1.00  0.00    -0.177 A  
HETATM    6  C   UNL     1      -9.213  17.123  68.561  1.00  0.00    -0.264 A  
HETATM    7  C   UNL     1      -9.959  18.207  68.095  1.00  0.00    -0.368 A  
ENDROOT
BRANCH   5   8
HETATM    8  S   UNL     1      -7.357  15.118  68.282  1.00  0.00    -0.121 S  
HETATM    9  O   UNL     1      -7.081  15.243  69.699  1.00  0.00    -0.179 OA 
HETATM   10  O   UNL     1      -6.307  14.831  67.332  1.00  0.00    -0.320 OA 
BRANCH   8  11
HETATM   11  N   UNL     1      -8.519  13.964  68.077  1.00  0.00    -0.162 N  
HETATM   12  H   UNL     1      -9.151  13.827  68.867  1.00  0.00     0.000 HD 
BRANCH  11  13
HETATM   13  C   UNL     1      -8.755  13.150  66.970  1.00  0.00    -0.189 C  
HETATM   14  O   UNL     1      -8.373  11.988  67.010  1.00  0.00    -0.170 OA 
BRANCH  13  15
HETATM   15  N   UNL     1      -9.450  13.734  65.935  1.00  0.00    -0.506 N  
HETATM   16  H   UNL     1      -9.277  13.392  64.990  1.00  0.00     0.000 HD 
BRANCH  15  17
HETATM   17  N   UNL     1     -10.384  14.774  66.104  1.00  0.00    -0.291 NA 
HETATM   18  C   UNL     1     -10.913  15.270  64.818  1.00  0.00    -0.386 C  
HETATM   19  C   UNL     1     -12.237  14.547  64.536  1.00  0.00    -0.483 C  
HETATM   20  C   UNL     1     -12.191  13.553  63.380  1.00  0.00    -0.338 C  
HETATM   21  C   UNL     1     -11.645  12.275  63.989  1.00  0.00    -0.495 C  
HETATM   22  C   UNL     1     -12.254  12.247  65.386  1.00  0.00    -0.279 C  
HETATM   23  C   UNL     1     -12.514  13.709  65.787  1.00  0.00    -0.524 C  
HETATM   24  C   UNL     1     -11.572  14.294  66.834  1.00  0.00    -0.387 C  
ENDBRANCH  15  17
ENDBRANCH  13  15
ENDBRANCH  11  13
ENDBRANCH   8  11
ENDBRANCH   5   8
TORSDOF 5
ENDMDL
MODEL       64
REMARK 921   NORMALIZED FREE ENERGY PREDICTED BY IDOCK:   -5.47 KCAL/MOL
REMARK 922        TOTAL FREE ENERGY PREDICTED BY IDOCK:   -7.85 KCAL/MOL
REMARK 923 INTER-LIGAND FREE ENERGY PREDICTED BY IDOCK:   -7.19 KCAL/MOL
REMARK 924 INTRA-LIGAND FREE ENERGY PREDICTED BY IDOCK:   -0.65 KCAL/MOL
REMARK 927      BINDING AFFINITY PREDICTED BY RF-SCORE:    0.00 PKD
ROOT
HETATM    1  C   UNL     1     -12.703  16.044  73.931  1.00  0.00    -0.706 C  
HETATM    2  C   UNL     1     -12.503  15.401  72.591  1.00  0.00    -0.480 A  
HETATM    3  C   UNL     1     -13.037  14.136  72.318  1.00  0.00    -0.514 A  
HETATM    4  C   UNL     1     -12.777  13.508  71.099  1.00  0.00    -0.425 A  
HETATM    5  C   UNL     1     -11.990  14.155  70.139  1.00  0.00    -0.332 A  
HETATM    6  C   UNL     1     -11.473  15.427  70.390  1.00  0.00    -0.355 A  
HETATM    7  C   UNL     1     -11.732  16.047  71.614  1.00  0.00    -0.583 A  
ENDROOT
BRANCH   5   8
HETATM    8  S   UNL     1     -11.500  13.288  68.667  1.00  0.00    -0.327 S  
HETATM    9  O   UNL     1     -10.051  13.264  68.655  1.00  0.00    -0.221 OA 
HETATM   10  O   UNL     1     -12.255  13.817  67.554  1.00  0.00    -0.355 OA 
BRANCH   8  11
HETATM   11  N   UNL     1     -12.046  11.753  68.931  1.00  0.00    -0.261 N  
HETATM   12  H   UNL     1     -13.015  11.676  69.240  1.00  0.00     0.000 HD 
BRANCH  11  13
HETATM   13  C   UNL     1     -11.361  10.547  68.788  1.00  0.00    -0.249 C  
HETATM   14  O   UNL     1     -11.115   9.895  69.794  1.00  0.00    -0.239 OA 
BRANCH  13  15
HETATM   15  N   UNL     1     -11.062  10.177  67.497  1.00  0.00    -0.367 N  
HETATM   16  H   UNL     1     -11.779  10.307  66.783  1.00  0.00     0.000 HD 
BRANCH  15  17
HETATM   17  N   UNL     1      -9.826   9.630  67.103  1.00  0.00    -0.176 NA 
HETATM   18  C   UNL     1      -9.862   9.089  65.729  1.00  0.00    -0.111 C  
HETATM   19  C   UNL     1      -9.334  10.170  64.777  1.00  0.00    -0.324 C  
HETATM   20  C   UNL     1     -10.386  10.783  63.857  1.00  0.00    -0.329 C  
HETATM   21  C   UNL     1     -11.046  11.866  64.690  1.00  0.00    -0.373 C  
HETATM   22  C   UNL     1      -9.901  12.438  65.518  1.00  0.00    -0.215 C  
HETATM   23  C   UNL     1      -8.865  11.312  65.681  1.00  0.00    -0.124 C  
HETATM   24  C   UNL     1      -8.784  10.673  67.064  1.00  0.00    -0.128 C  
ENDBRANCH  15  17
ENDBRANCH  13  15
ENDBRANCH  11  13
ENDBRANCH   8  11
ENDBRANCH   5   8
TORSDOF 5
ENDMDL
MODEL       65
REMARK 921   NORMALIZED FREE ENERGY PREDICTED BY IDOCK:   -5.46 KCAL/MOL
REMARK 922        TOTAL FREE ENERGY PREDICTED BY IDOCK:   -7.84 KCAL/MOL
REMARK 923 INTER-LIGAND FREE ENERGY PREDICTED BY IDOCK:   -6.75 KCAL/MOL
REMARK 924 INTRA-LIGAND FREE ENERGY PREDICTED BY IDOCK:   -1.08 KCAL/MOL
REMARK 927      BINDING AFFINITY PREDICTED BY RF-SCORE:    0.00 PKD
ROOT
HETATM    1  C   UNL     1     -12.257  12.181  63.445  1.00  0.00    -0.635 C  
HETATM    2  C   UNL     1     -11.879  13.205  64.473  1.00  0.00    -0.427 A  
HETATM    3  C   UNL     1     -10.849  14.120  64.226  1.00  0.00    -0.056 A  
HETATM    4  C   UNL     1     -10.447  15.015  65.218  1.00  0.00    -0.428 A  
HETATM    5  C   UNL     1     -11.089  15.007  66.462  1.00  0.00    -0.329 A  
HETATM    6  C   UNL     1     -12.135  14.117  66.711  1.00  0.00    -0.474 A  
HETATM    7  C   UNL     1     -12.528  13.220  65.717  1.00  0.00    -0.480 A  
ENDROOT
BRANCH   5   8
HETATM    8  S   UNL     1     -10.462  16.010  67.788  1.00  0.00    -0.305 S  
HETATM    9  O   UNL     1     -11.587  16.328  68.644  1.00  0.00    -0.355 OA 
HETATM   10  O   UNL     1      -9.629  17.046  67.222  1.00  0.00    -0.237 OA 
BRANCH   8  11
HETATM   11  N   UNL     1      -9.461  14.980  68.602  1.00  0.00    -0.205 N  
HETATM   12  H   UNL     1      -9.281  15.219  69.578  1.00  0.00     0.000 HD 
BRANCH  11  13
HETATM   13  C   UNL     1      -8.828  13.829  68.137  1.00  0.00    -0.185 C  
HETATM   14  O   UNL     1      -7.844  13.955  67.421  1.00  0.00    -0.173 OA 
BRANCH  13  15
HETATM   15  N   UNL     1      -9.358  12.636  68.574  1.00  0.00    -0.381 N  
HETATM   16  H   UNL     1     -10.002  12.660  69.364  1.00  0.00     0.000 HD 
BRANCH  15  17
HETATM   17  N   UNL     1      -9.063  11.387  67.996  1.00  0.00    -0.164 NA 
HETATM   18  C   UNL     1      -8.867  10.330  69.008  1.00  0.00    -0.168 C  
HETATM   19  C   UNL     1     -10.198   9.586  69.183  1.00  0.00    -0.209 C  
HETATM   20  C   UNL     1     -10.892   9.821  70.521  1.00  0.00    -0.387 C  
HETATM   21  C   UNL     1     -11.663  11.114  70.335  1.00  0.00    -0.415 C  
HETATM   22  C   UNL     1     -12.143  11.050  68.890  1.00  0.00    -0.239 C  
HETATM   23  C   UNL     1     -11.134  10.175  68.126  1.00  0.00    -0.290 C  
HETATM   24  C   UNL     1     -10.194  10.913  67.176  1.00  0.00    -0.210 C  
ENDBRANCH  15  17
ENDBRANCH  13  15
ENDBRANCH  11  13
ENDBRANCH   8  11
ENDBRANCH   5   8
TORSDOF 5
ENDMDL
MODEL       66
REMARK 921   NORMALIZED FREE ENERGY PREDICTED BY IDOCK:   -5.46 KCAL/MOL
REMARK 922        TOTAL FREE ENERGY PREDICTED BY IDOCK:   -7.84 KCAL/MOL
REMARK 923 INTER-LIGAND FREE ENERGY PREDICTED BY IDOCK:   -6.81 KCAL/MOL
REMARK 924 INTRA-LIGAND FREE ENERGY PREDICTED BY IDOCK:   -1.02 KCAL/MOL
REMARK 927      BINDING AFFINITY PREDICTED BY RF-SCORE:    0.00 PKD
ROOT
HETATM    1  C   UNL     1     -12.482  15.479  72.544  1.00  0.00    -0.502 C  
HETATM    2  C   UNL     1     -12.204  14.921  71.180  1.00  0.00    -0.380 A  
HETATM    3  C   UNL     1     -11.875  15.767  70.115  1.00  0.00    -0.369 A  
HETATM    4  C   UNL     1     -11.699  15.251  68.831  1.00  0.00    -0.362 A  
HETATM    5  C   UNL     1     -11.839  13.875  68.611  1.00  0.00    -0.372 A  
HETATM    6  C   UNL     1     -12.142  13.018  69.670  1.00  0.00    -0.304 A  
HETATM    7  C   UNL     1     -12.323  13.542  70.951  1.00  0.00    -0.437 A  
ENDROOT
BRANCH   5   8
HETATM    8  S   UNL     1     -11.803  13.236  66.953  1.00  0.00    -0.383 S  
HETATM    9  O   UNL     1     -12.569  14.152  66.132  1.00  0.00    -0.465 OA 
HETATM   10  O   UNL     1     -12.114  11.826  67.001  1.00  0.00    -0.575 OA 
BRANCH   8  11
HETATM   11  N   UNL     1     -10.212  13.363  66.532  1.00  0.00    -0.276 N  
HETATM   12  H   UNL     1     -10.032  13.656  65.571  1.00  0.00     0.000 HD 
BRANCH  11  13
HETATM   13  C   UNL     1      -9.081  13.125  67.311  1.00  0.00    -0.217 C  
HETATM   14  O   UNL     1      -9.061  12.125  68.016  1.00  0.00    -0.177 OA 
BRANCH  13  15
HETATM   15  N   UNL     1      -8.057  14.034  67.174  1.00  0.00    -0.343 N  
HETATM   16  H   UNL     1      -7.878  14.417  66.246  1.00  0.00     0.000 HD 
BRANCH  15  17
HETATM   17  N   UNL     1      -7.242  14.465  68.238  1.00  0.00    -0.110 NA 
HETATM   18  C   UNL     1      -6.096  15.274  67.778  1.00  0.00    -0.149 C  
HETATM   19  C   UNL     1      -6.485  16.755  67.885  1.00  0.00    -0.151 C  
HETATM   20  C   UNL     1      -6.677  17.465  66.549  1.00  0.00    -0.284 C  
HETATM   21  C   UNL     1      -8.101  17.142  66.139  1.00  0.00    -0.283 C  
HETATM   22  C   UNL     1      -8.868  17.138  67.457  1.00  0.00    -0.218 C  
HETATM   23  C   UNL     1      -7.860  16.765  68.557  1.00  0.00    -0.229 C  
HETATM   24  C   UNL     1      -7.992  15.361  69.138  1.00  0.00    -0.222 C  
ENDBRANCH  15  17
ENDBRANCH  13  15
ENDBRANCH  11  13
ENDBRANCH   8  11
ENDBRANCH   5   8
TORSDOF 5
ENDMDL
MODEL       67
REMARK 921   NORMALIZED FREE ENERGY PREDICTED BY IDOCK:   -5.46 KCAL/MOL
REMARK 922        TOTAL FREE ENERGY PREDICTED BY IDOCK:   -7.83 KCAL/MOL
REMARK 923 INTER-LIGAND FREE ENERGY PREDICTED BY IDOCK:   -6.79 KCAL/MOL
REMARK 924 INTRA-LIGAND FREE ENERGY PREDICTED BY IDOCK:   -1.04 KCAL/MOL
REMARK 927      BINDING AFFINITY PREDICTED BY RF-SCORE:    0.00 PKD
ROOT
HETATM    1  C   UNL     1     -11.711  14.444  67.678  1.00  0.00    -0.421 C  
HETATM    2  C   UNL     1     -11.908  13.279  68.602  1.00  0.00    -0.380 A  
HETATM    3  C   UNL     1     -12.200  13.481  69.956  1.00  0.00    -0.381 A  
HETATM    4  C   UNL     1     -12.300  12.396  70.826  1.00  0.00    -0.377 A  
HETATM    5  C   UNL     1     -12.120  11.096  70.339  1.00  0.00    -0.385 A  
HETATM    6  C   UNL     1     -11.853  10.880  68.986  1.00  0.00    -0.370 A  
HETATM    7  C   UNL     1     -11.748  11.971  68.121  1.00  0.00    -0.398 A  
ENDROOT
BRANCH   5   8
HETATM    8  S   UNL     1     -12.058   9.727  71.470  1.00  0.00    -0.406 S  
HETATM    9  O   UNL     1     -13.147   9.907  72.409  1.00  0.00    -0.372 OA 
HETATM   10  O   UNL     1     -10.694   9.566  71.918  1.00  0.00    -0.177 OA 
BRANCH   8  11
HETATM   11  N   UNL     1     -12.405   8.427  70.512  1.00  0.00    -0.395 N  
HETATM   12  H   UNL     1     -12.879   8.640  69.634  1.00  0.00     0.000 HD 
BRANCH  11  13
HETATM   13  C   UNL     1     -12.138   7.078  70.741  1.00  0.00    -0.327 C  
HETATM   14  O   UNL     1     -12.443   6.601  71.826  1.00  0.00    -0.352 OA 
BRANCH  13  15
HETATM   15  N   UNL     1     -11.585   6.390  69.686  1.00  0.00    -0.598 N  
HETATM   16  H   UNL     1     -12.066   6.424  68.787  1.00  0.00     0.000 HD 
BRANCH  15  17
HETATM   17  N   UNL     1     -10.396   5.641  69.773  1.00  0.00    -0.255 NA 
HETATM   18  C   UNL     1      -9.948   5.141  68.458  1.00  0.00    -0.154 C  
HETATM   19  C   UNL     1      -8.917   6.130  67.898  1.00  0.00    -0.112 C  
HETATM   20  C   UNL     1      -9.391   6.936  66.692  1.00  0.00    -0.198 C  
HETATM   21  C   UNL     1     -10.160   8.102  67.284  1.00  0.00    -0.309 C  
HETATM   22  C   UNL     1      -9.383   8.447  68.549  1.00  0.00    -0.139 C  
HETATM   23  C   UNL     1      -8.691   7.154  69.012  1.00  0.00    -0.132 C  
HETATM   24  C   UNL     1      -9.283   6.484  70.249  1.00  0.00    -0.155 C  
ENDBRANCH  15  17
ENDBRANCH  13  15
ENDBRANCH  11  13
ENDBRANCH   8  11
ENDBRANCH   5   8
TORSDOF 5
ENDMDL
MODEL       68
REMARK 921   NORMALIZED FREE ENERGY PREDICTED BY IDOCK:   -5.46 KCAL/MOL
REMARK 922        TOTAL FREE ENERGY PREDICTED BY IDOCK:   -7.83 KCAL/MOL
REMARK 923 INTER-LIGAND FREE ENERGY PREDICTED BY IDOCK:   -6.81 KCAL/MOL
REMARK 924 INTRA-LIGAND FREE ENERGY PREDICTED BY IDOCK:   -1.02 KCAL/MOL
REMARK 927      BINDING AFFINITY PREDICTED BY RF-SCORE:    0.00 PKD
ROOT
HETATM    1  C   UNL     1      -7.652  19.738  66.911  1.00  0.00    -0.287 C  
HETATM    2  C   UNL     1      -8.582  18.618  66.549  1.00  0.00    -0.307 A  
HETATM    3  C   UNL     1      -8.112  17.304  66.446  1.00  0.00    -0.328 A  
HETATM    4  C   UNL     1      -8.963  16.281  66.028  1.00  0.00    -0.325 A  
HETATM    5  C   UNL     1     -10.298  16.569  65.724  1.00  0.00    -0.341 A  
HETATM    6  C   UNL     1     -10.785  17.871  65.847  1.00  0.00    -0.116 A  
HETATM    7  C   UNL     1      -9.927  18.892  66.260  1.00  0.00    -0.429 A  
ENDROOT
BRANCH   5   8
HETATM    8  S   UNL     1     -11.335  15.313  65.014  1.00  0.00    -0.321 S  
HETATM    9  O   UNL     1     -12.016  15.917  63.886  1.00  0.00    -0.730 OA 
HETATM   10  O   UNL     1     -12.068  14.669  66.080  1.00  0.00    -0.318 OA 
BRANCH   8  11
HETATM   11  N   UNL     1     -10.253  14.207  64.439  1.00  0.00    -0.543 N  
HETATM   12  H   UNL     1      -9.356  14.585  64.132  1.00  0.00     0.000 HD 
BRANCH  11  13
HETATM   13  C   UNL     1     -10.398  12.826  64.316  1.00  0.00    -0.377 C  
HETATM   14  O   UNL     1     -11.212  12.396  63.510  1.00  0.00    -0.437 OA 
BRANCH  13  15
HETATM   15  N   UNL     1      -9.561  12.064  65.099  1.00  0.00    -0.420 N  
HETATM   16  H   UNL     1      -8.565  12.282  65.088  1.00  0.00     0.000 HD 
BRANCH  15  17
HETATM   17  N   UNL     1      -9.998  11.002  65.914  1.00  0.00    -0.230 NA 
HETATM   18  C   UNL     1      -8.903  10.418  66.713  1.00  0.00    -0.130 C  
HETATM   19  C   UNL     1      -8.920  11.077  68.099  1.00  0.00    -0.152 C  
HETATM   20  C   UNL     1      -7.744  12.007  68.381  1.00  0.00    -0.138 C  
HETATM   21  C   UNL     1      -8.144  13.335  67.766  1.00  0.00    -0.166 C  
HETATM   22  C   UNL     1      -9.645  13.418  68.020  1.00  0.00    -0.219 C  
HETATM   23  C   UNL     1     -10.162  11.972  68.107  1.00  0.00    -0.203 C  
HETATM   24  C   UNL     1     -10.974  11.479  66.912  1.00  0.00    -0.296 C  
ENDBRANCH  15  17
ENDBRANCH  13  15
ENDBRANCH  11  13
ENDBRANCH   8  11
ENDBRANCH   5   8
TORSDOF 5
ENDMDL
MODEL       69
REMARK 921   NORMALIZED FREE ENERGY PREDICTED BY IDOCK:   -5.46 KCAL/MOL
REMARK 922        TOTAL FREE ENERGY PREDICTED BY IDOCK:   -7.83 KCAL/MOL
REMARK 923 INTER-LIGAND FREE ENERGY PREDICTED BY IDOCK:   -7.08 KCAL/MOL
REMARK 924 INTRA-LIGAND FREE ENERGY PREDICTED BY IDOCK:   -0.75 KCAL/MOL
REMARK 927      BINDING AFFINITY PREDICTED BY RF-SCORE:    0.00 PKD
ROOT
HETATM    1  C   UNL     1     -12.908  11.845  63.365  1.00  0.00    -0.393 C  
HETATM    2  C   UNL     1     -11.972  12.133  64.502  1.00  0.00    -0.415 A  
HETATM    3  C   UNL     1     -12.313  13.063  65.490  1.00  0.00    -0.527 A  
HETATM    4  C   UNL     1     -11.405  13.387  66.498  1.00  0.00    -0.346 A  
HETATM    5  C   UNL     1     -10.151  12.766  66.528  1.00  0.00    -0.258 A  
HETATM    6  C   UNL     1      -9.809  11.818  65.562  1.00  0.00    -0.262 A  
HETATM    7  C   UNL     1     -10.720  11.503  64.552  1.00  0.00    -0.390 A  
ENDROOT
BRANCH   5   8
HETATM    8  S   UNL     1      -8.922  13.308  67.692  1.00  0.00    -0.212 S  
HETATM    9  O   UNL     1      -7.984  12.216  67.854  1.00  0.00    -0.129 OA 
HETATM   10  O   UNL     1      -9.596  13.898  68.826  1.00  0.00    -0.177 OA 
BRANCH   8  11
HETATM   11  N   UNL     1      -8.160  14.537  66.895  1.00  0.00    -0.377 N  
HETATM   12  H   UNL     1      -8.010  14.389  65.896  1.00  0.00     0.000 HD 
BRANCH  11  13
HETATM   13  C   UNL     1      -7.693  15.749  67.402  1.00  0.00    -0.183 C  
HETATM   14  O   UNL     1      -6.613  15.762  67.977  1.00  0.00    -0.115 OA 
BRANCH  13  15
HETATM   15  N   UNL     1      -8.490  16.844  67.161  1.00  0.00    -0.191 N  
HETATM   16  H   UNL     1      -8.036  17.748  67.031  1.00  0.00     0.000 HD 
BRANCH  15  17
HETATM   17  N   UNL     1      -9.895  16.792  67.084  1.00  0.00    -0.252 NA 
HETATM   18  C   UNL     1     -10.548  17.545  68.174  1.00  0.00    -0.366 C  
HETATM   19  C   UNL     1     -10.882  18.948  67.651  1.00  0.00    -0.407 C  
HETATM   20  C   UNL     1     -10.051  20.074  68.260  1.00  0.00    -0.531 C  
HETATM   21  C   UNL     1      -8.772  20.096  67.445  1.00  0.00    -0.425 C  
HETATM   22  C   UNL     1      -9.234  19.767  66.030  1.00  0.00    -0.338 C  
HETATM   23  C   UNL     1     -10.514  18.925  66.165  1.00  0.00    -0.521 C  
HETATM   24  C   UNL     1     -10.373  17.439  65.848  1.00  0.00    -0.269 C  
ENDBRANCH  15  17
ENDBRANCH  13  15
ENDBRANCH  11  13
ENDBRANCH   8  11
ENDBRANCH   5   8
TORSDOF 5
ENDMDL
MODEL       70
REMARK 921   NORMALIZED FREE ENERGY PREDICTED BY IDOCK:   -5.43 KCAL/MOL
REMARK 922        TOTAL FREE ENERGY PREDICTED BY IDOCK:   -7.79 KCAL/MOL
REMARK 923 INTER-LIGAND FREE ENERGY PREDICTED BY IDOCK:   -7.15 KCAL/MOL
REMARK 924 INTRA-LIGAND FREE ENERGY PREDICTED BY IDOCK:   -0.64 KCAL/MOL
REMARK 927      BINDING AFFINITY PREDICTED BY RF-SCORE:    0.00 PKD
ROOT
HETATM    1  C   UNL     1      -5.610  21.222  64.329  1.00  0.00    -0.193 C  
HETATM    2  C   UNL     1      -6.258  20.091  65.070  1.00  0.00    -0.308 A  
HETATM    3  C   UNL     1      -7.388  20.312  65.866  1.00  0.00    -0.245 A  
HETATM    4  C   UNL     1      -7.936  19.272  66.618  1.00  0.00    -0.288 A  
HETATM    5  C   UNL     1      -7.360  17.998  66.564  1.00  0.00    -0.238 A  
HETATM    6  C   UNL     1      -6.248  17.759  65.754  1.00  0.00    -0.202 A  
HETATM    7  C   UNL     1      -5.701  18.805  65.009  1.00  0.00    -0.287 A  
ENDROOT
BRANCH   5   8
HETATM    8  S   UNL     1      -7.933  16.720  67.658  1.00  0.00    -0.179 S  
HETATM    9  O   UNL     1      -7.714  17.193  69.009  1.00  0.00    -0.235 OA 
HETATM   10  O   UNL     1      -7.397  15.457  67.205  1.00  0.00    -0.204 OA 
BRANCH   8  11
HETATM   11  N   UNL     1      -9.559  16.680  67.376  1.00  0.00    -0.240 N  
HETATM   12  H   UNL     1     -10.138  17.167  68.061  1.00  0.00     0.000 HD 
BRANCH  11  13
HETATM   13  C   UNL     1     -10.248  16.071  66.328  1.00  0.00    -0.316 C  
HETATM   14  O   UNL     1     -10.489  16.733  65.328  1.00  0.00    -0.630 OA 
BRANCH  13  15
HETATM   15  N   UNL     1     -10.558  14.742  66.507  1.00  0.00    -0.293 N  
HETATM   16  H   UNL     1      -9.791  14.070  66.527  1.00  0.00     0.000 HD 
BRANCH  15  17
HETATM   17  N   UNL     1     -11.870  14.256  66.666  1.00  0.00    -0.408 NA 
HETATM   18  C   UNL     1     -12.635  14.278  65.403  1.00  0.00    -0.410 C  
HETATM   19  C   UNL     1     -12.530  12.889  64.758  1.00  0.00    -0.517 C  
HETATM   20  C   UNL     1     -11.694  12.835  63.484  1.00  0.00    -0.597 C  
HETATM   21  C   UNL     1     -10.261  12.698  63.964  1.00  0.00    -0.363 C  
HETATM   22  C   UNL     1     -10.374  11.806  65.195  1.00  0.00    -0.323 C  
HETATM   23  C   UNL     1     -11.781  12.025  65.776  1.00  0.00    -0.313 C  
HETATM   24  C   UNL     1     -11.854  12.837  67.067  1.00  0.00    -0.361 C  
ENDBRANCH  15  17
ENDBRANCH  13  15
ENDBRANCH  11  13
ENDBRANCH   8  11
ENDBRANCH   5   8
TORSDOF 5
ENDMDL
MODEL       71
REMARK 921   NORMALIZED FREE ENERGY PREDICTED BY IDOCK:   -5.41 KCAL/MOL
REMARK 922        TOTAL FREE ENERGY PREDICTED BY IDOCK:   -7.77 KCAL/MOL
REMARK 923 INTER-LIGAND FREE ENERGY PREDICTED BY IDOCK:   -7.17 KCAL/MOL
REMARK 924 INTRA-LIGAND FREE ENERGY PREDICTED BY IDOCK:   -0.60 KCAL/MOL
REMARK 927      BINDING AFFINITY PREDICTED BY RF-SCORE:    0.00 PKD
ROOT
HETATM    1  C   UNL     1     -14.136  15.745  72.393  1.00  0.00    -0.486 C  
HETATM    2  C   UNL     1     -13.463  14.553  71.779  1.00  0.00    -0.458 A  
HETATM    3  C   UNL     1     -12.688  14.688  70.622  1.00  0.00    -0.417 A  
HETATM    4  C   UNL     1     -12.133  13.564  70.009  1.00  0.00    -0.411 A  
HETATM    5  C   UNL     1     -12.343  12.296  70.564  1.00  0.00    -0.264 A  
HETATM    6  C   UNL     1     -13.094  12.152  71.732  1.00  0.00    -0.457 A  
HETATM    7  C   UNL     1     -13.651  13.280  72.337  1.00  0.00    -0.694 A  
ENDROOT
BRANCH   5   8
HETATM    8  S   UNL     1     -11.802  10.846  69.691  1.00  0.00    -0.359 S  
HETATM    9  O   UNL     1     -10.365  10.764  69.861  1.00  0.00    -0.127 OA 
HETATM   10  O   UNL     1     -12.407  10.852  68.379  1.00  0.00    -0.477 OA 
BRANCH   8  11
HETATM   11  N   UNL     1     -12.499   9.611  70.536  1.00  0.00    -0.496 N  
HETATM   12  H   UNL     1     -13.335   9.205  70.114  1.00  0.00     0.000 HD 
BRANCH  11  13
HETATM   13  C   UNL     1     -12.100   9.049  71.747  1.00  0.00    -0.368 C  
HETATM   14  O   UNL     1     -12.938   8.910  72.628  1.00  0.00    -0.407 OA 
BRANCH  13  15
HETATM   15  N   UNL     1     -10.784   8.654  71.819  1.00  0.00    -0.294 N  
HETATM   16  H   UNL     1     -10.188   9.099  72.518  1.00  0.00     0.000 HD 
BRANCH  15  17
HETATM   17  N   UNL     1     -10.211   7.674  70.987  1.00  0.00    -0.194 NA 
HETATM   18  C   UNL     1      -8.737   7.649  71.077  1.00  0.00    -0.137 C  
HETATM   19  C   UNL     1      -8.340   6.572  72.096  1.00  0.00    -0.107 C  
HETATM   20  C   UNL     1      -7.753   7.107  73.398  1.00  0.00    -0.099 C  
HETATM   21  C   UNL     1      -8.958   7.446  74.256  1.00  0.00    -0.242 C  
HETATM   22  C   UNL     1      -9.965   6.353  73.919  1.00  0.00    -0.274 C  
HETATM   23  C   UNL     1      -9.649   5.883  72.489  1.00  0.00    -0.165 C  
HETATM   24  C   UNL     1     -10.631   6.324  71.407  1.00  0.00    -0.237 C  
ENDBRANCH  15  17
ENDBRANCH  13  15
ENDBRANCH  11  13
ENDBRANCH   8  11
ENDBRANCH   5   8
TORSDOF 5
ENDMDL
MODEL       72
REMARK 921   NORMALIZED FREE ENERGY PREDICTED BY IDOCK:   -5.40 KCAL/MOL
REMARK 922        TOTAL FREE ENERGY PREDICTED BY IDOCK:   -7.76 KCAL/MOL
REMARK 923 INTER-LIGAND FREE ENERGY PREDICTED BY IDOCK:   -7.01 KCAL/MOL
REMARK 924 INTRA-LIGAND FREE ENERGY PREDICTED BY IDOCK:   -0.74 KCAL/MOL
REMARK 927      BINDING AFFINITY PREDICTED BY RF-SCORE:    0.00 PKD
ROOT
HETATM    1  C   UNL     1     -13.919   9.039  72.526  1.00  0.00    -0.472 C  
HETATM    2  C   UNL     1     -12.571   9.308  71.925  1.00  0.00    -0.468 A  
HETATM    3  C   UNL     1     -12.421  10.249  70.899  1.00  0.00    -0.466 A  
HETATM    4  C   UNL     1     -11.181  10.435  70.288  1.00  0.00    -0.395 A  
HETATM    5  C   UNL     1     -10.078   9.686  70.714  1.00  0.00    -0.223 A  
HETATM    6  C   UNL     1     -10.210   8.763  71.753  1.00  0.00    -0.408 A  
HETATM    7  C   UNL     1     -11.455   8.577  72.356  1.00  0.00    -0.419 A  
ENDROOT
BRANCH   5   8
HETATM    8  S   UNL     1      -8.545   9.780  69.819  1.00  0.00    -0.206 S  
HETATM    9  O   UNL     1      -8.642   8.843  68.718  1.00  0.00    -0.133 OA 
HETATM   10  O   UNL     1      -7.458   9.718  70.769  1.00  0.00    -0.295 OA 
BRANCH   8  11
HETATM   11  N   UNL     1      -8.558  11.312  69.204  1.00  0.00    -0.379 N  
HETATM   12  H   UNL     1      -8.954  12.029  69.813  1.00  0.00     0.000 HD 
BRANCH  11  13
HETATM   13  C   UNL     1      -8.102  11.759  67.965  1.00  0.00    -0.145 C  
HETATM   14  O   UNL     1      -6.894  11.850  67.789  1.00  0.00    -0.079 OA 
BRANCH  13  15
HETATM   15  N   UNL     1      -9.074  12.016  67.026  1.00  0.00    -0.185 N  
HETATM   16  H   UNL     1      -8.936  12.808  66.399  1.00  0.00     0.000 HD 
BRANCH  15  17
HETATM   17  N   UNL     1     -10.248  11.252  66.881  1.00  0.00    -0.212 NA 
HETATM   18  C   UNL     1     -11.469  12.040  67.142  1.00  0.00    -0.335 C  
HETATM   19  C   UNL     1     -12.005  12.548  65.796  1.00  0.00    -0.482 C  
HETATM   20  C   UNL     1     -11.873  14.052  65.580  1.00  0.00    -0.384 C  
HETATM   21  C   UNL     1     -10.459  14.249  65.068  1.00  0.00    -0.458 C  
HETATM   22  C   UNL     1     -10.216  13.028  64.189  1.00  0.00    -0.263 C  
HETATM   23  C   UNL     1     -11.111  11.902  64.735  1.00  0.00    -0.367 C  
HETATM   24  C   UNL     1     -10.396  10.785  65.490  1.00  0.00    -0.241 C  
ENDBRANCH  15  17
ENDBRANCH  13  15
ENDBRANCH  11  13
ENDBRANCH   8  11
ENDBRANCH   5   8
TORSDOF 5
ENDMDL
MODEL       73
REMARK 921   NORMALIZED FREE ENERGY PREDICTED BY IDOCK:   -5.39 KCAL/MOL
REMARK 922        TOTAL FREE ENERGY PREDICTED BY IDOCK:   -7.75 KCAL/MOL
REMARK 923 INTER-LIGAND FREE ENERGY PREDICTED BY IDOCK:   -6.74 KCAL/MOL
REMARK 924 INTRA-LIGAND FREE ENERGY PREDICTED BY IDOCK:   -1.01 KCAL/MOL
REMARK 927      BINDING AFFINITY PREDICTED BY RF-SCORE:    0.00 PKD
ROOT
HETATM    1  C   UNL     1     -11.671   5.832  72.556  1.00  0.00    -0.280 C  
HETATM    2  C   UNL     1     -11.685   7.084  71.731  1.00  0.00    -0.333 A  
HETATM    3  C   UNL     1     -11.153   7.094  70.436  1.00  0.00    -0.309 A  
HETATM    4  C   UNL     1     -11.095   8.281  69.706  1.00  0.00    -0.056 A  
HETATM    5  C   UNL     1     -11.584   9.466  70.267  1.00  0.00    -0.138 A  
HETATM    6  C   UNL     1     -12.140   9.464  71.547  1.00  0.00    -0.456 A  
HETATM    7  C   UNL     1     -12.190   8.274  72.275  1.00  0.00    -0.428 A  
ENDROOT
BRANCH   5   8
HETATM    8  S   UNL     1     -11.343  11.011  69.423  1.00  0.00    -0.312 S  
HETATM    9  O   UNL     1     -12.223  11.004  68.271  1.00  0.00    -0.582 OA 
HETATM   10  O   UNL     1      -9.923  11.239  69.285  1.00  0.00    -0.105 OA 
BRANCH   8  11
HETATM   11  N   UNL     1     -11.906  12.126  70.502  1.00  0.00    -0.512 N  
HETATM   12  H   UNL     1     -12.294  11.746  71.366  1.00  0.00     0.000 HD 
BRANCH  11  13
HETATM   13  C   UNL     1     -11.921  13.515  70.393  1.00  0.00    -0.295 C  
HETATM   14  O   UNL     1     -12.444  14.163  71.290  1.00  0.00    -0.333 OA 
BRANCH  13  15
HETATM   15  N   UNL     1     -11.294  14.036  69.285  1.00  0.00    -0.261 N  
HETATM   16  H   UNL     1     -10.352  13.710  69.070  1.00  0.00     0.000 HD 
BRANCH  15  17
HETATM   17  N   UNL     1     -11.876  14.992  68.430  1.00  0.00    -0.303 NA 
HETATM   18  C   UNL     1     -10.984  16.143  68.182  1.00  0.00    -0.341 C  
HETATM   19  C   UNL     1     -10.229  15.886  66.871  1.00  0.00    -0.277 C  
HETATM   20  C   UNL     1      -8.738  15.608  67.034  1.00  0.00    -0.256 C  
HETATM   21  C   UNL     1      -8.652  14.127  67.350  1.00  0.00    -0.219 C  
HETATM   22  C   UNL     1      -9.757  13.508  66.504  1.00  0.00    -0.287 C  
HETATM   23  C   UNL     1     -10.827  14.596  66.304  1.00  0.00    -0.321 C  
HETATM   24  C   UNL     1     -12.120  14.416  67.094  1.00  0.00    -0.333 C  
ENDBRANCH  15  17
ENDBRANCH  13  15
ENDBRANCH  11  13
ENDBRANCH   8  11
ENDBRANCH   5   8
TORSDOF 5
ENDMDL
MODEL       74
REMARK 921   NORMALIZED FREE ENERGY PREDICTED BY IDOCK:   -5.37 KCAL/MOL
REMARK 922        TOTAL FREE ENERGY PREDICTED BY IDOCK:   -7.72 KCAL/MOL
REMARK 923 INTER-LIGAND FREE ENERGY PREDICTED BY IDOCK:   -6.73 KCAL/MOL
REMARK 924 INTRA-LIGAND FREE ENERGY PREDICTED BY IDOCK:   -1.00 KCAL/MOL
REMARK 927      BINDING AFFINITY PREDICTED BY RF-SCORE:    0.00 PKD
ROOT
HETATM    1  C   UNL     1     -11.279   6.138  70.130  1.00  0.00    -0.452 C  
HETATM    2  C   UNL     1     -10.800   6.951  68.964  1.00  0.00    -0.247 A  
HETATM    3  C   UNL     1     -10.719   6.387  67.685  1.00  0.00    -0.387 A  
HETATM    4  C   UNL     1     -10.194   7.122  66.622  1.00  0.00    -0.224 A  
HETATM    5  C   UNL     1      -9.760   8.436  66.833  1.00  0.00    -0.227 A  
HETATM    6  C   UNL     1      -9.859   9.017  68.099  1.00  0.00    -0.191 A  
HETATM    7  C   UNL     1     -10.379   8.274  69.160  1.00  0.00    -0.225 A  
ENDROOT
BRANCH   5   8
HETATM    8  S   UNL     1      -8.921   9.311  65.534  1.00  0.00    -0.217 S  
HETATM    9  O   UNL     1      -8.348   8.312  64.656  1.00  0.00    -0.159 OA 
HETATM   10  O   UNL     1      -8.108  10.345  66.132  1.00  0.00    -0.128 OA 
BRANCH   8  11
HETATM   11  N   UNL     1     -10.148  10.069  64.732  1.00  0.00    -0.354 N  
HETATM   12  H   UNL     1     -11.089   9.736  64.947  1.00  0.00     0.000 HD 
BRANCH  11  13
HETATM   13  C   UNL     1     -10.075  11.103  63.801  1.00  0.00    -0.361 C  
HETATM   14  O   UNL     1     -10.099  10.818  62.611  1.00  0.00    -0.154 OA 
BRANCH  13  15
HETATM   15  N   UNL     1     -10.025  12.376  64.321  1.00  0.00    -0.536 N  
HETATM   16  H   UNL     1      -9.177  12.660  64.813  1.00  0.00     0.000 HD 
BRANCH  15  17
HETATM   17  N   UNL     1     -11.074  13.309  64.216  1.00  0.00    -0.382 NA 
HETATM   18  C   UNL     1     -12.248  12.932  65.028  1.00  0.00    -0.464 C  
HETATM   19  C   UNL     1     -12.150  13.661  66.375  1.00  0.00    -0.478 C  
HETATM   20  C   UNL     1     -11.858  12.761  67.572  1.00  0.00    -0.402 C  
HETATM   21  C   UNL     1     -10.350  12.596  67.574  1.00  0.00    -0.220 C  
HETATM   22  C   UNL     1      -9.833  13.957  67.121  1.00  0.00    -0.241 C  
HETATM   23  C   UNL     1     -10.935  14.583  66.249  1.00  0.00    -0.323 C  
HETATM   24  C   UNL     1     -10.660  14.621  64.749  1.00  0.00    -0.353 C  
ENDBRANCH  15  17
ENDBRANCH  13  15
ENDBRANCH  11  13
ENDBRANCH   8  11
ENDBRANCH   5   8
TORSDOF 5
ENDMDL
MODEL       75
REMARK 921   NORMALIZED FREE ENERGY PREDICTED BY IDOCK:   -5.35 KCAL/MOL
REMARK 922        TOTAL FREE ENERGY PREDICTED BY IDOCK:   -7.70 KCAL/MOL
REMARK 923 INTER-LIGAND FREE ENERGY PREDICTED BY IDOCK:   -6.63 KCAL/MOL
REMARK 924 INTRA-LIGAND FREE ENERGY PREDICTED BY IDOCK:   -1.07 KCAL/MOL
REMARK 927      BINDING AFFINITY PREDICTED BY RF-SCORE:    0.00 PKD
ROOT
HETATM    1  C   UNL     1     -13.825  13.627  72.438  1.00  0.00    -0.691 C  
HETATM    2  C   UNL     1     -13.039  12.869  71.410  1.00  0.00    -0.331 A  
HETATM    3  C   UNL     1     -12.916  11.477  71.488  1.00  0.00    -0.485 A  
HETATM    4  C   UNL     1     -12.115  10.787  70.577  1.00  0.00    -0.459 A  
HETATM    5  C   UNL     1     -11.443  11.491  69.571  1.00  0.00    -0.311 A  
HETATM    6  C   UNL     1     -11.578  12.877  69.468  1.00  0.00    -0.348 A  
HETATM    7  C   UNL     1     -12.375  13.562  70.387  1.00  0.00    -0.397 A  
ENDROOT
BRANCH   5   8
HETATM    8  S   UNL     1     -10.277  10.648  68.528  1.00  0.00    -0.185 S  
HETATM    9  O   UNL     1      -9.953  11.551  67.443  1.00  0.00    -0.188 OA 
HETATM   10  O   UNL     1     -10.771   9.314  68.277  1.00  0.00    -0.209 OA 
BRANCH   8  11
HETATM   11  N   UNL     1      -8.947  10.493  69.493  1.00  0.00    -0.388 N  
HETATM   12  H   UNL     1      -8.596  11.359  69.903  1.00  0.00     0.000 HD 
BRANCH  11  13
HETATM   13  C   UNL     1      -8.238   9.339  69.824  1.00  0.00    -0.131 C  
HETATM   14  O   UNL     1      -7.038   9.305  69.585  1.00  0.00    -0.056 OA 
BRANCH  13  15
HETATM   15  N   UNL     1      -8.964   8.347  70.442  1.00  0.00    -0.144 N  
HETATM   16  H   UNL     1      -9.504   7.712  69.854  1.00  0.00     0.000 HD 
BRANCH  15  17
HETATM   17  N   UNL     1      -9.006   8.157  71.836  1.00  0.00    -0.149 NA 
HETATM   18  C   UNL     1     -10.334   8.461  72.406  1.00  0.00    -0.329 C  
HETATM   19  C   UNL     1     -11.118   7.146  72.516  1.00  0.00    -0.317 C  
HETATM   20  C   UNL     1     -12.292   7.017  71.551  1.00  0.00    -0.420 C  
HETATM   21  C   UNL     1     -11.677   6.519  70.256  1.00  0.00    -0.430 C  
HETATM   22  C   UNL     1     -10.575   5.572  70.716  1.00  0.00    -0.320 C  
HETATM   23  C   UNL     1     -10.130   6.050  72.109  1.00  0.00    -0.208 C  
HETATM   24  C   UNL     1      -8.771   6.741  72.176  1.00  0.00    -0.132 C  
ENDBRANCH  15  17
ENDBRANCH  13  15
ENDBRANCH  11  13
ENDBRANCH   8  11
ENDBRANCH   5   8
TORSDOF 5
ENDMDL
MODEL       76
REMARK 921   NORMALIZED FREE ENERGY PREDICTED BY IDOCK:   -5.35 KCAL/MOL
REMARK 922        TOTAL FREE ENERGY PREDICTED BY IDOCK:   -7.69 KCAL/MOL
REMARK 923 INTER-LIGAND FREE ENERGY PREDICTED BY IDOCK:   -6.74 KCAL/MOL
REMARK 924 INTRA-LIGAND FREE ENERGY PREDICTED BY IDOCK:   -0.96 KCAL/MOL
REMARK 927      BINDING AFFINITY PREDICTED BY RF-SCORE:    0.00 PKD
ROOT
HETATM    1  C   UNL     1     -12.093  14.979  71.831  1.00  0.00    -0.443 C  
HETATM    2  C   UNL     1     -11.918  14.692  70.369  1.00  0.00    -0.375 A  
HETATM    3  C   UNL     1     -11.719  15.733  69.455  1.00  0.00    -0.379 A  
HETATM    4  C   UNL     1     -11.640  15.467  68.088  1.00  0.00    -0.331 A  
HETATM    5  C   UNL     1     -11.745  14.148  67.630  1.00  0.00    -0.387 A  
HETATM    6  C   UNL     1     -11.919  13.099  68.534  1.00  0.00    -0.324 A  
HETATM    7  C   UNL     1     -12.004  13.373  69.900  1.00  0.00    -0.408 A  
ENDROOT
BRANCH   5   8
HETATM    8  S   UNL     1     -11.834  13.821  65.886  1.00  0.00    -0.406 S  
HETATM    9  O   UNL     1     -10.627  14.361  65.294  1.00  0.00    -0.332 OA 
HETATM   10  O   UNL     1     -13.144  14.208  65.415  1.00  0.00    -0.743 OA 
BRANCH   8  11
HETATM   11  N   UNL     1     -11.763  12.173  65.804  1.00  0.00    -0.375 N  
HETATM   12  H   UNL     1     -12.615  11.681  66.073  1.00  0.00     0.000 HD 
BRANCH  11  13
HETATM   13  C   UNL     1     -10.695  11.364  65.418  1.00  0.00    -0.253 C  
HETATM   14  O   UNL     1     -10.503  11.186  64.223  1.00  0.00    -0.322 OA 
BRANCH  13  15
HETATM   15  N   UNL     1      -9.918  10.871  66.441  1.00  0.00    -0.213 N  
HETATM   16  H   UNL     1      -9.974  11.330  67.350  1.00  0.00     0.000 HD 
BRANCH  15  17
HETATM   17  N   UNL     1      -9.050   9.770  66.306  1.00  0.00    -0.152 NA 
HETATM   18  C   UNL     1      -7.934   9.811  67.273  1.00  0.00    -0.106 C  
HETATM   19  C   UNL     1      -8.325   8.958  68.488  1.00  0.00    -0.125 C  
HETATM   20  C   UNL     1      -8.593   9.747  69.766  1.00  0.00    -0.215 C  
HETATM   21  C   UNL     1     -10.036  10.202  69.646  1.00  0.00    -0.262 C  
HETATM   22  C   UNL     1     -10.731   9.033  68.958  1.00  0.00    -0.163 C  
HETATM   23  C   UNL     1      -9.663   8.313  68.117  1.00  0.00    -0.178 C  
HETATM   24  C   UNL     1      -9.756   8.510  66.606  1.00  0.00    -0.249 C  
ENDBRANCH  15  17
ENDBRANCH  13  15
ENDBRANCH  11  13
ENDBRANCH   8  11
ENDBRANCH   5   8
TORSDOF 5
ENDMDL
MODEL       77
REMARK 921   NORMALIZED FREE ENERGY PREDICTED BY IDOCK:   -5.34 KCAL/MOL
REMARK 922        TOTAL FREE ENERGY PREDICTED BY IDOCK:   -7.68 KCAL/MOL
REMARK 923 INTER-LIGAND FREE ENERGY PREDICTED BY IDOCK:   -7.69 KCAL/MOL
REMARK 924 INTRA-LIGAND FREE ENERGY PREDICTED BY IDOCK:    0.02 KCAL/MOL
REMARK 927      BINDING AFFINITY PREDICTED BY RF-SCORE:    0.00 PKD
ROOT
HETATM    1  C   UNL     1      -5.140  18.946  71.345  1.00  0.00    -0.290 C  
HETATM    2  C   UNL     1      -5.992  18.684  70.138  1.00  0.00    -0.176 A  
HETATM    3  C   UNL     1      -6.002  17.423  69.531  1.00  0.00    -0.246 A  
HETATM    4  C   UNL     1      -6.732  17.209  68.361  1.00  0.00    -0.170 A  
HETATM    5  C   UNL     1      -7.470  18.258  67.801  1.00  0.00    -0.221 A  
HETATM    6  C   UNL     1      -7.487  19.513  68.412  1.00  0.00    -0.359 A  
HETATM    7  C   UNL     1      -6.750  19.723  69.579  1.00  0.00    -0.372 A  
ENDROOT
BRANCH   5   8
HETATM    8  S   UNL     1      -8.246  18.048  66.217  1.00  0.00    -0.162 S  
HETATM    9  O   UNL     1      -7.220  18.253  65.214  1.00  0.00    -0.494 OA 
HETATM   10  O   UNL     1      -9.475  18.808  66.206  1.00  0.00    -0.348 OA 
BRANCH   8  11
HETATM   11  N   UNL     1      -8.670  16.452  66.211  1.00  0.00    -0.313 N  
HETATM   12  H   UNL     1      -7.960  15.806  66.557  1.00  0.00     0.000 HD 
BRANCH  11  13
HETATM   13  C   UNL     1      -9.866  15.868  65.796  1.00  0.00    -0.345 C  
HETATM   14  O   UNL     1     -10.525  16.439  64.937  1.00  0.00    -0.643 OA 
BRANCH  13  15
HETATM   15  N   UNL     1     -10.173  14.657  66.373  1.00  0.00    -0.280 N  
HETATM   16  H   UNL     1      -9.419  13.981  66.497  1.00  0.00     0.000 HD 
BRANCH  15  17
HETATM   17  N   UNL     1     -11.464  14.297  66.802  1.00  0.00    -0.352 NA 
HETATM   18  C   UNL     1     -12.461  14.374  65.715  1.00  0.00    -0.319 C  
HETATM   19  C   UNL     1     -12.610  12.974  65.104  1.00  0.00    -0.530 C  
HETATM   20  C   UNL     1     -12.053  12.828  63.692  1.00  0.00    -0.624 C  
HETATM   21  C   UNL     1     -10.572  12.564  63.884  1.00  0.00    -0.472 C  
HETATM   22  C   UNL     1     -10.515  11.702  65.139  1.00  0.00    -0.329 C  
HETATM   23  C   UNL     1     -11.753  12.057  65.980  1.00  0.00    -0.311 C  
HETATM   24  C   UNL     1     -11.495  12.887  67.234  1.00  0.00    -0.336 C  
ENDBRANCH  15  17
ENDBRANCH  13  15
ENDBRANCH  11  13
ENDBRANCH   8  11
ENDBRANCH   5   8
TORSDOF 5
ENDMDL
MODEL       78
REMARK 921   NORMALIZED FREE ENERGY PREDICTED BY IDOCK:   -5.31 KCAL/MOL
REMARK 922        TOTAL FREE ENERGY PREDICTED BY IDOCK:   -7.64 KCAL/MOL
REMARK 923 INTER-LIGAND FREE ENERGY PREDICTED BY IDOCK:   -6.87 KCAL/MOL
REMARK 924 INTRA-LIGAND FREE ENERGY PREDICTED BY IDOCK:   -0.78 KCAL/MOL
REMARK 927      BINDING AFFINITY PREDICTED BY RF-SCORE:    0.00 PKD
ROOT
HETATM    1  C   UNL     1     -13.520   9.742  72.200  1.00  0.00    -0.491 C  
HETATM    2  C   UNL     1     -12.975  10.977  71.547  1.00  0.00    -0.553 A  
HETATM    3  C   UNL     1     -13.372  12.248  71.979  1.00  0.00    -0.491 A  
HETATM    4  C   UNL     1     -12.925  13.390  71.314  1.00  0.00    -0.368 A  
HETATM    5  C   UNL     1     -12.064  13.264  70.217  1.00  0.00    -0.335 A  
HETATM    6  C   UNL     1     -11.641  12.003  69.794  1.00  0.00    -0.348 A  
HETATM    7  C   UNL     1     -12.097  10.863  70.459  1.00  0.00    -0.464 A  
ENDROOT
BRANCH   5   8
HETATM    8  S   UNL     1     -11.643  14.695  69.252  1.00  0.00    -0.321 S  
HETATM    9  O   UNL     1     -10.196  14.757  69.199  1.00  0.00    -0.233 OA 
HETATM   10  O   UNL     1     -12.429  15.812  69.725  1.00  0.00    -0.262 OA 
BRANCH   8  11
HETATM   11  N   UNL     1     -12.205  14.317  67.747  1.00  0.00    -0.598 N  
HETATM   12  H   UNL     1     -13.219  14.236  67.661  1.00  0.00     0.000 HD 
BRANCH  11  13
HETATM   13  C   UNL     1     -11.482  14.091  66.577  1.00  0.00    -0.357 C  
HETATM   14  O   UNL     1     -11.454  14.975  65.731  1.00  0.00    -0.327 OA 
BRANCH  13  15
HETATM   15  N   UNL     1     -10.818  12.888  66.505  1.00  0.00    -0.268 N  
HETATM   16  H   UNL     1      -9.875  12.837  66.891  1.00  0.00     0.000 HD 
BRANCH  15  17
HETATM   17  N   UNL     1     -11.363  11.724  65.931  1.00  0.00    -0.304 NA 
HETATM   18  C   UNL     1     -10.548  11.214  64.810  1.00  0.00    -0.303 C  
HETATM   19  C   UNL     1      -9.610  10.130  65.357  1.00  0.00    -0.325 C  
HETATM   20  C   UNL     1      -8.135  10.516  65.390  1.00  0.00    -0.141 C  
HETATM   21  C   UNL     1      -7.964  11.289  66.684  1.00  0.00    -0.159 C  
HETATM   22  C   UNL     1      -8.894  10.577  67.659  1.00  0.00    -0.131 C  
HETATM   23  C   UNL     1     -10.017   9.943  66.821  1.00  0.00    -0.272 C  
HETATM   24  C   UNL     1     -11.382  10.620  66.909  1.00  0.00     0.185 C  
ENDBRANCH  15  17
ENDBRANCH  13  15
ENDBRANCH  11  13
ENDBRANCH   8  11
ENDBRANCH   5   8
TORSDOF 5
ENDMDL
MODEL       79
REMARK 921   NORMALIZED FREE ENERGY PREDICTED BY IDOCK:   -5.30 KCAL/MOL
REMARK 922        TOTAL FREE ENERGY PREDICTED BY IDOCK:   -7.62 KCAL/MOL
REMARK 923 INTER-LIGAND FREE ENERGY PREDICTED BY IDOCK:   -6.86 KCAL/MOL
REMARK 924 INTRA-LIGAND FREE ENERGY PREDICTED BY IDOCK:   -0.76 KCAL/MOL
REMARK 927      BINDING AFFINITY PREDICTED BY RF-SCORE:    0.00 PKD
ROOT
HETATM    1  C   UNL     1      -7.023  19.295  67.473  1.00  0.00    -0.229 C  
HETATM    2  C   UNL     1      -8.039  18.304  66.988  1.00  0.00    -0.241 A  
HETATM    3  C   UNL     1      -7.679  16.975  66.735  1.00  0.00    -0.274 A  
HETATM    4  C   UNL     1      -8.609  16.081  66.206  1.00  0.00    -0.363 A  
HETATM    5  C   UNL     1      -9.914  16.511  65.941  1.00  0.00    -0.317 A  
HETATM    6  C   UNL     1     -10.292  17.827  66.213  1.00  0.00    -0.358 A  
HETATM    7  C   UNL     1      -9.355  18.719  66.736  1.00  0.00    -0.330 A  
ENDROOT
BRANCH   5   8
HETATM    8  S   UNL     1     -11.047  15.435  65.096  1.00  0.00    -0.378 S  
HETATM    9  O   UNL     1     -11.549  16.167  63.950  1.00  0.00    -0.834 OA 
HETATM   10  O   UNL     1     -11.942  14.856  66.072  1.00  0.00    -0.213 OA 
BRANCH   8  11
HETATM   11  N   UNL     1     -10.078  14.215  64.551  1.00  0.00    -0.595 N  
HETATM   12  H   UNL     1      -9.199  14.507  64.122  1.00  0.00     0.000 HD 
BRANCH  11  13
HETATM   13  C   UNL     1     -10.296  12.839  64.599  1.00  0.00    -0.338 C  
HETATM   14  O   UNL     1     -11.155  12.360  63.870  1.00  0.00    -0.347 OA 
BRANCH  13  15
HETATM   15  N   UNL     1      -9.475  12.131  65.447  1.00  0.00    -0.432 N  
HETATM   16  H   UNL     1      -8.812  11.475  65.035  1.00  0.00     0.000 HD 
BRANCH  15  17
HETATM   17  N   UNL     1      -9.497  12.259  66.849  1.00  0.00    -0.211 NA 
HETATM   18  C   UNL     1     -10.521  11.400  67.477  1.00  0.00    -0.201 C  
HETATM   19  C   UNL     1      -9.843  10.096  67.918  1.00  0.00    -0.176 C  
HETATM   20  C   UNL     1     -10.245   8.862  67.117  1.00  0.00    -0.339 C  
HETATM   21  C   UNL     1      -9.353   8.887  65.890  1.00  0.00    -0.301 C  
HETATM   22  C   UNL     1      -8.026   9.422  66.415  1.00  0.00    -0.108 C  
HETATM   23  C   UNL     1      -8.352  10.299  67.637  1.00  0.00    -0.114 C  
HETATM   24  C   UNL     1      -8.221  11.806  67.434  1.00  0.00    -0.160 C  
ENDBRANCH  15  17
ENDBRANCH  13  15
ENDBRANCH  11  13
ENDBRANCH   8  11
ENDBRANCH   5   8
TORSDOF 5
ENDMDL
MODEL       80
REMARK 921   NORMALIZED FREE ENERGY PREDICTED BY IDOCK:   -5.29 KCAL/MOL
REMARK 922        TOTAL FREE ENERGY PREDICTED BY IDOCK:   -7.62 KCAL/MOL
REMARK 923 INTER-LIGAND FREE ENERGY PREDICTED BY IDOCK:   -6.94 KCAL/MOL
REMARK 924 INTRA-LIGAND FREE ENERGY PREDICTED BY IDOCK:   -0.68 KCAL/MOL
REMARK 927      BINDING AFFINITY PREDICTED BY RF-SCORE:    0.00 PKD
ROOT
HETATM    1  C   UNL     1      -5.435  21.342  65.995  1.00  0.00    -0.237 C  
HETATM    2  C   UNL     1      -6.449  20.269  66.261  1.00  0.00    -0.246 A  
HETATM    3  C   UNL     1      -6.397  19.050  65.575  1.00  0.00    -0.299 A  
HETATM    4  C   UNL     1      -7.390  18.090  65.766  1.00  0.00    -0.161 A  
HETATM    5  C   UNL     1      -8.437  18.342  66.661  1.00  0.00    -0.265 A  
HETATM    6  C   UNL     1      -8.486  19.543  67.369  1.00  0.00    -0.336 A  
HETATM    7  C   UNL     1      -7.493  20.503  67.169  1.00  0.00    -0.375 A  
ENDROOT
BRANCH   5   8
HETATM    8  S   UNL     1      -9.801  17.208  66.769  1.00  0.00    -0.297 S  
HETATM    9  O   UNL     1     -10.222  16.925  65.412  1.00  0.00    -0.605 OA 
HETATM   10  O   UNL     1     -10.730  17.705  67.758  1.00  0.00    -0.388 OA 
BRANCH   8  11
HETATM   11  N   UNL     1      -9.113  15.845  67.397  1.00  0.00    -0.194 N  
HETATM   12  H   UNL     1      -8.187  15.613  67.039  1.00  0.00     0.000 HD 
BRANCH  11  13
HETATM   13  C   UNL     1      -9.627  14.969  68.352  1.00  0.00    -0.212 C  
HETATM   14  O   UNL     1      -9.677  15.341  69.517  1.00  0.00    -0.238 OA 
BRANCH  13  15
HETATM   15  N   UNL     1     -10.080  13.761  67.873  1.00  0.00    -0.240 N  
HETATM   16  H   UNL     1      -9.399  13.122  67.463  1.00  0.00     0.000 HD 
BRANCH  15  17
HETATM   17  N   UNL     1     -11.427  13.354  67.916  1.00  0.00    -0.296 NA 
HETATM   18  C   UNL     1     -12.283  14.142  67.005  1.00  0.00    -0.339 C  
HETATM   19  C   UNL     1     -12.415  13.368  65.687  1.00  0.00    -0.519 C  
HETATM   20  C   UNL     1     -11.699  14.001  64.498  1.00  0.00    -0.428 C  
HETATM   21  C   UNL     1     -10.263  13.524  64.611  1.00  0.00    -0.341 C  
HETATM   22  C   UNL     1     -10.392  12.098  65.132  1.00  0.00    -0.311 C  
HETATM   23  C   UNL     1     -11.707  12.033  65.928  1.00  0.00    -0.312 C  
HETATM   24  C   UNL     1     -11.567  11.963  67.447  1.00  0.00    -0.297 C  
ENDBRANCH  15  17
ENDBRANCH  13  15
ENDBRANCH  11  13
ENDBRANCH   8  11
ENDBRANCH   5   8
TORSDOF 5
ENDMDL
MODEL       81
REMARK 921   NORMALIZED FREE ENERGY PREDICTED BY IDOCK:   -5.28 KCAL/MOL
REMARK 922        TOTAL FREE ENERGY PREDICTED BY IDOCK:   -7.61 KCAL/MOL
REMARK 923 INTER-LIGAND FREE ENERGY PREDICTED BY IDOCK:   -6.99 KCAL/MOL
REMARK 924 INTRA-LIGAND FREE ENERGY PREDICTED BY IDOCK:   -0.62 KCAL/MOL
REMARK 927      BINDING AFFINITY PREDICTED BY RF-SCORE:    0.00 PKD
ROOT
HETATM    1  C   UNL     1     -12.650  16.083  74.474  1.00  0.00    -0.588 C  
HETATM    2  C   UNL     1     -12.534  15.459  73.116  1.00  0.00    -0.572 A  
HETATM    3  C   UNL     1     -13.173  14.246  72.829  1.00  0.00    -0.614 A  
HETATM    4  C   UNL     1     -12.993  13.630  71.591  1.00  0.00    -0.448 A  
HETATM    5  C   UNL     1     -12.182  14.235  70.624  1.00  0.00    -0.357 A  
HETATM    6  C   UNL     1     -11.560  15.457  70.889  1.00  0.00    -0.396 A  
HETATM    7  C   UNL     1     -11.738  16.065  72.133  1.00  0.00    -0.587 A  
ENDROOT
BRANCH   5   8
HETATM    8  S   UNL     1     -11.798  13.369  69.121  1.00  0.00    -0.329 S  
HETATM    9  O   UNL     1     -12.351  14.148  68.033  1.00  0.00    -0.233 OA 
HETATM   10  O   UNL     1     -12.136  11.975  69.299  1.00  0.00    -0.271 OA 
BRANCH   8  11
HETATM   11  N   UNL     1     -10.151  13.457  69.042  1.00  0.00    -0.430 N  
HETATM   12  H   UNL     1      -9.677  13.667  69.921  1.00  0.00     0.000 HD 
BRANCH  11  13
HETATM   13  C   UNL     1      -9.320  13.283  67.937  1.00  0.00    -0.214 C  
HETATM   14  O   UNL     1      -9.066  14.257  67.241  1.00  0.00    -0.196 OA 
BRANCH  13  15
HETATM   15  N   UNL     1      -8.820  12.013  67.757  1.00  0.00    -0.158 N  
HETATM   16  H   UNL     1      -8.729  11.414  68.577  1.00  0.00     0.000 HD 
BRANCH  15  17
HETATM   17  N   UNL     1      -8.428  11.493  66.509  1.00  0.00    -0.172 NA 
HETATM   18  C   UNL     1      -7.546  10.316  66.641  1.00  0.00    -0.110 C  
HETATM   19  C   UNL     1      -8.415   9.056  66.544  1.00  0.00    -0.124 C  
HETATM   20  C   UNL     1      -8.556   8.272  67.845  1.00  0.00    -0.132 C  
HETATM   21  C   UNL     1      -9.679   8.965  68.595  1.00  0.00    -0.169 C  
HETATM   22  C   UNL     1     -10.652   9.377  67.496  1.00  0.00    -0.333 C  
HETATM   23  C   UNL     1      -9.822   9.558  66.213  1.00  0.00    -0.334 C  
HETATM   24  C   UNL     1      -9.598  10.998  65.760  1.00  0.00    -0.222 C  
ENDBRANCH  15  17
ENDBRANCH  13  15
ENDBRANCH  11  13
ENDBRANCH   8  11
ENDBRANCH   5   8
TORSDOF 5
ENDMDL
MODEL       82
REMARK 921   NORMALIZED FREE ENERGY PREDICTED BY IDOCK:   -5.27 KCAL/MOL
REMARK 922        TOTAL FREE ENERGY PREDICTED BY IDOCK:   -7.59 KCAL/MOL
REMARK 923 INTER-LIGAND FREE ENERGY PREDICTED BY IDOCK:   -6.61 KCAL/MOL
REMARK 924 INTRA-LIGAND FREE ENERGY PREDICTED BY IDOCK:   -0.98 KCAL/MOL
REMARK 927      BINDING AFFINITY PREDICTED BY RF-SCORE:    0.00 PKD
ROOT
HETATM    1  C   UNL     1     -12.858  11.865  63.127  1.00  0.00    -0.160 C  
HETATM    2  C   UNL     1     -12.023  12.351  64.274  1.00  0.00    -0.489 A  
HETATM    3  C   UNL     1     -10.656  12.056  64.339  1.00  0.00    -0.361 A  
HETATM    4  C   UNL     1      -9.903  12.440  65.448  1.00  0.00    -0.200 A  
HETATM    5  C   UNL     1     -10.516  13.136  66.496  1.00  0.00    -0.279 A  
HETATM    6  C   UNL     1     -11.873  13.458  66.432  1.00  0.00    -0.441 A  
HETATM    7  C   UNL     1     -12.622  13.066  65.321  1.00  0.00    -0.516 A  
ENDROOT
BRANCH   5   8
HETATM    8  S   UNL     1      -9.612  13.462  67.991  1.00  0.00    -0.222 S  
HETATM    9  O   UNL     1      -8.690  12.360  68.174  1.00  0.00    -0.179 OA 
HETATM   10  O   UNL     1     -10.553  13.837  69.021  1.00  0.00    -0.219 OA 
BRANCH   8  11
HETATM   11  N   UNL     1      -8.742  14.815  67.621  1.00  0.00    -0.170 N  
HETATM   12  H   UNL     1      -7.754  14.789  67.877  1.00  0.00     0.000 HD 
BRANCH  11  13
HETATM   13  C   UNL     1      -9.173  15.990  67.007  1.00  0.00    -0.212 C  
HETATM   14  O   UNL     1      -8.930  16.147  65.818  1.00  0.00    -0.385 OA 
BRANCH  13  15
HETATM   15  N   UNL     1      -9.885  16.856  67.804  1.00  0.00    -0.247 N  
HETATM   16  H   UNL     1     -10.892  16.923  67.659  1.00  0.00     0.000 HD 
BRANCH  15  17
HETATM   17  N   UNL     1      -9.306  17.655  68.809  1.00  0.00    -0.261 NA 
HETATM   18  C   UNL     1      -8.136  18.413  68.321  1.00  0.00    -0.298 C  
HETATM   19  C   UNL     1      -8.612  19.814  67.916  1.00  0.00    -0.360 C  
HETATM   20  C   UNL     1      -8.588  20.090  66.415  1.00  0.00    -0.350 C  
HETATM   21  C   UNL     1      -9.893  19.518  65.894  1.00  0.00    -0.322 C  
HETATM   22  C   UNL     1     -10.890  19.811  67.009  1.00  0.00    -0.465 C  
HETATM   23  C   UNL     1     -10.087  19.874  68.319  1.00  0.00    -0.571 C  
HETATM   24  C   UNL     1     -10.255  18.688  69.265  1.00  0.00     0.096 C  
ENDBRANCH  15  17
ENDBRANCH  13  15
ENDBRANCH  11  13
ENDBRANCH   8  11
ENDBRANCH   5   8
TORSDOF 5
ENDMDL
MODEL       83
REMARK 921   NORMALIZED FREE ENERGY PREDICTED BY IDOCK:   -5.25 KCAL/MOL
REMARK 922        TOTAL FREE ENERGY PREDICTED BY IDOCK:   -7.57 KCAL/MOL
REMARK 923 INTER-LIGAND FREE ENERGY PREDICTED BY IDOCK:   -6.80 KCAL/MOL
REMARK 924 INTRA-LIGAND FREE ENERGY PREDICTED BY IDOCK:   -0.76 KCAL/MOL
REMARK 927      BINDING AFFINITY PREDICTED BY RF-SCORE:    0.00 PKD
ROOT
HETATM    1  C   UNL     1     -10.593  17.419  68.191  1.00  0.00    -0.376 C  
HETATM    2  C   UNL     1     -11.001  16.007  68.492  1.00  0.00    -0.326 A  
HETATM    3  C   UNL     1     -11.469  15.653  69.763  1.00  0.00    -0.346 A  
HETATM    4  C   UNL     1     -11.767  14.323  70.059  1.00  0.00    -0.364 A  
HETATM    5  C   UNL     1     -11.612  13.340  69.075  1.00  0.00    -0.312 A  
HETATM    6  C   UNL     1     -11.170  13.685  67.797  1.00  0.00    -0.310 A  
HETATM    7  C   UNL     1     -10.867  15.017  67.508  1.00  0.00    -0.297 A  
ENDROOT
BRANCH   5   8
HETATM    8  S   UNL     1     -11.808  11.626  69.498  1.00  0.00    -0.350 S  
HETATM    9  O   UNL     1     -12.409  10.975  68.351  1.00  0.00    -0.528 OA 
HETATM   10  O   UNL     1     -12.407  11.545  70.810  1.00  0.00    -0.374 OA 
BRANCH   8  11
HETATM   11  N   UNL     1     -10.254  11.091  69.646  1.00  0.00    -0.438 N  
HETATM   12  H   UNL     1      -9.529  11.770  69.413  1.00  0.00     0.000 HD 
BRANCH  11  13
HETATM   13  C   UNL     1      -9.797   9.836  70.048  1.00  0.00    -0.251 C  
HETATM   14  O   UNL     1      -8.717   9.447  69.623  1.00  0.00    -0.140 OA 
BRANCH  13  15
HETATM   15  N   UNL     1     -10.602   9.162  70.937  1.00  0.00    -0.248 N  
HETATM   16  H   UNL     1     -10.496   9.368  71.930  1.00  0.00     0.000 HD 
BRANCH  15  17
HETATM   17  N   UNL     1     -11.563   8.206  70.557  1.00  0.00    -0.191 NA 
HETATM   18  C   UNL     1     -10.951   6.946  70.091  1.00  0.00    -0.281 C  
HETATM   19  C   UNL     1     -10.903   5.972  71.275  1.00  0.00    -0.331 C  
HETATM   20  C   UNL     1      -9.505   5.684  71.813  1.00  0.00    -0.169 C  
HETATM   21  C   UNL     1      -9.213   6.826  72.767  1.00  0.00    -0.149 C  
HETATM   22  C   UNL     1     -10.560   7.111  73.420  1.00  0.00    -0.424 C  
HETATM   23  C   UNL     1     -11.641   6.681  72.413  1.00  0.00    -0.281 C  
HETATM   24  C   UNL     1     -12.391   7.811  71.713  1.00  0.00    -0.317 C  
ENDBRANCH  15  17
ENDBRANCH  13  15
ENDBRANCH  11  13
ENDBRANCH   8  11
ENDBRANCH   5   8
TORSDOF 5
ENDMDL
MODEL       84
REMARK 921   NORMALIZED FREE ENERGY PREDICTED BY IDOCK:   -5.23 KCAL/MOL
REMARK 922        TOTAL FREE ENERGY PREDICTED BY IDOCK:   -7.54 KCAL/MOL
REMARK 923 INTER-LIGAND FREE ENERGY PREDICTED BY IDOCK:   -6.55 KCAL/MOL
REMARK 924 INTRA-LIGAND FREE ENERGY PREDICTED BY IDOCK:   -0.99 KCAL/MOL
REMARK 927      BINDING AFFINITY PREDICTED BY RF-SCORE:    0.00 PKD
ROOT
HETATM    1  C   UNL     1     -11.647  14.907  68.047  1.00  0.00    -0.363 C  
HETATM    2  C   UNL     1     -11.048  13.747  67.309  1.00  0.00    -0.319 A  
HETATM    3  C   UNL     1     -11.848  12.910  66.522  1.00  0.00    -0.473 A  
HETATM    4  C   UNL     1     -11.300  11.785  65.906  1.00  0.00    -0.324 A  
HETATM    5  C   UNL     1      -9.939  11.501  66.064  1.00  0.00    -0.224 A  
HETATM    6  C   UNL     1      -9.126  12.341  66.826  1.00  0.00    -0.211 A  
HETATM    7  C   UNL     1      -9.682  13.462  67.445  1.00  0.00    -0.221 A  
ENDROOT
BRANCH   5   8
HETATM    8  S   UNL     1      -9.275   9.974  65.441  1.00  0.00    -0.231 S  
HETATM    9  O   UNL     1      -7.943   9.837  65.995  1.00  0.00    -0.107 OA 
HETATM   10  O   UNL     1      -9.508   9.924  64.016  1.00  0.00    -0.277 OA 
BRANCH   8  11
HETATM   11  N   UNL     1     -10.247   8.830  66.127  1.00  0.00    -0.381 N  
HETATM   12  H   UNL     1     -10.975   8.448  65.522  1.00  0.00     0.000 HD 
BRANCH  11  13
HETATM   13  C   UNL     1     -10.208   8.314  67.421  1.00  0.00    -0.258 C  
HETATM   14  O   UNL     1      -9.437   7.393  67.658  1.00  0.00    -0.134 OA 
BRANCH  13  15
HETATM   15  N   UNL     1     -11.025   8.934  68.338  1.00  0.00    -0.457 N  
HETATM   16  H   UNL     1     -11.956   8.547  68.490  1.00  0.00     0.000 HD 
BRANCH  15  17
HETATM   17  N   UNL     1     -10.653  10.072  69.079  1.00  0.00    -0.204 NA 
HETATM   18  C   UNL     1     -11.780  10.640  69.845  1.00  0.00    -0.317 C  
HETATM   19  C   UNL     1     -11.720  10.076  71.270  1.00  0.00    -0.452 C  
HETATM   20  C   UNL     1     -12.836   9.096  71.619  1.00  0.00    -0.431 C  
HETATM   21  C   UNL     1     -12.356   7.757  71.091  1.00  0.00    -0.268 C  
HETATM   22  C   UNL     1     -10.853   7.783  71.341  1.00  0.00    -0.257 C  
HETATM   23  C   UNL     1     -10.426   9.261  71.330  1.00  0.00    -0.408 C  
HETATM   24  C   UNL     1      -9.648   9.723  70.100  1.00  0.00    -0.237 C  
ENDBRANCH  15  17
ENDBRANCH  13  15
ENDBRANCH  11  13
ENDBRANCH   8  11
ENDBRANCH   5   8
TORSDOF 5
ENDMDL
MODEL       85
REMARK 921   NORMALIZED FREE ENERGY PREDICTED BY IDOCK:   -5.22 KCAL/MOL
REMARK 922        TOTAL FREE ENERGY PREDICTED BY IDOCK:   -7.52 KCAL/MOL
REMARK 923 INTER-LIGAND FREE ENERGY PREDICTED BY IDOCK:   -6.61 KCAL/MOL
REMARK 924 INTRA-LIGAND FREE ENERGY PREDICTED BY IDOCK:   -0.92 KCAL/MOL
REMARK 927      BINDING AFFINITY PREDICTED BY RF-SCORE:    0.00 PKD
ROOT
HETATM    1  C   UNL     1     -11.485   6.231  72.454  1.00  0.00    -0.335 C  
HETATM    2  C   UNL     1     -11.492   7.594  71.826  1.00  0.00    -0.302 A  
HETATM    3  C   UNL     1     -12.629   8.407  71.897  1.00  0.00    -0.389 A  
HETATM    4  C   UNL     1     -12.658   9.638  71.241  1.00  0.00    -0.443 A  
HETATM    5  C   UNL     1     -11.537  10.068  70.521  1.00  0.00    -0.323 A  
HETATM    6  C   UNL     1     -10.388   9.277  70.464  1.00  0.00    -0.312 A  
HETATM    7  C   UNL     1     -10.368   8.043  71.118  1.00  0.00    -0.229 A  
ENDROOT
BRANCH   5   8
HETATM    8  S   UNL     1     -11.632  11.540  69.531  1.00  0.00    -0.357 S  
HETATM    9  O   UNL     1     -12.051  12.613  70.411  1.00  0.00    -0.364 OA 
HETATM   10  O   UNL     1     -12.357  11.231  68.321  1.00  0.00    -0.542 OA 
BRANCH   8  11
HETATM   11  N   UNL     1     -10.062  11.807  69.095  1.00  0.00    -0.417 N  
HETATM   12  H   UNL     1      -9.380  11.768  69.854  1.00  0.00     0.000 HD 
BRANCH  11  13
HETATM   13  C   UNL     1      -9.542  12.077  67.831  1.00  0.00    -0.196 C  
HETATM   14  O   UNL     1      -8.790  11.256  67.323  1.00  0.00    -0.146 OA 
BRANCH  13  15
HETATM   15  N   UNL     1      -9.968  13.247  67.245  1.00  0.00    -0.228 N  
HETATM   16  H   UNL     1     -10.966  13.458  67.268  1.00  0.00     0.000 HD 
BRANCH  15  17
HETATM   17  N   UNL     1      -9.110  14.170  66.618  1.00  0.00    -0.245 NA 
HETATM   18  C   UNL     1      -9.815  15.395  66.191  1.00  0.00    -0.311 C  
HETATM   19  C   UNL     1      -9.641  16.453  67.289  1.00  0.00    -0.235 C  
HETATM   20  C   UNL     1     -10.910  16.784  68.067  1.00  0.00    -0.341 C  
HETATM   21  C   UNL     1     -10.999  15.714  69.139  1.00  0.00    -0.259 C  
HETATM   22  C   UNL     1      -9.547  15.473  69.535  1.00  0.00    -0.278 C  
HETATM   23  C   UNL     1      -8.687  15.825  68.309  1.00  0.00    -0.172 C  
HETATM   24  C   UNL     1      -8.077  14.644  67.558  1.00  0.00    -0.184 C  
ENDBRANCH  15  17
ENDBRANCH  13  15
ENDBRANCH  11  13
ENDBRANCH   8  11
ENDBRANCH   5   8
TORSDOF 5
ENDMDL
MODEL       86
REMARK 921   NORMALIZED FREE ENERGY PREDICTED BY IDOCK:   -5.22 KCAL/MOL
REMARK 922        TOTAL FREE ENERGY PREDICTED BY IDOCK:   -7.52 KCAL/MOL
REMARK 923 INTER-LIGAND FREE ENERGY PREDICTED BY IDOCK:   -6.15 KCAL/MOL
REMARK 924 INTRA-LIGAND FREE ENERGY PREDICTED BY IDOCK:   -1.37 KCAL/MOL
REMARK 927      BINDING AFFINITY PREDICTED BY RF-SCORE:    0.00 PKD
ROOT
HETATM    1  C   UNL     1     -10.636  19.683  66.451  1.00  0.00    -0.592 C  
HETATM    2  C   UNL     1      -9.767  18.560  66.936  1.00  0.00    -0.334 A  
HETATM    3  C   UNL     1      -9.387  18.481  68.281  1.00  0.00    -0.350 A  
HETATM    4  C   UNL     1      -8.512  17.482  68.709  1.00  0.00    -0.213 A  
HETATM    5  C   UNL     1      -8.024  16.546  67.790  1.00  0.00    -0.160 A  
HETATM    6  C   UNL     1      -8.416  16.600  66.451  1.00  0.00    -0.348 A  
HETATM    7  C   UNL     1      -9.287  17.606  66.028  1.00  0.00    -0.070 A  
ENDROOT
BRANCH   5   8
HETATM    8  S   UNL     1      -6.768  15.390  68.285  1.00  0.00    -0.129 S  
HETATM    9  O   UNL     1      -6.375  15.747  69.633  1.00  0.00    -0.160 OA 
HETATM   10  O   UNL     1      -5.798  15.287  67.219  1.00  0.00    -0.332 OA 
BRANCH   8  11
HETATM   11  N   UNL     1      -7.576  13.952  68.340  1.00  0.00    -0.122 N  
HETATM   12  H   UNL     1      -8.104  13.774  69.195  1.00  0.00     0.000 HD 
BRANCH  11  13
HETATM   13  C   UNL     1      -7.634  12.946  67.376  1.00  0.00    -0.148 C  
HETATM   14  O   UNL     1      -6.797  12.055  67.414  1.00  0.00    -0.115 OA 
BRANCH  13  15
HETATM   15  N   UNL     1      -8.678  13.032  66.483  1.00  0.00    -0.430 N  
HETATM   16  H   UNL     1      -8.817  13.916  65.993  1.00  0.00     0.000 HD 
BRANCH  15  17
HETATM   17  N   UNL     1      -9.564  11.974  66.207  1.00  0.00    -0.228 NA 
HETATM   18  C   UNL     1     -10.351  11.574  67.391  1.00  0.00    -0.207 C  
HETATM   19  C   UNL     1     -11.699  12.305  67.335  1.00  0.00    -0.405 C  
HETATM   20  C   UNL     1     -11.886  13.387  68.395  1.00  0.00    -0.401 C  
HETATM   21  C   UNL     1     -11.217  14.618  67.815  1.00  0.00    -0.320 C  
HETATM   22  C   UNL     1     -11.524  14.532  66.324  1.00  0.00    -0.358 C  
HETATM   23  C   UNL     1     -11.707  13.041  65.994  1.00  0.00    -0.442 C  
HETATM   24  C   UNL     1     -10.572  12.385  65.212  1.00  0.00    -0.290 C  
ENDBRANCH  15  17
ENDBRANCH  13  15
ENDBRANCH  11  13
ENDBRANCH   8  11
ENDBRANCH   5   8
TORSDOF 5
ENDMDL
MODEL       87
REMARK 921   NORMALIZED FREE ENERGY PREDICTED BY IDOCK:   -5.21 KCAL/MOL
REMARK 922        TOTAL FREE ENERGY PREDICTED BY IDOCK:   -7.52 KCAL/MOL
REMARK 923 INTER-LIGAND FREE ENERGY PREDICTED BY IDOCK:   -6.65 KCAL/MOL
REMARK 924 INTRA-LIGAND FREE ENERGY PREDICTED BY IDOCK:   -0.87 KCAL/MOL
REMARK 927      BINDING AFFINITY PREDICTED BY RF-SCORE:    0.00 PKD
ROOT
HETATM    1  C   UNL     1      -8.633  17.122  68.303  1.00  0.00    -0.241 C  
HETATM    2  C   UNL     1      -9.051  15.807  67.716  1.00  0.00    -0.188 A  
HETATM    3  C   UNL     1      -9.337  15.692  66.350  1.00  0.00    -0.332 A  
HETATM    4  C   UNL     1      -9.804  14.486  65.827  1.00  0.00    -0.343 A  
HETATM    5  C   UNL     1      -9.974  13.382  66.670  1.00  0.00    -0.277 A  
HETATM    6  C   UNL     1      -9.668  13.477  68.028  1.00  0.00    -0.228 A  
HETATM    7  C   UNL     1      -9.207  14.688  68.548  1.00  0.00    -0.193 A  
ENDROOT
BRANCH   5   8
HETATM    8  S   UNL     1     -10.744  11.905  66.050  1.00  0.00    -0.295 S  
HETATM    9  O   UNL     1     -10.283  11.729  64.688  1.00  0.00    -0.261 OA 
HETATM   10  O   UNL     1     -12.152  11.957  66.369  1.00  0.00    -0.552 OA 
BRANCH   8  11
HETATM   11  N   UNL     1     -10.084  10.713  66.982  1.00  0.00    -0.202 N  
HETATM   12  H   UNL     1      -9.106  10.844  67.239  1.00  0.00     0.000 HD 
BRANCH  11  13
HETATM   13  C   UNL     1     -10.683   9.551  67.465  1.00  0.00    -0.245 C  
HETATM   14  O   UNL     1     -10.518   8.509  66.844  1.00  0.00    -0.308 OA 
BRANCH  13  15
HETATM   15  N   UNL     1     -11.381   9.682  68.644  1.00  0.00    -0.482 N  
HETATM   16  H   UNL     1     -12.329   9.309  68.684  1.00  0.00     0.000 HD 
BRANCH  15  17
HETATM   17  N   UNL     1     -10.863  10.301  69.798  1.00  0.00    -0.267 NA 
HETATM   18  C   UNL     1     -11.782  10.205  70.950  1.00  0.00    -0.378 C  
HETATM   19  C   UNL     1     -11.366   8.991  71.792  1.00  0.00    -0.447 C  
HETATM   20  C   UNL     1     -12.344   7.821  71.755  1.00  0.00    -0.346 C  
HETATM   21  C   UNL     1     -11.980   7.050  70.501  1.00  0.00    -0.315 C  
HETATM   22  C   UNL     1     -10.462   7.164  70.430  1.00  0.00    -0.234 C  
HETATM   23  C   UNL     1     -10.080   8.471  71.146  1.00  0.00    -0.263 C  
HETATM   24  C   UNL     1      -9.633   9.620  70.247  1.00  0.00    -0.254 C  
ENDBRANCH  15  17
ENDBRANCH  13  15
ENDBRANCH  11  13
ENDBRANCH   8  11
ENDBRANCH   5   8
TORSDOF 5
ENDMDL
MODEL       88
REMARK 921   NORMALIZED FREE ENERGY PREDICTED BY IDOCK:   -5.19 KCAL/MOL
REMARK 922        TOTAL FREE ENERGY PREDICTED BY IDOCK:   -7.49 KCAL/MOL
REMARK 923 INTER-LIGAND FREE ENERGY PREDICTED BY IDOCK:   -6.62 KCAL/MOL
REMARK 924 INTRA-LIGAND FREE ENERGY PREDICTED BY IDOCK:   -0.87 KCAL/MOL
REMARK 927      BINDING AFFINITY PREDICTED BY RF-SCORE:    0.00 PKD
ROOT
HETATM    1  C   UNL     1     -13.197  15.533  73.278  1.00  0.00    -0.635 C  
HETATM    2  C   UNL     1     -12.529  15.247  71.965  1.00  0.00    -0.430 A  
HETATM    3  C   UNL     1     -11.658  16.178  71.389  1.00  0.00    -0.495 A  
HETATM    4  C   UNL     1     -11.105  15.943  70.130  1.00  0.00    -0.369 A  
HETATM    5  C   UNL     1     -11.414  14.761  69.446  1.00  0.00    -0.301 A  
HETATM    6  C   UNL     1     -12.262  13.814  70.022  1.00  0.00    -0.407 A  
HETATM    7  C   UNL     1     -12.816  14.058  71.279  1.00  0.00    -0.430 A  
ENDROOT
BRANCH   5   8
HETATM    8  S   UNL     1     -10.868  14.540  67.770  1.00  0.00    -0.270 S  
HETATM    9  O   UNL     1      -9.480  14.128  67.830  1.00  0.00    -0.198 OA 
HETATM   10  O   UNL     1     -11.280  15.691  67.000  1.00  0.00    -0.256 OA 
BRANCH   8  11
HETATM   11  N   UNL     1     -11.770  13.262  67.242  1.00  0.00    -0.358 N  
HETATM   12  H   UNL     1     -12.712  13.198  67.628  1.00  0.00     0.000 HD 
BRANCH  11  13
HETATM   13  C   UNL     1     -11.418  12.259  66.341  1.00  0.00    -0.378 C  
HETATM   14  O   UNL     1     -11.807  12.353  65.184  1.00  0.00    -0.368 OA 
BRANCH  13  15
HETATM   15  N   UNL     1     -10.612  11.261  66.840  1.00  0.00    -0.245 N  
HETATM   16  H   UNL     1      -9.650  11.211  66.507  1.00  0.00     0.000 HD 
BRANCH  15  17
HETATM   17  N   UNL     1     -11.038  10.306  67.782  1.00  0.00    -0.303 NA 
HETATM   18  C   UNL     1     -10.493   8.961  67.507  1.00  0.00    -0.269 C  
HETATM   19  C   UNL     1      -9.228   8.777  68.355  1.00  0.00    -0.137 C  
HETATM   20  C   UNL     1      -7.924   8.746  67.563  1.00  0.00    -0.102 C  
HETATM   21  C   UNL     1      -7.556  10.204  67.366  1.00  0.00    -0.094 C  
HETATM   22  C   UNL     1      -7.989  10.869  68.667  1.00  0.00    -0.140 C  
HETATM   23  C   UNL     1      -9.143  10.026  69.234  1.00  0.00    -0.208 C  
HETATM   24  C   UNL     1     -10.536  10.642  69.128  1.00  0.00    -0.226 C  
ENDBRANCH  15  17
ENDBRANCH  13  15
ENDBRANCH  11  13
ENDBRANCH   8  11
ENDBRANCH   5   8
TORSDOF 5
ENDMDL
MODEL       89
REMARK 921   NORMALIZED FREE ENERGY PREDICTED BY IDOCK:   -5.17 KCAL/MOL
REMARK 922        TOTAL FREE ENERGY PREDICTED BY IDOCK:   -7.45 KCAL/MOL
REMARK 923 INTER-LIGAND FREE ENERGY PREDICTED BY IDOCK:   -6.52 KCAL/MOL
REMARK 924 INTRA-LIGAND FREE ENERGY PREDICTED BY IDOCK:   -0.94 KCAL/MOL
REMARK 927      BINDING AFFINITY PREDICTED BY RF-SCORE:    0.00 PKD
ROOT
HETATM    1  C   UNL     1     -13.266  14.150  72.644  1.00  0.00    -0.612 C  
HETATM    2  C   UNL     1     -12.517  14.636  71.439  1.00  0.00    -0.410 A  
HETATM    3  C   UNL     1     -12.615  13.962  70.217  1.00  0.00    -0.328 A  
HETATM    4  C   UNL     1     -11.851  14.370  69.123  1.00  0.00    -0.359 A  
HETATM    5  C   UNL     1     -10.993  15.469  69.246  1.00  0.00    -0.268 A  
HETATM    6  C   UNL     1     -10.905  16.164  70.453  1.00  0.00    -0.255 A  
HETATM    7  C   UNL     1     -11.668  15.747  71.546  1.00  0.00    -0.523 A  
ENDROOT
BRANCH   5   8
HETATM    8  S   UNL     1      -9.881  15.877  67.921  1.00  0.00    -0.219 S  
HETATM    9  O   UNL     1      -9.519  17.270  68.089  1.00  0.00    -0.262 OA 
HETATM   10  O   UNL     1     -10.447  15.389  66.684  1.00  0.00    -0.281 OA 
BRANCH   8  11
HETATM   11  N   UNL     1      -8.553  14.950  68.240  1.00  0.00    -0.154 N  
HETATM   12  H   UNL     1      -8.296  14.872  69.225  1.00  0.00     0.000 HD 
BRANCH  11  13
HETATM   13  C   UNL     1      -7.736  14.259  67.347  1.00  0.00    -0.173 C  
HETATM   14  O   UNL     1      -6.608  14.686  67.141  1.00  0.00    -0.238 OA 
BRANCH  13  15
HETATM   15  N   UNL     1      -8.274  13.114  66.806  1.00  0.00    -0.411 N  
HETATM   16  H   UNL     1      -8.783  13.193  65.926  1.00  0.00     0.000 HD 
BRANCH  15  17
HETATM   17  N   UNL     1      -8.163  11.840  67.395  1.00  0.00    -0.152 NA 
HETATM   18  C   UNL     1      -9.280  11.546  68.316  1.00  0.00    -0.186 C  
HETATM   19  C   UNL     1     -10.340  10.753  67.541  1.00  0.00    -0.244 C  
HETATM   20  C   UNL     1     -11.634  11.512  67.266  1.00  0.00    -0.280 C  
HETATM   21  C   UNL     1     -11.352  12.320  66.013  1.00  0.00    -0.398 C  
HETATM   22  C   UNL     1     -10.465  11.403  65.180  1.00  0.00    -0.351 C  
HETATM   23  C   UNL     1      -9.722  10.485  66.167  1.00  0.00    -0.259 C  
HETATM   24  C   UNL     1      -8.239  10.783  66.370  1.00  0.00    -0.155 C  
ENDBRANCH  15  17
ENDBRANCH  13  15
ENDBRANCH  11  13
ENDBRANCH   8  11
ENDBRANCH   5   8
TORSDOF 5
ENDMDL
MODEL       90
REMARK 921   NORMALIZED FREE ENERGY PREDICTED BY IDOCK:   -5.14 KCAL/MOL
REMARK 922        TOTAL FREE ENERGY PREDICTED BY IDOCK:   -7.42 KCAL/MOL
REMARK 923 INTER-LIGAND FREE ENERGY PREDICTED BY IDOCK:   -6.85 KCAL/MOL
REMARK 924 INTRA-LIGAND FREE ENERGY PREDICTED BY IDOCK:   -0.57 KCAL/MOL
REMARK 927      BINDING AFFINITY PREDICTED BY RF-SCORE:    0.00 PKD
ROOT
HETATM    1  C   UNL     1      -9.133   3.298  68.771  1.00  0.00    -0.206 C  
HETATM    2  C   UNL     1      -9.777   4.487  69.421  1.00  0.00    -0.272 A  
HETATM    3  C   UNL     1      -9.889   4.566  70.814  1.00  0.00    -0.280 A  
HETATM    4  C   UNL     1     -10.562   5.634  71.408  1.00  0.00    -0.317 A  
HETATM    5  C   UNL     1     -11.116   6.638  70.606  1.00  0.00    -0.298 A  
HETATM    6  C   UNL     1     -10.989   6.583  69.217  1.00  0.00    -0.389 A  
HETATM    7  C   UNL     1     -10.319   5.509  68.629  1.00  0.00    -0.255 A  
ENDROOT
BRANCH   5   8
HETATM    8  S   UNL     1     -12.133   7.897  71.340  1.00  0.00    -0.309 S  
HETATM    9  O   UNL     1     -11.474   8.312  72.562  1.00  0.00    -0.378 OA 
HETATM   10  O   UNL     1     -13.502   7.435  71.340  1.00  0.00    -0.375 OA 
BRANCH   8  11
HETATM   11  N   UNL     1     -12.045   9.137  70.254  1.00  0.00    -0.446 N  
HETATM   12  H   UNL     1     -11.938   8.862  69.277  1.00  0.00     0.000 HD 
BRANCH  11  13
HETATM   13  C   UNL     1     -12.098  10.510  70.490  1.00  0.00    -0.345 C  
HETATM   14  O   UNL     1     -12.944  10.935  71.266  1.00  0.00    -0.384 OA 
BRANCH  13  15
HETATM   15  N   UNL     1     -11.144  11.265  69.848  1.00  0.00    -0.460 N  
HETATM   16  H   UNL     1     -10.822  12.119  70.303  1.00  0.00     0.000 HD 
BRANCH  15  17
HETATM   17  N   UNL     1     -10.585  10.929  68.600  1.00  0.00    -0.183 NA 
HETATM   18  C   UNL     1     -11.505  11.204  67.478  1.00  0.00    -0.216 C  
HETATM   19  C   UNL     1     -11.162  12.587  66.909  1.00  0.00    -0.354 C  
HETATM   20  C   UNL     1     -12.210  13.665  67.169  1.00  0.00    -0.340 C  
HETATM   21  C   UNL     1     -11.898  14.182  68.561  1.00  0.00    -0.390 C  
HETATM   22  C   UNL     1     -10.376  14.147  68.630  1.00  0.00    -0.243 C  
HETATM   23  C   UNL     1      -9.913  13.039  67.668  1.00  0.00    -0.215 C  
HETATM   24  C   UNL     1      -9.398  11.759  68.320  1.00  0.00    -0.193 C  
ENDBRANCH  15  17
ENDBRANCH  13  15
ENDBRANCH  11  13
ENDBRANCH   8  11
ENDBRANCH   5   8
TORSDOF 5
ENDMDL
MODEL       91
REMARK 921   NORMALIZED FREE ENERGY PREDICTED BY IDOCK:   -5.14 KCAL/MOL
REMARK 922        TOTAL FREE ENERGY PREDICTED BY IDOCK:   -7.42 KCAL/MOL
REMARK 923 INTER-LIGAND FREE ENERGY PREDICTED BY IDOCK:   -6.43 KCAL/MOL
REMARK 924 INTRA-LIGAND FREE ENERGY PREDICTED BY IDOCK:   -1.00 KCAL/MOL
REMARK 927      BINDING AFFINITY PREDICTED BY RF-SCORE:    0.00 PKD
ROOT
HETATM    1  C   UNL     1      -5.738  14.070  67.958  1.00  0.00    -0.132 C  
HETATM    2  C   UNL     1      -7.203  13.757  68.021  1.00  0.00    -0.137 A  
HETATM    3  C   UNL     1      -8.141  14.768  68.260  1.00  0.00    -0.139 A  
HETATM    4  C   UNL     1      -9.494  14.458  68.399  1.00  0.00    -0.207 A  
HETATM    5  C   UNL     1      -9.917  13.129  68.285  1.00  0.00    -0.236 A  
HETATM    6  C   UNL     1      -8.994  12.115  68.022  1.00  0.00    -0.189 A  
HETATM    7  C   UNL     1      -7.641  12.431  67.890  1.00  0.00    -0.130 A  
ENDROOT
BRANCH   5   8
HETATM    8  S   UNL     1     -11.603  12.702  68.647  1.00  0.00    -0.335 S  
HETATM    9  O   UNL     1     -11.988  11.669  67.707  1.00  0.00    -0.608 OA 
HETATM   10  O   UNL     1     -12.365  13.923  68.779  1.00  0.00    -0.288 OA 
BRANCH   8  11
HETATM   11  N   UNL     1     -11.510  12.030  70.152  1.00  0.00    -0.526 N  
HETATM   12  H   UNL     1     -10.981  12.564  70.842  1.00  0.00     0.000 HD 
BRANCH  11  13
HETATM   13  C   UNL     1     -12.057  10.831  70.608  1.00  0.00    -0.370 C  
HETATM   14  O   UNL     1     -12.792  10.861  71.586  1.00  0.00    -0.429 OA 
BRANCH  13  15
HETATM   15  N   UNL     1     -11.745   9.712  69.870  1.00  0.00    -0.450 N  
HETATM   16  H   UNL     1     -12.510   9.194  69.439  1.00  0.00     0.000 HD 
BRANCH  15  17
HETATM   17  N   UNL     1     -10.433   9.241  69.673  1.00  0.00    -0.216 NA 
HETATM   18  C   UNL     1      -9.637   9.258  70.917  1.00  0.00    -0.269 C  
HETATM   19  C   UNL     1      -9.711   7.861  71.549  1.00  0.00    -0.201 C  
HETATM   20  C   UNL     1     -10.514   7.786  72.844  1.00  0.00    -0.412 C  
HETATM   21  C   UNL     1     -11.957   7.639  72.397  1.00  0.00    -0.298 C  
HETATM   22  C   UNL     1     -11.866   6.761  71.154  1.00  0.00    -0.410 C  
HETATM   23  C   UNL     1     -10.476   7.001  70.541  1.00  0.00    -0.227 C  
HETATM   24  C   UNL     1     -10.444   7.826  69.258  1.00  0.00    -0.217 C  
ENDBRANCH  15  17
ENDBRANCH  13  15
ENDBRANCH  11  13
ENDBRANCH   8  11
ENDBRANCH   5   8
TORSDOF 5
ENDMDL
MODEL       92
REMARK 921   NORMALIZED FREE ENERGY PREDICTED BY IDOCK:   -5.13 KCAL/MOL
REMARK 922        TOTAL FREE ENERGY PREDICTED BY IDOCK:   -7.41 KCAL/MOL
REMARK 923 INTER-LIGAND FREE ENERGY PREDICTED BY IDOCK:   -6.45 KCAL/MOL
REMARK 924 INTRA-LIGAND FREE ENERGY PREDICTED BY IDOCK:   -0.96 KCAL/MOL
REMARK 927      BINDING AFFINITY PREDICTED BY RF-SCORE:    0.00 PKD
ROOT
HETATM    1  C   UNL     1     -11.173   6.199  71.678  1.00  0.00    -0.342 C  
HETATM    2  C   UNL     1     -11.181   7.519  70.966  1.00  0.00    -0.281 A  
HETATM    3  C   UNL     1     -10.661   7.635  69.671  1.00  0.00    -0.243 A  
HETATM    4  C   UNL     1     -10.595   8.881  69.047  1.00  0.00    -0.203 A  
HETATM    5  C   UNL     1     -11.066  10.018  69.714  1.00  0.00    -0.274 A  
HETATM    6  C   UNL     1     -11.609   9.910  70.995  1.00  0.00    -0.470 A  
HETATM    7  C   UNL     1     -11.667   8.662  71.617  1.00  0.00    -0.380 A  
ENDROOT
BRANCH   5   8
HETATM    8  S   UNL     1     -10.814  11.628  69.005  1.00  0.00    -0.176 S  
HETATM    9  O   UNL     1      -9.387  11.784  68.809  1.00  0.00    -0.130 OA 
HETATM   10  O   UNL     1     -11.580  12.587  69.767  1.00  0.00    -0.277 OA 
BRANCH   8  11
HETATM   11  N   UNL     1     -11.533  11.507  67.524  1.00  0.00    -0.297 N  
HETATM   12  H   UNL     1     -11.927  10.593  67.298  1.00  0.00     0.000 HD 
BRANCH  11  13
HETATM   13  C   UNL     1     -11.676  12.485  66.541  1.00  0.00    -0.391 C  
HETATM   14  O   UNL     1     -12.424  12.258  65.599  1.00  0.00    -0.591 OA 
BRANCH  13  15
HETATM   15  N   UNL     1     -10.980  13.653  66.753  1.00  0.00    -0.290 N  
HETATM   16  H   UNL     1      -9.981  13.587  66.949  1.00  0.00     0.000 HD 
BRANCH  15  17
HETATM   17  N   UNL     1     -11.565  14.933  66.716  1.00  0.00    -0.315 NA 
HETATM   18  C   UNL     1     -11.486  15.627  68.017  1.00  0.00    -0.291 C  
HETATM   19  C   UNL     1     -10.248  16.533  68.000  1.00  0.00    -0.271 C  
HETATM   20  C   UNL     1      -9.113  16.084  68.915  1.00  0.00    -0.235 C  
HETATM   21  C   UNL     1      -8.346  15.055  68.106  1.00  0.00    -0.142 C  
HETATM   22  C   UNL     1      -8.408  15.591  66.681  1.00  0.00    -0.286 C  
HETATM   23  C   UNL     1      -9.692  16.433  66.578  1.00  0.00    -0.287 C  
HETATM   24  C   UNL     1     -10.837  15.812  65.781  1.00  0.00    -0.280 C  
ENDBRANCH  15  17
ENDBRANCH  13  15
ENDBRANCH  11  13
ENDBRANCH   8  11
ENDBRANCH   5   8
TORSDOF 5
ENDMDL
MODEL       93
REMARK 921   NORMALIZED FREE ENERGY PREDICTED BY IDOCK:   -5.13 KCAL/MOL
REMARK 922        TOTAL FREE ENERGY PREDICTED BY IDOCK:   -7.41 KCAL/MOL
REMARK 923 INTER-LIGAND FREE ENERGY PREDICTED BY IDOCK:   -6.39 KCAL/MOL
REMARK 924 INTRA-LIGAND FREE ENERGY PREDICTED BY IDOCK:   -1.02 KCAL/MOL
REMARK 927      BINDING AFFINITY PREDICTED BY RF-SCORE:    0.00 PKD
ROOT
HETATM    1  C   UNL     1     -11.191   5.326  72.838  1.00  0.00    -0.375 C  
HETATM    2  C   UNL     1     -11.224   6.528  71.943  1.00  0.00    -0.314 A  
HETATM    3  C   UNL     1     -10.812   6.437  70.608  1.00  0.00    -0.331 A  
HETATM    4  C   UNL     1     -10.766   7.576  69.804  1.00  0.00    -0.249 A  
HETATM    5  C   UNL     1     -11.148   8.815  70.332  1.00  0.00    -0.236 A  
HETATM    6  C   UNL     1     -11.584   8.914  71.654  1.00  0.00    -0.408 A  
HETATM    7  C   UNL     1     -11.622   7.771  72.456  1.00  0.00    -0.422 A  
ENDROOT
BRANCH   5   8
HETATM    8  S   UNL     1     -10.915  10.295  69.377  1.00  0.00    -0.261 S  
HETATM    9  O   UNL     1     -11.614  11.358  70.070  1.00  0.00    -0.298 OA 
HETATM   10  O   UNL     1     -11.188   9.991  67.991  1.00  0.00    -0.244 OA 
BRANCH   8  11
HETATM   11  N   UNL     1      -9.292  10.572  69.497  1.00  0.00    -0.400 N  
HETATM   12  H   UNL     1      -8.779   9.935  70.108  1.00  0.00     0.000 HD 
BRANCH  11  13
HETATM   13  C   UNL     1      -8.527  11.558  68.876  1.00  0.00     0.017 C  
HETATM   14  O   UNL     1      -7.320  11.573  69.080  1.00  0.00    -0.115 OA 
BRANCH  13  15
HETATM   15  N   UNL     1      -9.212  12.410  68.040  1.00  0.00    -0.198 N  
HETATM   16  H   UNL     1      -9.761  12.001  67.284  1.00  0.00     0.000 HD 
BRANCH  15  17
HETATM   17  N   UNL     1      -9.200  13.812  68.167  1.00  0.00    -0.195 NA 
HETATM   18  C   UNL     1      -8.919  14.491  66.886  1.00  0.00    -0.246 C  
HETATM   19  C   UNL     1     -10.260  14.871  66.244  1.00  0.00    -0.306 C  
HETATM   20  C   UNL     1     -10.617  14.080  64.989  1.00  0.00    -0.426 C  
HETATM   21  C   UNL     1     -11.249  12.801  65.504  1.00  0.00    -0.329 C  
HETATM   22  C   UNL     1     -12.033  13.250  66.732  1.00  0.00    -0.438 C  
HETATM   23  C   UNL     1     -11.325  14.501  67.279  1.00  0.00    -0.363 C  
HETATM   24  C   UNL     1     -10.530  14.310  68.568  1.00  0.00    -0.253 C  
ENDBRANCH  15  17
ENDBRANCH  13  15
ENDBRANCH  11  13
ENDBRANCH   8  11
ENDBRANCH   5   8
TORSDOF 5
ENDMDL
MODEL       94
REMARK 921   NORMALIZED FREE ENERGY PREDICTED BY IDOCK:   -5.13 KCAL/MOL
REMARK 922        TOTAL FREE ENERGY PREDICTED BY IDOCK:   -7.41 KCAL/MOL
REMARK 923 INTER-LIGAND FREE ENERGY PREDICTED BY IDOCK:   -6.46 KCAL/MOL
REMARK 924 INTRA-LIGAND FREE ENERGY PREDICTED BY IDOCK:   -0.95 KCAL/MOL
REMARK 927      BINDING AFFINITY PREDICTED BY RF-SCORE:    0.00 PKD
ROOT
HETATM    1  C   UNL     1     -12.444  12.811  63.348  1.00  0.00    -0.438 C  
HETATM    2  C   UNL     1     -12.061  12.700  64.794  1.00  0.00    -0.495 A  
HETATM    3  C   UNL     1     -11.342  11.593  65.260  1.00  0.00    -0.220 A  
HETATM    4  C   UNL     1     -11.062  11.455  66.619  1.00  0.00    -0.333 A  
HETATM    5  C   UNL     1     -11.489  12.438  67.520  1.00  0.00    -0.346 A  
HETATM    6  C   UNL     1     -12.184  13.559  67.063  1.00  0.00    -0.351 A  
HETATM    7  C   UNL     1     -12.467  13.688  65.703  1.00  0.00    -0.540 A  
ENDROOT
BRANCH   5   8
HETATM    8  S   UNL     1     -11.301  12.179  69.268  1.00  0.00    -0.248 S  
HETATM    9  O   UNL     1     -11.543  13.454  69.911  1.00  0.00    -0.267 OA 
HETATM   10  O   UNL     1     -10.079  11.441  69.491  1.00  0.00     0.067 OA 
BRANCH   8  11
HETATM   11  N   UNL     1     -12.549  11.163  69.637  1.00  0.00    -0.183 N  
HETATM   12  H   UNL     1     -13.456  11.415  69.241  1.00  0.00     0.000 HD 
BRANCH  11  13
HETATM   13  C   UNL     1     -12.533  10.008  70.417  1.00  0.00    -0.108 C  
HETATM   14  O   UNL     1     -13.237   9.971  71.417  1.00  0.00    -0.379 OA 
BRANCH  13  15
HETATM   15  N   UNL     1     -11.743   8.982  69.950  1.00  0.00    -0.413 N  
HETATM   16  H   UNL     1     -11.419   9.028  68.985  1.00  0.00     0.000 HD 
BRANCH  15  17
HETATM   17  N   UNL     1     -11.357   7.873  70.727  1.00  0.00    -0.275 NA 
HETATM   18  C   UNL     1     -11.777   6.591  70.127  1.00  0.00    -0.353 C  
HETATM   19  C   UNL     1     -10.600   6.037  69.313  1.00  0.00    -0.366 C  
HETATM   20  C   UNL     1     -10.802   6.055  67.801  1.00  0.00    -0.380 C  
HETATM   21  C   UNL     1     -10.411   7.458  67.374  1.00  0.00    -0.366 C  
HETATM   22  C   UNL     1      -9.245   7.807  68.291  1.00  0.00    -0.139 C  
HETATM   23  C   UNL     1      -9.436   6.993  69.582  1.00  0.00    -0.147 C  
HETATM   24  C   UNL     1      -9.887   7.781  70.809  1.00  0.00    -0.180 C  
ENDBRANCH  15  17
ENDBRANCH  13  15
ENDBRANCH  11  13
ENDBRANCH   8  11
ENDBRANCH   5   8
TORSDOF 5
ENDMDL
MODEL       95
REMARK 921   NORMALIZED FREE ENERGY PREDICTED BY IDOCK:   -5.11 KCAL/MOL
REMARK 922        TOTAL FREE ENERGY PREDICTED BY IDOCK:   -7.38 KCAL/MOL
REMARK 923 INTER-LIGAND FREE ENERGY PREDICTED BY IDOCK:   -6.30 KCAL/MOL
REMARK 924 INTRA-LIGAND FREE ENERGY PREDICTED BY IDOCK:   -1.08 KCAL/MOL
REMARK 927      BINDING AFFINITY PREDICTED BY RF-SCORE:    0.00 PKD
ROOT
HETATM    1  C   UNL     1      -8.973   3.561  69.104  1.00  0.00    -0.179 C  
HETATM    2  C   UNL     1      -9.829   4.637  69.705  1.00  0.00    -0.293 A  
HETATM    3  C   UNL     1     -10.571   5.499  68.889  1.00  0.00    -0.258 A  
HETATM    4  C   UNL     1     -11.299   6.548  69.449  1.00  0.00    -0.395 A  
HETATM    5  C   UNL     1     -11.297   6.732  70.837  1.00  0.00    -0.315 A  
HETATM    6  C   UNL     1     -10.581   5.864  71.663  1.00  0.00    -0.295 A  
HETATM    7  C   UNL     1      -9.850   4.819  71.095  1.00  0.00    -0.260 A  
ENDROOT
BRANCH   5   8
HETATM    8  S   UNL     1     -12.064   8.172  71.541  1.00  0.00    -0.307 S  
HETATM    9  O   UNL     1     -11.182   8.651  72.585  1.00  0.00    -0.271 OA 
HETATM   10  O   UNL     1     -13.451   7.866  71.806  1.00  0.00    -0.339 OA 
BRANCH   8  11
HETATM   11  N   UNL     1     -12.042   9.259  70.299  1.00  0.00    -0.456 N  
HETATM   12  H   UNL     1     -12.265   8.882  69.377  1.00  0.00     0.000 HD 
BRANCH  11  13
HETATM   13  C   UNL     1     -11.759  10.624  70.338  1.00  0.00    -0.353 C  
HETATM   14  O   UNL     1     -12.487  11.350  71.002  1.00  0.00    -0.386 OA 
BRANCH  13  15
HETATM   15  N   UNL     1     -10.638  11.023  69.648  1.00  0.00    -0.439 N  
HETATM   16  H   UNL     1      -9.745  10.596  69.896  1.00  0.00     0.000 HD 
BRANCH  15  17
HETATM   17  N   UNL     1     -10.649  11.986  68.621  1.00  0.00    -0.229 NA 
HETATM   18  C   UNL     1      -9.309  12.206  68.040  1.00  0.00    -0.197 C  
HETATM   19  C   UNL     1      -9.183  11.326  66.789  1.00  0.00    -0.186 C  
HETATM   20  C   UNL     1      -8.210  10.159  66.922  1.00  0.00    -0.122 C  
HETATM   21  C   UNL     1      -9.013   9.059  67.590  1.00  0.00    -0.130 C  
HETATM   22  C   UNL     1     -10.408   9.212  66.995  1.00  0.00    -0.333 C  
HETATM   23  C   UNL     1     -10.562  10.691  66.599  1.00  0.00    -0.276 C  
HETATM   24  C   UNL     1     -11.476  11.530  67.488  1.00  0.00    -0.282 C  
ENDBRANCH  15  17
ENDBRANCH  13  15
ENDBRANCH  11  13
ENDBRANCH   8  11
ENDBRANCH   5   8
TORSDOF 5
ENDMDL
MODEL       96
REMARK 921   NORMALIZED FREE ENERGY PREDICTED BY IDOCK:   -5.10 KCAL/MOL
REMARK 922        TOTAL FREE ENERGY PREDICTED BY IDOCK:   -7.37 KCAL/MOL
REMARK 923 INTER-LIGAND FREE ENERGY PREDICTED BY IDOCK:   -6.55 KCAL/MOL
REMARK 924 INTRA-LIGAND FREE ENERGY PREDICTED BY IDOCK:   -0.82 KCAL/MOL
REMARK 927      BINDING AFFINITY PREDICTED BY RF-SCORE:    0.00 PKD
ROOT
HETATM    1  C   UNL     1     -11.302  12.373  65.553  1.00  0.00    -0.387 C  
HETATM    2  C   UNL     1     -11.189  11.715  66.896  1.00  0.00    -0.376 A  
HETATM    3  C   UNL     1     -10.548  10.478  67.034  1.00  0.00    -0.310 A  
HETATM    4  C   UNL     1     -10.520   9.833  68.271  1.00  0.00    -0.255 A  
HETATM    5  C   UNL     1     -11.123  10.433  69.382  1.00  0.00    -0.254 A  
HETATM    6  C   UNL     1     -11.744  11.678  69.261  1.00  0.00    -0.396 A  
HETATM    7  C   UNL     1     -11.775  12.315  68.020  1.00  0.00    -0.417 A  
ENDROOT
BRANCH   5   8
HETATM    8  S   UNL     1     -11.256   9.536  70.910  1.00  0.00    -0.371 S  
HETATM    9  O   UNL     1     -12.181  10.269  71.750  1.00  0.00    -0.351 OA 
HETATM   10  O   UNL     1      -9.923   9.208  71.363  1.00  0.00    -0.302 OA 
BRANCH   8  11
HETATM   11  N   UNL     1     -11.971   8.119  70.458  1.00  0.00    -0.484 N  
HETATM   12  H   UNL     1     -12.954   8.186  70.191  1.00  0.00     0.000 HD 
BRANCH  11  13
HETATM   13  C   UNL     1     -11.414   6.843  70.390  1.00  0.00    -0.338 C  
HETATM   14  O   UNL     1     -11.533   6.210  69.350  1.00  0.00    -0.423 OA 
BRANCH  13  15
HETATM   15  N   UNL     1     -10.730   6.428  71.510  1.00  0.00    -0.231 N  
HETATM   16  H   UNL     1      -9.737   6.215  71.414  1.00  0.00     0.000 HD 
BRANCH  15  17
HETATM   17  N   UNL     1     -11.319   6.281  72.781  1.00  0.00    -0.236 NA 
HETATM   18  C   UNL     1     -11.398   4.869  73.205  1.00  0.00    -0.315 C  
HETATM   19  C   UNL     1     -10.175   4.565  74.080  1.00  0.00    -0.264 C  
HETATM   20  C   UNL     1      -9.148   3.632  73.446  1.00  0.00    -0.109 C  
HETATM   21  C   UNL     1      -8.283   4.533  72.585  1.00  0.00    -0.106 C  
HETATM   22  C   UNL     1      -8.186   5.823  73.391  1.00  0.00    -0.112 C  
HETATM   23  C   UNL     1      -9.457   5.906  74.253  1.00  0.00    -0.158 C  
HETATM   24  C   UNL     1     -10.496   6.935  73.816  1.00  0.00    -0.357 C  
ENDBRANCH  15  17
ENDBRANCH  13  15
ENDBRANCH  11  13
ENDBRANCH   8  11
ENDBRANCH   5   8
TORSDOF 5
ENDMDL
MODEL       97
REMARK 921   NORMALIZED FREE ENERGY PREDICTED BY IDOCK:   -5.10 KCAL/MOL
REMARK 922        TOTAL FREE ENERGY PREDICTED BY IDOCK:   -7.37 KCAL/MOL
REMARK 923 INTER-LIGAND FREE ENERGY PREDICTED BY IDOCK:   -6.58 KCAL/MOL
REMARK 924 INTRA-LIGAND FREE ENERGY PREDICTED BY IDOCK:   -0.79 KCAL/MOL
REMARK 927      BINDING AFFINITY PREDICTED BY RF-SCORE:    0.00 PKD
ROOT
HETATM    1  C   UNL     1      -5.644  11.697  67.250  1.00  0.00    -0.104 C  
HETATM    2  C   UNL     1      -7.115  11.990  67.249  1.00  0.00    -0.149 A  
HETATM    3  C   UNL     1      -7.977  11.324  66.370  1.00  0.00    -0.125 A  
HETATM    4  C   UNL     1      -9.330  11.660  66.317  1.00  0.00    -0.228 A  
HETATM    5  C   UNL     1      -9.830  12.661  67.159  1.00  0.00    -0.212 A  
HETATM    6  C   UNL     1      -8.985  13.315  68.057  1.00  0.00    -0.191 A  
HETATM    7  C   UNL     1      -7.631  12.978  68.100  1.00  0.00    -0.136 A  
ENDROOT
BRANCH   5   8
HETATM    8  S   UNL     1     -11.504  13.224  66.966  1.00  0.00    -0.359 S  
HETATM    9  O   UNL     1     -11.886  13.847  68.217  1.00  0.00    -0.343 OA 
HETATM   10  O   UNL     1     -12.283  12.153  66.388  1.00  0.00    -0.592 OA 
BRANCH   8  11
HETATM   11  N   UNL     1     -11.378  14.401  65.814  1.00  0.00    -0.325 N  
HETATM   12  H   UNL     1     -11.839  14.200  64.926  1.00  0.00     0.000 HD 
BRANCH  11  13
HETATM   13  C   UNL     1     -10.729  15.631  65.892  1.00  0.00    -0.329 C  
HETATM   14  O   UNL     1     -10.110  16.025  64.912  1.00  0.00    -0.419 OA 
BRANCH  13  15
HETATM   15  N   UNL     1     -10.887  16.319  67.073  1.00  0.00    -0.236 N  
HETATM   16  H   UNL     1     -11.807  16.703  67.284  1.00  0.00     0.000 HD 
BRANCH  15  17
HETATM   17  N   UNL     1      -9.853  16.523  68.007  1.00  0.00    -0.236 NA 
HETATM   18  C   UNL     1      -8.619  17.036  67.379  1.00  0.00    -0.197 C  
HETATM   19  C   UNL     1      -8.618  18.565  67.510  1.00  0.00    -0.272 C  
HETATM   20  C   UNL     1      -8.814  19.321  66.200  1.00  0.00    -0.260 C  
HETATM   21  C   UNL     1     -10.317  19.360  65.995  1.00  0.00    -0.584 C  
HETATM   22  C   UNL     1     -10.873  19.523  67.405  1.00  0.00    -0.536 C  
HETATM   23  C   UNL     1      -9.843  18.900  68.363  1.00  0.00    -0.435 C  
HETATM   24  C   UNL     1     -10.232  17.561  68.984  1.00  0.00    -0.314 C  
ENDBRANCH  15  17
ENDBRANCH  13  15
ENDBRANCH  11  13
ENDBRANCH   8  11
ENDBRANCH   5   8
TORSDOF 5
ENDMDL
MODEL       98
REMARK 921   NORMALIZED FREE ENERGY PREDICTED BY IDOCK:   -5.10 KCAL/MOL
REMARK 922        TOTAL FREE ENERGY PREDICTED BY IDOCK:   -7.37 KCAL/MOL
REMARK 923 INTER-LIGAND FREE ENERGY PREDICTED BY IDOCK:   -6.57 KCAL/MOL
REMARK 924 INTRA-LIGAND FREE ENERGY PREDICTED BY IDOCK:   -0.79 KCAL/MOL
REMARK 927      BINDING AFFINITY PREDICTED BY RF-SCORE:    0.00 PKD
ROOT
HETATM    1  C   UNL     1     -10.900   7.648  73.060  1.00  0.00    -0.457 C  
HETATM    2  C   UNL     1     -10.673   8.549  71.882  1.00  0.00    -0.394 A  
HETATM    3  C   UNL     1     -11.635   9.495  71.510  1.00  0.00    -0.465 A  
HETATM    4  C   UNL     1     -11.455  10.272  70.366  1.00  0.00    -0.415 A  
HETATM    5  C   UNL     1     -10.298  10.115  69.594  1.00  0.00    -0.247 A  
HETATM    6  C   UNL     1      -9.320   9.192  69.969  1.00  0.00    -0.218 A  
HETATM    7  C   UNL     1      -9.509   8.413  71.112  1.00  0.00    -0.227 A  
ENDROOT
BRANCH   5   8
HETATM    8  S   UNL     1     -10.149  10.962  68.039  1.00  0.00    -0.183 S  
HETATM    9  O   UNL     1     -10.340   9.971  67.000  1.00  0.00    -0.223 OA 
HETATM   10  O   UNL     1      -8.965  11.790  68.083  1.00  0.00    -0.168 OA 
BRANCH   8  11
HETATM   11  N   UNL     1     -11.448  11.981  68.036  1.00  0.00    -0.304 N  
HETATM   12  H   UNL     1     -12.139  11.817  68.768  1.00  0.00     0.000 HD 
BRANCH  11  13
HETATM   13  C   UNL     1     -11.728  13.034  67.167  1.00  0.00    -0.382 C  
HETATM   14  O   UNL     1     -12.578  12.866  66.303  1.00  0.00    -0.380 OA 
BRANCH  13  15
HETATM   15  N   UNL     1     -11.038  14.202  67.400  1.00  0.00    -0.298 N  
HETATM   16  H   UNL     1     -10.514  14.611  66.626  1.00  0.00     0.000 HD 
BRANCH  15  17
HETATM   17  N   UNL     1     -11.011  14.864  68.642  1.00  0.00    -0.247 NA 
HETATM   18  C   UNL     1      -9.636  15.125  69.112  1.00  0.00    -0.232 C  
HETATM   19  C   UNL     1      -9.253  16.552  68.694  1.00  0.00    -0.238 C  
HETATM   20  C   UNL     1      -8.191  16.636  67.602  1.00  0.00    -0.183 C  
HETATM   21  C   UNL     1      -8.958  16.483  66.302  1.00  0.00    -0.359 C  
HETATM   22  C   UNL     1     -10.269  17.216  66.564  1.00  0.00    -0.322 C  
HETATM   23  C   UNL     1     -10.521  17.149  68.080  1.00  0.00    -0.366 C  
HETATM   24  C   UNL     1     -11.627  16.200  68.533  1.00  0.00    -0.265 C  
ENDBRANCH  15  17
ENDBRANCH  13  15
ENDBRANCH  11  13
ENDBRANCH   8  11
ENDBRANCH   5   8
TORSDOF 5
ENDMDL
MODEL       99
REMARK 921   NORMALIZED FREE ENERGY PREDICTED BY IDOCK:   -5.09 KCAL/MOL
REMARK 922        TOTAL FREE ENERGY PREDICTED BY IDOCK:   -7.36 KCAL/MOL
REMARK 923 INTER-LIGAND FREE ENERGY PREDICTED BY IDOCK:   -6.72 KCAL/MOL
REMARK 924 INTRA-LIGAND FREE ENERGY PREDICTED BY IDOCK:   -0.64 KCAL/MOL
REMARK 927      BINDING AFFINITY PREDICTED BY RF-SCORE:    0.00 PKD
ROOT
HETATM    1  C   UNL     1     -10.551   6.371  72.658  1.00  0.00    -0.250 C  
HETATM    2  C   UNL     1     -10.887   7.553  71.798  1.00  0.00    -0.261 A  
HETATM    3  C   UNL     1     -10.377   7.659  70.499  1.00  0.00    -0.211 A  
HETATM    4  C   UNL     1     -10.625   8.799  69.734  1.00  0.00    -0.227 A  
HETATM    5  C   UNL     1     -11.401   9.836  70.266  1.00  0.00    -0.272 A  
HETATM    6  C   UNL     1     -11.936   9.731  71.551  1.00  0.00    -0.488 A  
HETATM    7  C   UNL     1     -11.679   8.590  72.313  1.00  0.00    -0.443 A  
ENDROOT
BRANCH   5   8
HETATM    8  S   UNL     1     -11.564  11.366  69.376  1.00  0.00    -0.355 S  
HETATM    9  O   UNL     1     -12.168  12.320  70.284  1.00  0.00    -0.319 OA 
HETATM   10  O   UNL     1     -12.147  11.082  68.084  1.00  0.00    -0.610 OA 
BRANCH   8  11
HETATM   11  N   UNL     1     -10.000  11.818  69.108  1.00  0.00    -0.410 N  
HETATM   12  H   UNL     1      -9.358  11.674  69.888  1.00  0.00     0.000 HD 
BRANCH  11  13
HETATM   13  C   UNL     1      -9.435  12.370  67.959  1.00  0.00    -0.208 C  
HETATM   14  O   UNL     1      -8.994  11.613  67.105  1.00  0.00    -0.164 OA 
BRANCH  13  15
HETATM   15  N   UNL     1      -9.471  13.744  67.876  1.00  0.00    -0.207 N  
HETATM   16  H   UNL     1      -9.057  14.185  67.055  1.00  0.00     0.000 HD 
BRANCH  15  17
HETATM   17  N   UNL     1     -10.044  14.575  68.856  1.00  0.00    -0.237 NA 
HETATM   18  C   UNL     1      -9.149  15.682  69.250  1.00  0.00    -0.270 C  
HETATM   19  C   UNL     1      -9.529  16.918  68.424  1.00  0.00    -0.258 C  
HETATM   20  C   UNL     1      -8.498  17.332  67.378  1.00  0.00    -0.210 C  
HETATM   21  C   UNL     1      -8.796  16.460  66.173  1.00  0.00    -0.349 C  
HETATM   22  C   UNL     1     -10.316  16.344  66.174  1.00  0.00    -0.354 C  
HETATM   23  C   UNL     1     -10.774  16.511  67.633  1.00  0.00    -0.311 C  
HETATM   24  C   UNL     1     -11.251  15.242  68.333  1.00  0.00    -0.309 C  
ENDBRANCH  15  17
ENDBRANCH  13  15
ENDBRANCH  11  13
ENDBRANCH   8  11
ENDBRANCH   5   8
TORSDOF 5
ENDMDL
MODEL      100
REMARK 921   NORMALIZED FREE ENERGY PREDICTED BY IDOCK:   -5.08 KCAL/MOL
REMARK 922        TOTAL FREE ENERGY PREDICTED BY IDOCK:   -7.35 KCAL/MOL
REMARK 923 INTER-LIGAND FREE ENERGY PREDICTED BY IDOCK:   -6.33 KCAL/MOL
REMARK 924 INTRA-LIGAND FREE ENERGY PREDICTED BY IDOCK:   -1.02 KCAL/MOL
REMARK 927      BINDING AFFINITY PREDICTED BY RF-SCORE:    0.00 PKD
ROOT
HETATM    1  C   UNL     1     -10.509   5.205  66.205  1.00  0.00    -0.341 C  
HETATM    2  C   UNL     1     -10.544   6.071  67.429  1.00  0.00    -0.355 A  
HETATM    3  C   UNL     1     -10.745   5.511  68.696  1.00  0.00    -0.176 A  
HETATM    4  C   UNL     1     -10.859   6.330  69.820  1.00  0.00    -0.399 A  
HETATM    5  C   UNL     1     -10.757   7.719  69.680  1.00  0.00    -0.223 A  
HETATM    6  C   UNL     1     -10.532   8.288  68.426  1.00  0.00    -0.206 A  
HETATM    7  C   UNL     1     -10.425   7.463  67.304  1.00  0.00    -0.385 A  
ENDROOT
BRANCH   5   8
HETATM    8  S   UNL     1     -11.088   8.775  71.071  1.00  0.00    -0.289 S  
HETATM    9  O   UNL     1      -9.905   9.586  71.275  1.00  0.00    -0.228 OA 
HETATM   10  O   UNL     1     -11.643   7.969  72.134  1.00  0.00    -0.297 OA 
BRANCH   8  11
HETATM   11  N   UNL     1     -12.303   9.751  70.526  1.00  0.00    -0.481 N  
HETATM   12  H   UNL     1     -13.158   9.274  70.240  1.00  0.00     0.000 HD 
BRANCH  11  13
HETATM   13  C   UNL     1     -12.317  11.140  70.402  1.00  0.00    -0.344 C  
HETATM   14  O   UNL     1     -12.970  11.789  71.209  1.00  0.00    -0.359 OA 
BRANCH  13  15
HETATM   15  N   UNL     1     -11.543  11.659  69.391  1.00  0.00    -0.299 N  
HETATM   16  H   UNL     1     -10.660  11.195  69.176  1.00  0.00     0.000 HD 
BRANCH  15  17
HETATM   17  N   UNL     1     -11.896  12.793  68.634  1.00  0.00    -0.315 NA 
HETATM   18  C   UNL     1     -10.984  13.931  68.864  1.00  0.00    -0.263 C  
HETATM   19  C   UNL     1      -9.915  13.914  67.763  1.00  0.00    -0.241 C  
HETATM   20  C   UNL     1      -8.513  13.546  68.237  1.00  0.00    -0.168 C  
HETATM   21  C   UNL     1      -8.494  12.029  68.250  1.00  0.00    -0.167 C  
HETATM   22  C   UNL     1      -9.338  11.643  67.042  1.00  0.00    -0.186 C  
HETATM   23  C   UNL     1     -10.333  12.793  66.809  1.00  0.00    -0.248 C  
HETATM   24  C   UNL     1     -11.783  12.511  67.190  1.00  0.00    -0.355 C  
ENDBRANCH  15  17
ENDBRANCH  13  15
ENDBRANCH  11  13
ENDBRANCH   8  11
ENDBRANCH   5   8
TORSDOF 5
ENDMDL
MODEL      101
REMARK 921   NORMALIZED FREE ENERGY PREDICTED BY IDOCK:   -5.07 KCAL/MOL
REMARK 922        TOTAL FREE ENERGY PREDICTED BY IDOCK:   -7.33 KCAL/MOL
REMARK 923 INTER-LIGAND FREE ENERGY PREDICTED BY IDOCK:   -6.54 KCAL/MOL
REMARK 924 INTRA-LIGAND FREE ENERGY PREDICTED BY IDOCK:   -0.79 KCAL/MOL
REMARK 927      BINDING AFFINITY PREDICTED BY RF-SCORE:    0.00 PKD
ROOT
HETATM    1  C   UNL     1     -13.348  14.103  72.681  1.00  0.00    -0.638 C  
HETATM    2  C   UNL     1     -12.482  14.480  71.516  1.00  0.00    -0.424 A  
HETATM    3  C   UNL     1     -12.004  15.788  71.374  1.00  0.00    -0.499 A  
HETATM    4  C   UNL     1     -11.268  16.151  70.246  1.00  0.00    -0.389 A  
HETATM    5  C   UNL     1     -10.994  15.198  69.259  1.00  0.00    -0.258 A  
HETATM    6  C   UNL     1     -11.443  13.884  69.402  1.00  0.00    -0.334 A  
HETATM    7  C   UNL     1     -12.185  13.528  70.530  1.00  0.00    -0.433 A  
ENDROOT
BRANCH   5   8
HETATM    8  S   UNL     1     -10.223  15.695  67.737  1.00  0.00    -0.257 S  
HETATM    9  O   UNL     1     -11.088  15.253  66.662  1.00  0.00    -0.324 OA 
HETATM   10  O   UNL     1      -8.829  15.319  67.787  1.00  0.00    -0.169 OA 
BRANCH   8  11
HETATM   11  N   UNL     1     -10.277  17.344  67.805  1.00  0.00    -0.329 N  
HETATM   12  H   UNL     1     -10.996  17.737  68.415  1.00  0.00     0.000 HD 
BRANCH  11  13
HETATM   13  C   UNL     1      -9.475  18.272  67.143  1.00  0.00    -0.268 C  
HETATM   14  O   UNL     1      -9.998  19.012  66.321  1.00  0.00    -0.362 OA 
BRANCH  13  15
HETATM   15  N   UNL     1      -8.152  18.296  67.520  1.00  0.00    -0.238 N  
HETATM   16  H   UNL     1      -7.669  17.404  67.632  1.00  0.00     0.000 HD 
BRANCH  15  17
HETATM   17  N   UNL     1      -7.425  19.478  67.760  1.00  0.00    -0.262 NA 
HETATM   18  C   UNL     1      -7.190  19.711  69.199  1.00  0.00    -0.327 C  
HETATM   19  C   UNL     1      -5.803  19.156  69.552  1.00  0.00    -0.268 C  
HETATM   20  C   UNL     1      -5.817  17.909  70.430  1.00  0.00    -0.065 C  
HETATM   21  C   UNL     1      -6.011  16.756  69.464  1.00  0.00    -0.210 C  
HETATM   22  C   UNL     1      -5.217  17.175  68.232  1.00  0.00    -0.127 C  
HETATM   23  C   UNL     1      -5.193  18.713  68.220  1.00  0.00    -0.177 C  
HETATM   24  C   UNL     1      -6.075  19.388  67.173  1.00  0.00    -0.182 C  
ENDBRANCH  15  17
ENDBRANCH  13  15
ENDBRANCH  11  13
ENDBRANCH   8  11
ENDBRANCH   5   8
TORSDOF 5
ENDMDL
MODEL      102
REMARK 921   NORMALIZED FREE ENERGY PREDICTED BY IDOCK:   -5.07 KCAL/MOL
REMARK 922        TOTAL FREE ENERGY PREDICTED BY IDOCK:   -7.33 KCAL/MOL
REMARK 923 INTER-LIGAND FREE ENERGY PREDICTED BY IDOCK:   -6.68 KCAL/MOL
REMARK 924 INTRA-LIGAND FREE ENERGY PREDICTED BY IDOCK:   -0.65 KCAL/MOL
REMARK 927      BINDING AFFINITY PREDICTED BY RF-SCORE:    0.00 PKD
ROOT
HETATM    1  C   UNL     1     -10.620   8.412  67.538  1.00  0.00    -0.285 C  
HETATM    2  C   UNL     1     -10.763   9.900  67.660  1.00  0.00    -0.339 A  
HETATM    3  C   UNL     1     -10.524  10.733  66.561  1.00  0.00    -0.299 A  
HETATM    4  C   UNL     1     -10.578  12.120  66.702  1.00  0.00    -0.266 A  
HETATM    5  C   UNL     1     -10.886  12.680  67.947  1.00  0.00    -0.219 A  
HETATM    6  C   UNL     1     -11.151  11.858  69.044  1.00  0.00    -0.300 A  
HETATM    7  C   UNL     1     -11.090  10.471  68.898  1.00  0.00    -0.312 A  
ENDROOT
BRANCH   5   8
HETATM    8  S   UNL     1     -10.772  14.438  68.181  1.00  0.00    -0.240 S  
HETATM    9  O   UNL     1     -11.402  14.736  69.451  1.00  0.00    -0.256 OA 
HETATM   10  O   UNL     1     -11.190  15.088  66.960  1.00  0.00    -0.331 OA 
BRANCH   8  11
HETATM   11  N   UNL     1      -9.148  14.696  68.330  1.00  0.00    -0.186 N  
HETATM   12  H   UNL     1      -8.551  13.905  68.088  1.00  0.00     0.000 HD 
BRANCH  11  13
HETATM   13  C   UNL     1      -8.482  15.849  68.744  1.00  0.00    -0.204 C  
HETATM   14  O   UNL     1      -7.687  15.761  69.670  1.00  0.00    -0.196 OA 
BRANCH  13  15
HETATM   15  N   UNL     1      -8.757  16.989  68.024  1.00  0.00    -0.213 N  
HETATM   16  H   UNL     1      -9.724  17.159  67.747  1.00  0.00     0.000 HD 
BRANCH  15  17
HETATM   17  N   UNL     1      -7.783  17.934  67.649  1.00  0.00    -0.211 NA 
HETATM   18  C   UNL     1      -8.042  18.509  66.313  1.00  0.00    -0.233 C  
HETATM   19  C   UNL     1      -8.802  19.828  66.501  1.00  0.00    -0.420 C  
HETATM   20  C   UNL     1     -10.257  19.800  66.044  1.00  0.00    -0.600 C  
HETATM   21  C   UNL     1     -11.021  19.216  67.218  1.00  0.00    -0.417 C  
HETATM   22  C   UNL     1     -10.305  19.783  68.438  1.00  0.00    -0.513 C  
HETATM   23  C   UNL     1      -8.852  20.056  68.014  1.00  0.00    -0.297 C  
HETATM   24  C   UNL     1      -7.803  19.093  68.562  1.00  0.00    -0.345 C  
ENDBRANCH  15  17
ENDBRANCH  13  15
ENDBRANCH  11  13
ENDBRANCH   8  11
ENDBRANCH   5   8
TORSDOF 5
ENDMDL
MODEL      103
REMARK 921   NORMALIZED FREE ENERGY PREDICTED BY IDOCK:   -5.06 KCAL/MOL
REMARK 922        TOTAL FREE ENERGY PREDICTED BY IDOCK:   -7.32 KCAL/MOL
REMARK 923 INTER-LIGAND FREE ENERGY PREDICTED BY IDOCK:   -6.45 KCAL/MOL
REMARK 924 INTRA-LIGAND FREE ENERGY PREDICTED BY IDOCK:   -0.87 KCAL/MOL
REMARK 927      BINDING AFFINITY PREDICTED BY RF-SCORE:    0.00 PKD
ROOT
HETATM    1  C   UNL     1      -9.317   3.463  68.809  1.00  0.00    -0.234 C  
HETATM    2  C   UNL     1      -9.872   4.657  69.528  1.00  0.00    -0.286 A  
HETATM    3  C   UNL     1     -10.643   5.607  68.848  1.00  0.00    -0.303 A  
HETATM    4  C   UNL     1     -11.087   6.755  69.503  1.00  0.00    -0.324 A  
HETATM    5  C   UNL     1     -10.771   6.951  70.853  1.00  0.00    -0.230 A  
HETATM    6  C   UNL     1     -10.025   5.999  71.548  1.00  0.00    -0.212 A  
HETATM    7  C   UNL     1      -9.579   4.854  70.886  1.00  0.00    -0.241 A  
ENDROOT
BRANCH   5   8
HETATM    8  S   UNL     1     -11.170   8.493  71.640  1.00  0.00    -0.317 S  
HETATM    9  O   UNL     1      -9.959   9.289  71.646  1.00  0.00    -0.294 OA 
HETATM   10  O   UNL     1     -11.892   8.210  72.859  1.00  0.00    -0.352 OA 
BRANCH   8  11
HETATM   11  N   UNL     1     -12.245   9.186  70.596  1.00  0.00    -0.486 N  
HETATM   12  H   UNL     1     -12.987   8.574  70.256  1.00  0.00     0.000 HD 
BRANCH  11  13
HETATM   13  C   UNL     1     -12.275  10.495  70.116  1.00  0.00    -0.280 C  
HETATM   14  O   UNL     1     -12.422  11.406  70.920  1.00  0.00    -0.370 OA 
BRANCH  13  15
HETATM   15  N   UNL     1     -12.088  10.640  68.761  1.00  0.00    -0.463 N  
HETATM   16  H   UNL     1     -12.885  10.934  68.196  1.00  0.00     0.000 HD 
BRANCH  15  17
HETATM   17  N   UNL     1     -10.863  10.406  68.107  1.00  0.00    -0.243 NA 
HETATM   18  C   UNL     1     -10.891  10.824  66.691  1.00  0.00    -0.164 C  
HETATM   19  C   UNL     1     -10.313  12.242  66.601  1.00  0.00    -0.237 C  
HETATM   20  C   UNL     1     -11.328  13.328  66.257  1.00  0.00    -0.336 C  
HETATM   21  C   UNL     1     -11.969  13.694  67.582  1.00  0.00    -0.386 C  
HETATM   22  C   UNL     1     -10.822  13.596  68.581  1.00  0.00    -0.283 C  
HETATM   23  C   UNL     1      -9.824  12.571  68.013  1.00  0.00    -0.214 C  
HETATM   24  C   UNL     1      -9.788  11.215  68.712  1.00  0.00    -0.192 C  
ENDBRANCH  15  17
ENDBRANCH  13  15
ENDBRANCH  11  13
ENDBRANCH   8  11
ENDBRANCH   5   8
TORSDOF 5
ENDMDL
MODEL      104
REMARK 921   NORMALIZED FREE ENERGY PREDICTED BY IDOCK:   -5.06 KCAL/MOL
REMARK 922        TOTAL FREE ENERGY PREDICTED BY IDOCK:   -7.32 KCAL/MOL
REMARK 923 INTER-LIGAND FREE ENERGY PREDICTED BY IDOCK:   -6.42 KCAL/MOL
REMARK 924 INTRA-LIGAND FREE ENERGY PREDICTED BY IDOCK:   -0.90 KCAL/MOL
REMARK 927      BINDING AFFINITY PREDICTED BY RF-SCORE:    0.00 PKD
ROOT
HETATM    1  C   UNL     1      -6.204   8.658  67.978  1.00  0.00    -0.052 C  
HETATM    2  C   UNL     1      -7.492   9.269  68.445  1.00  0.00    -0.078 A  
HETATM    3  C   UNL     1      -8.538   8.465  68.911  1.00  0.00    -0.135 A  
HETATM    4  C   UNL     1      -9.761   9.034  69.266  1.00  0.00    -0.168 A  
HETATM    5  C   UNL     1      -9.938  10.419  69.168  1.00  0.00    -0.223 A  
HETATM    6  C   UNL     1      -8.893  11.234  68.729  1.00  0.00    -0.106 A  
HETATM    7  C   UNL     1      -7.674  10.658  68.370  1.00  0.00    -0.106 A  
ENDROOT
BRANCH   5   8
HETATM    8  S   UNL     1     -11.545  11.128  69.436  1.00  0.00    -0.349 S  
HETATM    9  O   UNL     1     -12.076  10.523  70.642  1.00  0.00    -0.296 OA 
HETATM   10  O   UNL     1     -12.274  11.090  68.190  1.00  0.00    -0.578 OA 
BRANCH   8  11
HETATM   11  N   UNL     1     -11.212  12.714  69.751  1.00  0.00    -0.482 N  
HETATM   12  H   UNL     1     -10.479  12.883  70.440  1.00  0.00     0.000 HD 
BRANCH  11  13
HETATM   13  C   UNL     1     -11.798  13.854  69.202  1.00  0.00    -0.358 C  
HETATM   14  O   UNL     1     -12.358  14.640  69.954  1.00  0.00    -0.321 OA 
BRANCH  13  15
HETATM   15  N   UNL     1     -11.648  14.009  67.843  1.00  0.00    -0.323 N  
HETATM   16  H   UNL     1     -12.423  13.733  67.241  1.00  0.00     0.000 HD 
BRANCH  15  17
HETATM   17  N   UNL     1     -10.488  14.525  67.235  1.00  0.00    -0.264 NA 
HETATM   18  C   UNL     1      -9.764  13.508  66.446  1.00  0.00    -0.289 C  
HETATM   19  C   UNL     1     -10.210  13.633  64.983  1.00  0.00    -0.356 C  
HETATM   20  C   UNL     1     -11.060  12.474  64.471  1.00  0.00    -0.357 C  
HETATM   21  C   UNL     1     -12.474  12.805  64.910  1.00  0.00    -0.563 C  
HETATM   22  C   UNL     1     -12.554  14.320  64.768  1.00  0.00    -0.310 C  
HETATM   23  C   UNL     1     -11.124  14.860  64.942  1.00  0.00    -0.424 C  
HETATM   24  C   UNL     1     -10.834  15.575  66.259  1.00  0.00    -0.283 C  
ENDBRANCH  15  17
ENDBRANCH  13  15
ENDBRANCH  11  13
ENDBRANCH   8  11
ENDBRANCH   5   8
TORSDOF 5
ENDMDL
MODEL      105
REMARK 921   NORMALIZED FREE ENERGY PREDICTED BY IDOCK:   -5.06 KCAL/MOL
REMARK 922        TOTAL FREE ENERGY PREDICTED BY IDOCK:   -7.31 KCAL/MOL
REMARK 923 INTER-LIGAND FREE ENERGY PREDICTED BY IDOCK:   -6.70 KCAL/MOL
REMARK 924 INTRA-LIGAND FREE ENERGY PREDICTED BY IDOCK:   -0.62 KCAL/MOL
REMARK 927      BINDING AFFINITY PREDICTED BY RF-SCORE:    0.00 PKD
ROOT
HETATM    1  C   UNL     1     -10.247  16.669  65.963  1.00  0.00    -0.366 C  
HETATM    2  C   UNL     1     -10.657  15.525  66.843  1.00  0.00    -0.307 A  
HETATM    3  C   UNL     1     -10.060  15.336  68.094  1.00  0.00    -0.229 A  
HETATM    4  C   UNL     1     -10.387  14.224  68.871  1.00  0.00    -0.218 A  
HETATM    5  C   UNL     1     -11.329  13.301  68.401  1.00  0.00    -0.291 A  
HETATM    6  C   UNL     1     -11.950  13.493  67.166  1.00  0.00    -0.426 A  
HETATM    7  C   UNL     1     -11.614  14.604  66.391  1.00  0.00    -0.343 A  
ENDROOT
BRANCH   5   8
HETATM    8  S   UNL     1     -11.610  11.791  69.295  1.00  0.00    -0.341 S  
HETATM    9  O   UNL     1     -12.308  10.894  68.396  1.00  0.00    -0.477 OA 
HETATM   10  O   UNL     1     -12.145  12.123  70.595  1.00  0.00    -0.365 OA 
BRANCH   8  11
HETATM   11  N   UNL     1     -10.086  11.204  69.539  1.00  0.00    -0.433 N  
HETATM   12  H   UNL     1      -9.423  11.858  69.956  1.00  0.00     0.000 HD 
BRANCH  11  13
HETATM   13  C   UNL     1      -9.583   9.937  69.251  1.00  0.00    -0.205 C  
HETATM   14  O   UNL     1      -8.667   9.843  68.445  1.00  0.00    -0.117 OA 
BRANCH  13  15
HETATM   15  N   UNL     1     -10.147   8.896  69.952  1.00  0.00    -0.189 N  
HETATM   16  H   UNL     1     -10.786   9.122  70.715  1.00  0.00     0.000 HD 
BRANCH  15  17
HETATM   17  N   UNL     1      -9.895   7.537  69.680  1.00  0.00    -0.178 NA 
HETATM   18  C   UNL     1      -9.291   6.835  70.830  1.00  0.00    -0.161 C  
HETATM   19  C   UNL     1     -10.418   6.147  71.613  1.00  0.00    -0.267 C  
HETATM   20  C   UNL     1     -10.711   6.755  72.981  1.00  0.00    -0.315 C  
HETATM   21  C   UNL     1     -11.645   7.917  72.697  1.00  0.00    -0.435 C  
HETATM   22  C   UNL     1     -12.517   7.414  71.553  1.00  0.00    -0.394 C  
HETATM   23  C   UNL     1     -11.684   6.374  70.784  1.00  0.00    -0.378 C  
HETATM   24  C   UNL     1     -11.155   6.815  69.422  1.00  0.00    -0.261 C  
ENDBRANCH  15  17
ENDBRANCH  13  15
ENDBRANCH  11  13
ENDBRANCH   8  11
ENDBRANCH   5   8
TORSDOF 5
ENDMDL
MODEL      106
REMARK 921   NORMALIZED FREE ENERGY PREDICTED BY IDOCK:   -5.05 KCAL/MOL
REMARK 922        TOTAL FREE ENERGY PREDICTED BY IDOCK:   -7.30 KCAL/MOL
REMARK 923 INTER-LIGAND FREE ENERGY PREDICTED BY IDOCK:   -7.12 KCAL/MOL
REMARK 924 INTRA-LIGAND FREE ENERGY PREDICTED BY IDOCK:   -0.18 KCAL/MOL
REMARK 927      BINDING AFFINITY PREDICTED BY RF-SCORE:    0.00 PKD
ROOT
HETATM    1  C   UNL     1     -10.640   5.203  66.330  1.00  0.00    -0.336 C  
HETATM    2  C   UNL     1     -10.633   6.309  67.343  1.00  0.00    -0.361 A  
HETATM    3  C   UNL     1     -10.269   7.610  66.978  1.00  0.00    -0.371 A  
HETATM    4  C   UNL     1     -10.184   8.616  67.941  1.00  0.00    -0.273 A  
HETATM    5  C   UNL     1     -10.480   8.324  69.278  1.00  0.00    -0.210 A  
HETATM    6  C   UNL     1     -10.870   7.036  69.650  1.00  0.00    -0.275 A  
HETATM    7  C   UNL     1     -10.946   6.033  68.682  1.00  0.00    -0.361 A  
ENDROOT
BRANCH   5   8
HETATM    8  S   UNL     1     -10.194   9.547  70.535  1.00  0.00    -0.294 S  
HETATM    9  O   UNL     1      -8.875   9.292  71.078  1.00  0.00    -0.218 OA 
HETATM   10  O   UNL     1     -11.361   9.608  71.386  1.00  0.00    -0.361 OA 
BRANCH   8  11
HETATM   11  N   UNL     1     -10.145  10.961  69.685  1.00  0.00    -0.439 N  
HETATM   12  H   UNL     1      -9.219  11.374  69.568  1.00  0.00     0.000 HD 
BRANCH  11  13
HETATM   13  C   UNL     1     -11.198  11.668  69.106  1.00  0.00    -0.263 C  
HETATM   14  O   UNL     1     -12.211  11.055  68.799  1.00  0.00    -0.546 OA 
BRANCH  13  15
HETATM   15  N   UNL     1     -11.007  13.025  68.975  1.00  0.00    -0.365 N  
HETATM   16  H   UNL     1     -10.075  13.397  69.156  1.00  0.00     0.000 HD 
BRANCH  15  17
HETATM   17  N   UNL     1     -12.021  13.928  68.605  1.00  0.00    -0.367 NA 
HETATM   18  C   UNL     1     -11.861  15.249  69.246  1.00  0.00    -0.329 C  
HETATM   19  C   UNL     1     -11.117  16.167  68.267  1.00  0.00    -0.348 C  
HETATM   20  C   UNL     1      -9.694  16.526  68.682  1.00  0.00    -0.247 C  
HETATM   21  C   UNL     1      -8.845  15.363  68.205  1.00  0.00    -0.176 C  
HETATM   22  C   UNL     1      -9.492  14.955  66.888  1.00  0.00    -0.251 C  
HETATM   23  C   UNL     1     -10.975  15.354  66.978  1.00  0.00    -0.306 C  
HETATM   24  C   UNL     1     -11.967  14.209  67.158  1.00  0.00    -0.426 C  
ENDBRANCH  15  17
ENDBRANCH  13  15
ENDBRANCH  11  13
ENDBRANCH   8  11
ENDBRANCH   5   8
TORSDOF 5
ENDMDL
MODEL      107
REMARK 921   NORMALIZED FREE ENERGY PREDICTED BY IDOCK:   -5.04 KCAL/MOL
REMARK 922        TOTAL FREE ENERGY PREDICTED BY IDOCK:   -7.29 KCAL/MOL
REMARK 923 INTER-LIGAND FREE ENERGY PREDICTED BY IDOCK:   -6.56 KCAL/MOL
REMARK 924 INTRA-LIGAND FREE ENERGY PREDICTED BY IDOCK:   -0.73 KCAL/MOL
REMARK 927      BINDING AFFINITY PREDICTED BY RF-SCORE:    0.00 PKD
ROOT
HETATM    1  C   UNL     1     -12.387   6.835  71.649  1.00  0.00    -0.409 C  
HETATM    2  C   UNL     1     -11.446   7.207  70.542  1.00  0.00    -0.334 A  
HETATM    3  C   UNL     1     -10.745   8.418  70.576  1.00  0.00    -0.247 A  
HETATM    4  C   UNL     1      -9.935   8.795  69.504  1.00  0.00    -0.195 A  
HETATM    5  C   UNL     1      -9.812   7.950  68.395  1.00  0.00    -0.173 A  
HETATM    6  C   UNL     1     -10.487   6.728  68.361  1.00  0.00    -0.238 A  
HETATM    7  C   UNL     1     -11.300   6.359  69.433  1.00  0.00    -0.443 A  
ENDROOT
BRANCH   5   8
HETATM    8  S   UNL     1      -8.937   8.505  66.952  1.00  0.00    -0.149 S  
HETATM    9  O   UNL     1      -8.373   7.328  66.323  1.00  0.00    -0.116 OA 
HETATM   10  O   UNL     1      -8.112   9.631  67.323  1.00  0.00    -0.109 OA 
BRANCH   8  11
HETATM   11  N   UNL     1     -10.138   9.090  65.981  1.00  0.00    -0.394 N  
HETATM   12  H   UNL     1     -10.929   8.462  65.830  1.00  0.00     0.000 HD 
BRANCH  11  13
HETATM   13  C   UNL     1     -10.219  10.325  65.340  1.00  0.00    -0.242 C  
HETATM   14  O   UNL     1      -9.625  10.470  64.280  1.00  0.00    -0.254 OA 
BRANCH  13  15
HETATM   15  N   UNL     1     -11.012  11.267  65.954  1.00  0.00    -0.209 N  
HETATM   16  H   UNL     1     -11.972  11.372  65.626  1.00  0.00     0.000 HD 
BRANCH  15  17
HETATM   17  N   UNL     1     -10.577  12.095  67.006  1.00  0.00    -0.223 NA 
HETATM   18  C   UNL     1      -9.670  13.165  66.544  1.00  0.00    -0.268 C  
HETATM   19  C   UNL     1     -10.507  14.430  66.309  1.00  0.00    -0.292 C  
HETATM   20  C   UNL     1     -10.662  14.834  64.847  1.00  0.00    -0.438 C  
HETATM   21  C   UNL     1     -11.819  13.998  64.333  1.00  0.00    -0.453 C  
HETATM   22  C   UNL     1     -12.773  13.928  65.519  1.00  0.00    -0.536 C  
HETATM   23  C   UNL     1     -11.917  14.078  66.789  1.00  0.00    -0.473 C  
HETATM   24  C   UNL     1     -11.716  12.809  67.613  1.00  0.00    -0.367 C  
ENDBRANCH  15  17
ENDBRANCH  13  15
ENDBRANCH  11  13
ENDBRANCH   8  11
ENDBRANCH   5   8
TORSDOF 5
ENDMDL
MODEL      108
REMARK 921   NORMALIZED FREE ENERGY PREDICTED BY IDOCK:   -5.04 KCAL/MOL
REMARK 922        TOTAL FREE ENERGY PREDICTED BY IDOCK:   -7.29 KCAL/MOL
REMARK 923 INTER-LIGAND FREE ENERGY PREDICTED BY IDOCK:   -6.39 KCAL/MOL
REMARK 924 INTRA-LIGAND FREE ENERGY PREDICTED BY IDOCK:   -0.90 KCAL/MOL
REMARK 927      BINDING AFFINITY PREDICTED BY RF-SCORE:    0.00 PKD
ROOT
HETATM    1  C   UNL     1     -11.790  13.533  63.868  1.00  0.00    -0.460 C  
HETATM    2  C   UNL     1     -11.459  12.818  65.145  1.00  0.00    -0.356 A  
HETATM    3  C   UNL     1     -10.515  11.785  65.161  1.00  0.00    -0.330 A  
HETATM    4  C   UNL     1     -10.273  11.069  66.334  1.00  0.00    -0.284 A  
HETATM    5  C   UNL     1     -10.968  11.398  67.504  1.00  0.00    -0.260 A  
HETATM    6  C   UNL     1     -11.893  12.443  67.506  1.00  0.00    -0.354 A  
HETATM    7  C   UNL     1     -12.136  13.151  66.327  1.00  0.00    -0.460 A  
ENDROOT
BRANCH   5   8
HETATM    8  S   UNL     1     -10.804  10.374  68.948  1.00  0.00    -0.252 S  
HETATM    9  O   UNL     1     -11.023   9.007  68.521  1.00  0.00    -0.073 OA 
HETATM   10  O   UNL     1     -11.579  10.964  70.015  1.00  0.00    -0.284 OA 
BRANCH   8  11
HETATM   11  N   UNL     1      -9.214  10.546  69.357  1.00  0.00    -0.364 N  
HETATM   12  H   UNL     1      -8.709  11.284  68.866  1.00  0.00     0.000 HD 
BRANCH  11  13
HETATM   13  C   UNL     1      -8.468   9.818  70.282  1.00  0.00    -0.126 C  
HETATM   14  O   UNL     1      -7.319  10.173  70.511  1.00  0.00    -0.292 OA 
BRANCH  13  15
HETATM   15  N   UNL     1      -9.126   8.777  70.896  1.00  0.00    -0.188 N  
HETATM   16  H   UNL     1      -9.336   7.949  70.339  1.00  0.00     0.000 HD 
BRANCH  15  17
HETATM   17  N   UNL     1      -9.526   8.787  72.246  1.00  0.00    -0.330 NA 
HETATM   18  C   UNL     1     -10.992   8.712  72.399  1.00  0.00    -0.253 C  
HETATM   19  C   UNL     1     -11.374   7.242  72.620  1.00  0.00    -0.333 C  
HETATM   20  C   UNL     1     -12.123   6.594  71.460  1.00  0.00    -0.406 C  
HETATM   21  C   UNL     1     -11.038   6.146  70.499  1.00  0.00    -0.405 C  
HETATM   22  C   UNL     1      -9.905   5.695  71.412  1.00  0.00    -0.221 C  
HETATM   23  C   UNL     1     -10.046   6.489  72.722  1.00  0.00    -0.193 C  
HETATM   24  C   UNL     1      -9.017   7.594  72.948  1.00  0.00    -0.169 C  
ENDBRANCH  15  17
ENDBRANCH  13  15
ENDBRANCH  11  13
ENDBRANCH   8  11
ENDBRANCH   5   8
TORSDOF 5
ENDMDL
MODEL      109
REMARK 921   NORMALIZED FREE ENERGY PREDICTED BY IDOCK:   -5.04 KCAL/MOL
REMARK 922        TOTAL FREE ENERGY PREDICTED BY IDOCK:   -7.29 KCAL/MOL
REMARK 923 INTER-LIGAND FREE ENERGY PREDICTED BY IDOCK:   -6.60 KCAL/MOL
REMARK 924 INTRA-LIGAND FREE ENERGY PREDICTED BY IDOCK:   -0.69 KCAL/MOL
REMARK 927      BINDING AFFINITY PREDICTED BY RF-SCORE:    0.00 PKD
ROOT
HETATM    1  C   UNL     1     -10.956   6.228  69.429  1.00  0.00    -0.440 C  
HETATM    2  C   UNL     1     -10.655   7.458  68.625  1.00  0.00    -0.182 A  
HETATM    3  C   UNL     1     -10.647   8.721  69.228  1.00  0.00    -0.210 A  
HETATM    4  C   UNL     1     -10.449   9.868  68.459  1.00  0.00    -0.232 A  
HETATM    5  C   UNL     1     -10.243   9.753  67.079  1.00  0.00    -0.229 A  
HETATM    6  C   UNL     1     -10.224   8.497  66.471  1.00  0.00    -0.286 A  
HETATM    7  C   UNL     1     -10.430   7.353  67.245  1.00  0.00    -0.385 A  
ENDROOT
BRANCH   5   8
HETATM    8  S   UNL     1     -10.178  11.213  66.068  1.00  0.00    -0.257 S  
HETATM    9  O   UNL     1     -10.634  10.831  64.747  1.00  0.00    -0.310 OA 
HETATM   10  O   UNL     1      -8.898  11.851  66.270  1.00  0.00    -0.186 OA 
BRANCH   8  11
HETATM   11  N   UNL     1     -11.316  12.196  66.749  1.00  0.00    -0.322 N  
HETATM   12  H   UNL     1     -11.782  11.825  67.578  1.00  0.00     0.000 HD 
BRANCH  11  13
HETATM   13  C   UNL     1     -11.727  13.466  66.345  1.00  0.00    -0.368 C  
HETATM   14  O   UNL     1     -12.761  13.564  65.698  1.00  0.00    -0.480 OA 
BRANCH  13  15
HETATM   15  N   UNL     1     -10.936  14.512  66.760  1.00  0.00    -0.309 N  
HETATM   16  H   UNL     1     -11.022  14.824  67.727  1.00  0.00     0.000 HD 
BRANCH  15  17
HETATM   17  N   UNL     1     -10.014  15.177  65.929  1.00  0.00    -0.304 NA 
HETATM   18  C   UNL     1     -10.416  16.568  65.641  1.00  0.00    -0.324 C  
HETATM   19  C   UNL     1      -9.703  17.487  66.643  1.00  0.00    -0.303 C  
HETATM   20  C   UNL     1     -10.616  18.134  67.680  1.00  0.00    -0.424 C  
HETATM   21  C   UNL     1     -10.763  17.091  68.772  1.00  0.00    -0.313 C  
HETATM   22  C   UNL     1      -9.390  16.432  68.834  1.00  0.00    -0.249 C  
HETATM   23  C   UNL     1      -8.765  16.573  67.435  1.00  0.00    -0.195 C  
HETATM   24  C   UNL     1      -8.704  15.299  66.597  1.00  0.00    -0.291 C  
ENDBRANCH  15  17
ENDBRANCH  13  15
ENDBRANCH  11  13
ENDBRANCH   8  11
ENDBRANCH   5   8
TORSDOF 5
ENDMDL
MODEL      110
REMARK 921   NORMALIZED FREE ENERGY PREDICTED BY IDOCK:   -5.04 KCAL/MOL
REMARK 922        TOTAL FREE ENERGY PREDICTED BY IDOCK:   -7.29 KCAL/MOL
REMARK 923 INTER-LIGAND FREE ENERGY PREDICTED BY IDOCK:   -6.40 KCAL/MOL
REMARK 924 INTRA-LIGAND FREE ENERGY PREDICTED BY IDOCK:   -0.89 KCAL/MOL
REMARK 927      BINDING AFFINITY PREDICTED BY RF-SCORE:    0.00 PKD
ROOT
HETATM    1  C   UNL     1      -8.957  17.873  66.803  1.00  0.00    -0.272 C  
HETATM    2  C   UNL     1      -9.540  16.525  66.498  1.00  0.00    -0.292 A  
HETATM    3  C   UNL     1     -10.899  16.387  66.193  1.00  0.00    -0.075 A  
HETATM    4  C   UNL     1     -11.452  15.123  65.991  1.00  0.00    -0.157 A  
HETATM    5  C   UNL     1     -10.639  13.987  66.081  1.00  0.00    -0.290 A  
HETATM    6  C   UNL     1      -9.278  14.114  66.360  1.00  0.00    -0.209 A  
HETATM    7  C   UNL     1      -8.731  15.382  66.566  1.00  0.00    -0.335 A  
ENDROOT
BRANCH   5   8
HETATM    8  S   UNL     1     -11.369  12.368  66.013  1.00  0.00    -0.370 S  
HETATM    9  O   UNL     1     -10.326  11.453  65.598  1.00  0.00    -0.240 OA 
HETATM   10  O   UNL     1     -12.620  12.461  65.295  1.00  0.00    -0.636 OA 
BRANCH   8  11
HETATM   11  N   UNL     1     -11.743  12.054  67.589  1.00  0.00    -0.321 N  
HETATM   12  H   UNL     1     -12.667  11.652  67.753  1.00  0.00     0.000 HD 
BRANCH  11  13
HETATM   13  C   UNL     1     -10.968  12.263  68.729  1.00  0.00    -0.236 C  
HETATM   14  O   UNL     1      -9.896  11.679  68.818  1.00  0.00    -0.193 OA 
BRANCH  13  15
HETATM   15  N   UNL     1     -11.474  13.160  69.641  1.00  0.00    -0.455 N  
HETATM   16  H   UNL     1     -11.981  12.791  70.445  1.00  0.00     0.000 HD 
BRANCH  15  17
HETATM   17  N   UNL     1     -11.332  14.556  69.531  1.00  0.00    -0.265 NA 
HETATM   18  C   UNL     1     -12.632  15.247  69.416  1.00  0.00     0.080 C  
HETATM   19  C   UNL     1     -13.049  15.713  70.817  1.00  0.00    -0.347 C  
HETATM   20  C   UNL     1     -14.243  14.970  71.410  1.00  0.00    -0.587 C  
HETATM   21  C   UNL     1     -13.652  13.715  72.025  1.00  0.00    -0.585 C  
HETATM   22  C   UNL     1     -12.310  14.178  72.580  1.00  0.00    -0.063 C  
HETATM   23  C   UNL     1     -11.865  15.377  71.726  1.00  0.00    -0.483 C  
HETATM   24  C   UNL     1     -10.720  15.116  70.751  1.00  0.00    -0.070 C  
ENDBRANCH  15  17
ENDBRANCH  13  15
ENDBRANCH  11  13
ENDBRANCH   8  11
ENDBRANCH   5   8
TORSDOF 5
ENDMDL
MODEL      111
REMARK 921   NORMALIZED FREE ENERGY PREDICTED BY IDOCK:   -5.02 KCAL/MOL
REMARK 922        TOTAL FREE ENERGY PREDICTED BY IDOCK:   -7.27 KCAL/MOL
REMARK 923 INTER-LIGAND FREE ENERGY PREDICTED BY IDOCK:   -6.57 KCAL/MOL
REMARK 924 INTRA-LIGAND FREE ENERGY PREDICTED BY IDOCK:   -0.70 KCAL/MOL
REMARK 927      BINDING AFFINITY PREDICTED BY RF-SCORE:    0.00 PKD
ROOT
HETATM    1  C   UNL     1      -5.362  20.264  71.311  1.00  0.00    -0.334 C  
HETATM    2  C   UNL     1      -6.223  20.189  70.085  1.00  0.00    -0.388 A  
HETATM    3  C   UNL     1      -7.389  19.415  70.075  1.00  0.00     0.335 A  
HETATM    4  C   UNL     1      -8.139  19.283  68.907  1.00  0.00    -0.347 A  
HETATM    5  C   UNL     1      -7.731  19.942  67.741  1.00  0.00    -0.292 A  
HETATM    6  C   UNL     1      -6.584  20.737  67.745  1.00  0.00    -0.385 A  
HETATM    7  C   UNL     1      -5.833  20.860  68.916  1.00  0.00    -0.348 A  
ENDROOT
BRANCH   5   8
HETATM    8  S   UNL     1      -8.571  19.630  66.207  1.00  0.00    -0.344 S  
HETATM    9  O   UNL     1      -7.653  19.985  65.144  1.00  0.00    -0.279 OA 
HETATM   10  O   UNL     1      -9.894  20.207  66.286  1.00  0.00    -0.431 OA 
BRANCH   8  11
HETATM   11  N   UNL     1      -8.763  17.990  66.206  1.00  0.00    -0.215 N  
HETATM   12  H   UNL     1      -7.901  17.445  66.241  1.00  0.00     0.000 HD 
BRANCH  11  13
HETATM   13  C   UNL     1      -9.943  17.249  66.164  1.00  0.00    -0.275 C  
HETATM   14  O   UNL     1     -10.567  17.209  65.112  1.00  0.00    -0.695 OA 
BRANCH  13  15
HETATM   15  N   UNL     1     -10.274  16.584  67.322  1.00  0.00    -0.282 N  
HETATM   16  H   UNL     1     -11.219  16.701  67.688  1.00  0.00     0.000 HD 
BRANCH  15  17
HETATM   17  N   UNL     1      -9.387  15.753  68.031  1.00  0.00    -0.196 NA 
HETATM   18  C   UNL     1     -10.077  14.923  69.040  1.00  0.00    -0.237 C  
HETATM   19  C   UNL     1     -10.367  13.553  68.412  1.00  0.00    -0.249 C  
HETATM   20  C   UNL     1     -11.841  13.275  68.136  1.00  0.00    -0.388 C  
HETATM   21  C   UNL     1     -12.114  13.926  66.793  1.00  0.00    -0.476 C  
HETATM   22  C   UNL     1     -10.828  13.696  66.008  1.00  0.00    -0.275 C  
HETATM   23  C   UNL     1      -9.692  13.585  67.039  1.00  0.00    -0.251 C  
HETATM   24  C   UNL     1      -8.747  14.781  67.125  1.00  0.00    -0.221 C  
ENDBRANCH  15  17
ENDBRANCH  13  15
ENDBRANCH  11  13
ENDBRANCH   8  11
ENDBRANCH   5   8
TORSDOF 5
ENDMDL
MODEL      112
REMARK 921   NORMALIZED FREE ENERGY PREDICTED BY IDOCK:   -5.00 KCAL/MOL
REMARK 922        TOTAL FREE ENERGY PREDICTED BY IDOCK:   -7.24 KCAL/MOL
REMARK 923 INTER-LIGAND FREE ENERGY PREDICTED BY IDOCK:   -6.27 KCAL/MOL
REMARK 924 INTRA-LIGAND FREE ENERGY PREDICTED BY IDOCK:   -0.97 KCAL/MOL
REMARK 927      BINDING AFFINITY PREDICTED BY RF-SCORE:    0.00 PKD
ROOT
HETATM    1  C   UNL     1      -5.625  11.873  67.347  1.00  0.00    -0.111 C  
HETATM    2  C   UNL     1      -7.121  11.975  67.298  1.00  0.00    -0.149 A  
HETATM    3  C   UNL     1      -7.850  11.313  66.304  1.00  0.00    -0.069 A  
HETATM    4  C   UNL     1      -9.232  11.479  66.214  1.00  0.00    -0.222 A  
HETATM    5  C   UNL     1      -9.895  12.300  67.134  1.00  0.00    -0.203 A  
HETATM    6  C   UNL     1      -9.181  12.945  68.145  1.00  0.00    -0.212 A  
HETATM    7  C   UNL     1      -7.797  12.780  68.226  1.00  0.00    -0.141 A  
ENDROOT
BRANCH   5   8
HETATM    8  S   UNL     1     -11.620  12.665  66.913  1.00  0.00    -0.383 S  
HETATM    9  O   UNL     1     -12.282  12.336  68.159  1.00  0.00    -0.349 OA 
HETATM   10  O   UNL     1     -12.050  12.096  65.657  1.00  0.00    -0.545 OA 
BRANCH   8  11
HETATM   11  N   UNL     1     -11.640  14.306  66.729  1.00  0.00    -0.374 N  
HETATM   12  H   UNL     1     -12.146  14.824  67.448  1.00  0.00     0.000 HD 
BRANCH  11  13
HETATM   13  C   UNL     1     -11.061  15.078  65.724  1.00  0.00    -0.346 C  
HETATM   14  O   UNL     1     -11.724  15.326  64.725  1.00  0.00    -0.353 OA 
BRANCH  13  15
HETATM   15  N   UNL     1      -9.788  15.534  65.978  1.00  0.00    -0.308 N  
HETATM   16  H   UNL     1      -9.124  14.888  66.405  1.00  0.00     0.000 HD 
BRANCH  15  17
HETATM   17  N   UNL     1      -9.347  16.838  65.683  1.00  0.00    -0.480 NA 
HETATM   18  C   UNL     1     -10.187  17.873  66.319  1.00  0.00    -0.363 C  
HETATM   19  C   UNL     1      -9.521  18.281  67.640  1.00  0.00    -0.275 C  
HETATM   20  C   UNL     1     -10.267  17.841  68.896  1.00  0.00    -0.345 C  
HETATM   21  C   UNL     1      -9.817  16.412  69.134  1.00  0.00    -0.272 C  
HETATM   22  C   UNL     1      -8.350  16.418  68.721  1.00  0.00    -0.242 C  
HETATM   23  C   UNL     1      -8.188  17.531  67.671  1.00  0.00    -0.218 C  
HETATM   24  C   UNL     1      -7.997  17.068  66.229  1.00  0.00    -0.308 C  
ENDBRANCH  15  17
ENDBRANCH  13  15
ENDBRANCH  11  13
ENDBRANCH   8  11
ENDBRANCH   5   8
TORSDOF 5
ENDMDL
MODEL      113
REMARK 921   NORMALIZED FREE ENERGY PREDICTED BY IDOCK:   -4.99 KCAL/MOL
REMARK 922        TOTAL FREE ENERGY PREDICTED BY IDOCK:   -7.23 KCAL/MOL
REMARK 923 INTER-LIGAND FREE ENERGY PREDICTED BY IDOCK:   -5.97 KCAL/MOL
REMARK 924 INTRA-LIGAND FREE ENERGY PREDICTED BY IDOCK:   -1.26 KCAL/MOL
REMARK 927      BINDING AFFINITY PREDICTED BY RF-SCORE:    0.00 PKD
ROOT
HETATM    1  C   UNL     1      -9.106   3.765  69.965  1.00  0.00    -0.193 C  
HETATM    2  C   UNL     1      -9.239   5.120  69.336  1.00  0.00    -0.155 A  
HETATM    3  C   UNL     1     -10.168   5.345  68.313  1.00  0.00    -0.224 A  
HETATM    4  C   UNL     1     -10.229   6.585  67.676  1.00  0.00    -0.210 A  
HETATM    5  C   UNL     1      -9.366   7.613  68.073  1.00  0.00    -0.140 A  
HETATM    6  C   UNL     1      -8.453   7.408  69.109  1.00  0.00    -0.133 A  
HETATM    7  C   UNL     1      -8.393   6.163  69.738  1.00  0.00    -0.124 A  
ENDROOT
BRANCH   5   8
HETATM    8  S   UNL     1      -9.308   9.128  67.146  1.00  0.00    -0.148 S  
HETATM    9  O   UNL     1     -10.177   8.953  65.999  1.00  0.00    -0.199 OA 
HETATM   10  O   UNL     1      -7.925   9.515  66.991  1.00  0.00    -0.107 OA 
BRANCH   8  11
HETATM   11  N   UNL     1     -10.003  10.224  68.165  1.00  0.00    -0.144 N  
HETATM   12  H   UNL     1      -9.358  10.861  68.634  1.00  0.00     0.000 HD 
BRANCH  11  13
HETATM   13  C   UNL     1     -11.352  10.398  68.472  1.00  0.00    -0.220 C  
HETATM   14  O   UNL     1     -12.034  11.090  67.728  1.00  0.00    -0.609 OA 
BRANCH  13  15
HETATM   15  N   UNL     1     -11.805   9.723  69.583  1.00  0.00    -0.445 N  
HETATM   16  H   UNL     1     -12.263   8.823  69.442  1.00  0.00     0.000 HD 
BRANCH  15  17
HETATM   17  N   UNL     1     -11.673  10.201  70.900  1.00  0.00    -0.350 NA 
HETATM   18  C   UNL     1     -12.957  10.203  71.630  1.00  0.00    -0.456 C  
HETATM   19  C   UNL     1     -13.045   8.903  72.441  1.00  0.00    -0.476 C  
HETATM   20  C   UNL     1     -14.086   7.906  71.942  1.00  0.00    -0.471 C  
HETATM   21  C   UNL     1     -13.388   7.141  70.832  1.00  0.00     0.014 C  
HETATM   22  C   UNL     1     -11.951   7.016  71.322  1.00  0.00    -0.388 C  
HETATM   23  C   UNL     1     -11.692   8.214  72.252  1.00  0.00    -0.439 C  
HETATM   24  C   UNL     1     -10.797   9.316  71.691  1.00  0.00    -0.348 C  
ENDBRANCH  15  17
ENDBRANCH  13  15
ENDBRANCH  11  13
ENDBRANCH   8  11
ENDBRANCH   5   8
TORSDOF 5
ENDMDL
MODEL      114
REMARK 921   NORMALIZED FREE ENERGY PREDICTED BY IDOCK:   -4.99 KCAL/MOL
REMARK 922        TOTAL FREE ENERGY PREDICTED BY IDOCK:   -7.23 KCAL/MOL
REMARK 923 INTER-LIGAND FREE ENERGY PREDICTED BY IDOCK:   -6.28 KCAL/MOL
REMARK 924 INTRA-LIGAND FREE ENERGY PREDICTED BY IDOCK:   -0.94 KCAL/MOL
REMARK 927      BINDING AFFINITY PREDICTED BY RF-SCORE:    0.00 PKD
ROOT
HETATM    1  C   UNL     1     -13.726  12.618  72.091  1.00  0.00    -0.406 C  
HETATM    2  C   UNL     1     -13.137  11.336  71.581  1.00  0.00    -0.513 A  
HETATM    3  C   UNL     1     -13.499  10.108  72.147  1.00  0.00    -0.371 A  
HETATM    4  C   UNL     1     -12.887   8.929  71.725  1.00  0.00    -0.419 A  
HETATM    5  C   UNL     1     -11.914   8.973  70.719  1.00  0.00    -0.170 A  
HETATM    6  C   UNL     1     -11.563  10.188  70.129  1.00  0.00    -0.350 A  
HETATM    7  C   UNL     1     -12.175  11.366  70.561  1.00  0.00    -0.478 A  
ENDROOT
BRANCH   5   8
HETATM    8  S   UNL     1     -10.998   7.507  70.308  1.00  0.00    -0.239 S  
HETATM    9  O   UNL     1     -11.658   6.399  70.968  1.00  0.00    -0.324 OA 
HETATM   10  O   UNL     1      -9.592   7.776  70.510  1.00  0.00    -0.167 OA 
BRANCH   8  11
HETATM   11  N   UNL     1     -11.229   7.358  68.680  1.00  0.00    -0.399 N  
HETATM   12  H   UNL     1     -12.167   7.081  68.391  1.00  0.00     0.000 HD 
BRANCH  11  13
HETATM   13  C   UNL     1     -10.315   7.559  67.647  1.00  0.00    -0.229 C  
HETATM   14  O   UNL     1      -9.815   6.577  67.113  1.00  0.00    -0.133 OA 
BRANCH  13  15
HETATM   15  N   UNL     1     -10.092   8.869  67.291  1.00  0.00    -0.217 N  
HETATM   16  H   UNL     1     -10.681   9.587  67.713  1.00  0.00     0.000 HD 
BRANCH  15  17
HETATM   17  N   UNL     1      -9.100   9.277  66.379  1.00  0.00    -0.151 NA 
HETATM   18  C   UNL     1      -9.671   9.755  65.103  1.00  0.00    -0.268 C  
HETATM   19  C   UNL     1      -9.791  11.283  65.178  1.00  0.00    -0.298 C  
HETATM   20  C   UNL     1     -11.221  11.810  65.255  1.00  0.00    -0.315 C  
HETATM   21  C   UNL     1     -11.585  11.730  66.725  1.00  0.00    -0.287 C  
HETATM   22  C   UNL     1     -10.287  12.081  67.443  1.00  0.00    -0.226 C  
HETATM   23  C   UNL     1      -9.137  11.677  66.504  1.00  0.00    -0.200 C  
HETATM   24  C   UNL     1      -8.351  10.433  66.907  1.00  0.00    -0.124 C  
ENDBRANCH  15  17
ENDBRANCH  13  15
ENDBRANCH  11  13
ENDBRANCH   8  11
ENDBRANCH   5   8
TORSDOF 5
ENDMDL
MODEL      115
REMARK 921   NORMALIZED FREE ENERGY PREDICTED BY IDOCK:   -4.95 KCAL/MOL
REMARK 922        TOTAL FREE ENERGY PREDICTED BY IDOCK:   -7.18 KCAL/MOL
REMARK 923 INTER-LIGAND FREE ENERGY PREDICTED BY IDOCK:   -6.39 KCAL/MOL
REMARK 924 INTRA-LIGAND FREE ENERGY PREDICTED BY IDOCK:   -0.78 KCAL/MOL
REMARK 927      BINDING AFFINITY PREDICTED BY RF-SCORE:    0.00 PKD
ROOT
HETATM    1  C   UNL     1      -7.924  17.753  66.562  1.00  0.00    -0.299 C  
HETATM    2  C   UNL     1      -8.842  16.603  66.269  1.00  0.00    -0.348 A  
HETATM    3  C   UNL     1     -10.053  16.809  65.599  1.00  0.00    -0.214 A  
HETATM    4  C   UNL     1     -10.940  15.750  65.403  1.00  0.00    -0.317 A  
HETATM    5  C   UNL     1     -10.609  14.472  65.868  1.00  0.00    -0.309 A  
HETATM    6  C   UNL     1      -9.393  14.249  66.515  1.00  0.00    -0.292 A  
HETATM    7  C   UNL     1      -8.512  15.314  66.714  1.00  0.00    -0.290 A  
ENDROOT
BRANCH   5   8
HETATM    8  S   UNL     1     -11.808  13.163  65.791  1.00  0.00    -0.420 S  
HETATM    9  O   UNL     1     -11.200  12.077  65.049  1.00  0.00    -0.315 OA 
HETATM   10  O   UNL     1     -13.077  13.730  65.394  1.00  0.00    -0.727 OA 
BRANCH   8  11
HETATM   11  N   UNL     1     -11.963  12.697  67.367  1.00  0.00    -0.319 N  
HETATM   12  H   UNL     1     -12.361  13.394  67.996  1.00  0.00     0.000 HD 
BRANCH  11  13
HETATM   13  C   UNL     1     -11.624  11.479  67.954  1.00  0.00    -0.282 C  
HETATM   14  O   UNL     1     -12.354  11.030  68.827  1.00  0.00    -0.533 OA 
BRANCH  13  15
HETATM   15  N   UNL     1     -10.500  10.864  67.451  1.00  0.00    -0.210 N  
HETATM   16  H   UNL     1     -10.546  10.478  66.508  1.00  0.00     0.000 HD 
BRANCH  15  17
HETATM   17  N   UNL     1      -9.290  10.738  68.161  1.00  0.00    -0.150 NA 
HETATM   18  C   UNL     1      -9.363   9.710  69.219  1.00  0.00    -0.180 C  
HETATM   19  C   UNL     1      -8.805   8.399  68.648  1.00  0.00    -0.136 C  
HETATM   20  C   UNL     1      -9.842   7.303  68.428  1.00  0.00    -0.161 C  
HETATM   21  C   UNL     1     -10.450   7.610  67.073  1.00  0.00    -0.419 C  
HETATM   22  C   UNL     1      -9.275   8.135  66.256  1.00  0.00    -0.245 C  
HETATM   23  C   UNL     1      -8.281   8.754  67.255  1.00  0.00    -0.104 C  
HETATM   24  C   UNL     1      -8.209  10.278  67.269  1.00  0.00    -0.121 C  
ENDBRANCH  15  17
ENDBRANCH  13  15
ENDBRANCH  11  13
ENDBRANCH   8  11
ENDBRANCH   5   8
TORSDOF 5
ENDMDL
MODEL      116
REMARK 921   NORMALIZED FREE ENERGY PREDICTED BY IDOCK:   -4.90 KCAL/MOL
REMARK 922        TOTAL FREE ENERGY PREDICTED BY IDOCK:   -7.11 KCAL/MOL
REMARK 923 INTER-LIGAND FREE ENERGY PREDICTED BY IDOCK:   -6.29 KCAL/MOL
REMARK 924 INTRA-LIGAND FREE ENERGY PREDICTED BY IDOCK:   -0.82 KCAL/MOL
REMARK 927      BINDING AFFINITY PREDICTED BY RF-SCORE:    0.00 PKD
ROOT
HETATM    1  C   UNL     1      -8.399  20.281  67.290  1.00  0.00    -0.404 C  
HETATM    2  C   UNL     1      -9.030  18.921  67.247  1.00  0.00    -0.298 A  
HETATM    3  C   UNL     1     -10.161  18.632  68.020  1.00  0.00    -0.413 A  
HETATM    4  C   UNL     1     -10.693  17.343  68.039  1.00  0.00    -0.359 A  
HETATM    5  C   UNL     1     -10.100  16.336  67.268  1.00  0.00    -0.264 A  
HETATM    6  C   UNL     1      -8.988  16.617  66.473  1.00  0.00    -0.310 A  
HETATM    7  C   UNL     1      -8.456  17.908  66.464  1.00  0.00    -0.284 A  
ENDROOT
BRANCH   5   8
HETATM    8  S   UNL     1     -10.654  14.655  67.430  1.00  0.00    -0.269 S  
HETATM    9  O   UNL     1     -10.499  14.033  66.131  1.00  0.00    -0.285 OA 
HETATM   10  O   UNL     1     -11.924  14.657  68.119  1.00  0.00    -0.313 OA 
BRANCH   8  11
HETATM   11  N   UNL     1      -9.549  13.990  68.461  1.00  0.00    -0.245 N  
HETATM   12  H   UNL     1      -9.606  14.303  69.431  1.00  0.00     0.000 HD 
BRANCH  11  13
HETATM   13  C   UNL     1      -8.550  13.058  68.187  1.00  0.00    -0.188 C  
HETATM   14  O   UNL     1      -7.653  13.376  67.418  1.00  0.00    -0.162 OA 
BRANCH  13  15
HETATM   15  N   UNL     1      -8.648  11.860  68.858  1.00  0.00    -0.369 N  
HETATM   16  H   UNL     1      -8.716  11.885  69.875  1.00  0.00     0.000 HD 
BRANCH  15  17
HETATM   17  N   UNL     1      -8.659  10.603  68.223  1.00  0.00    -0.123 NA 
HETATM   18  C   UNL     1      -8.971   9.503  69.158  1.00  0.00    -0.148 C  
HETATM   19  C   UNL     1     -10.476   9.215  69.069  1.00  0.00    -0.238 C  
HETATM   20  C   UNL     1     -11.279   9.611  70.304  1.00  0.00    -0.324 C  
HETATM   21  C   UNL     1     -11.571  11.088  70.119  1.00  0.00    -0.421 C  
HETATM   22  C   UNL     1     -11.797  11.231  68.619  1.00  0.00    -0.369 C  
HETATM   23  C   UNL     1     -10.994  10.109  67.939  1.00  0.00    -0.335 C  
HETATM   24  C   UNL     1      -9.726  10.542  67.207  1.00  0.00    -0.169 C  
ENDBRANCH  15  17
ENDBRANCH  13  15
ENDBRANCH  11  13
ENDBRANCH   8  11
ENDBRANCH   5   8
TORSDOF 5
ENDMDL
MODEL      117
REMARK 921   NORMALIZED FREE ENERGY PREDICTED BY IDOCK:   -4.88 KCAL/MOL
REMARK 922        TOTAL FREE ENERGY PREDICTED BY IDOCK:   -7.09 KCAL/MOL
REMARK 923 INTER-LIGAND FREE ENERGY PREDICTED BY IDOCK:   -6.61 KCAL/MOL
REMARK 924 INTRA-LIGAND FREE ENERGY PREDICTED BY IDOCK:   -0.48 KCAL/MOL
REMARK 927      BINDING AFFINITY PREDICTED BY RF-SCORE:    0.00 PKD
ROOT
HETATM    1  C   UNL     1      -7.651  10.240  62.598  1.00  0.00    -0.151 C  
HETATM    2  C   UNL     1      -8.779  10.778  63.427  1.00  0.00    -0.123 A  
HETATM    3  C   UNL     1      -9.786  11.557  62.845  1.00  0.00    -0.279 A  
HETATM    4  C   UNL     1     -10.787  12.122  63.635  1.00  0.00    -0.523 A  
HETATM    5  C   UNL     1     -10.791  11.896  65.017  1.00  0.00    -0.300 A  
HETATM    6  C   UNL     1      -9.807  11.100  65.605  1.00  0.00    -0.280 A  
HETATM    7  C   UNL     1      -8.805  10.543  64.809  1.00  0.00    -0.211 A  
ENDROOT
BRANCH   5   8
HETATM    8  S   UNL     1     -11.947  12.762  66.052  1.00  0.00    -0.398 S  
HETATM    9  O   UNL     1     -12.124  11.963  67.247  1.00  0.00    -0.582 OA 
HETATM   10  O   UNL     1     -13.074  13.165  65.241  1.00  0.00    -0.678 OA 
BRANCH   8  11
HETATM   11  N   UNL     1     -11.134  14.140  66.460  1.00  0.00    -0.312 N  
HETATM   12  H   UNL     1     -10.691  14.636  65.686  1.00  0.00     0.000 HD 
BRANCH  11  13
HETATM   13  C   UNL     1     -10.970  14.716  67.718  1.00  0.00    -0.286 C  
HETATM   14  O   UNL     1     -11.968  14.949  68.386  1.00  0.00    -0.299 OA 
BRANCH  13  15
HETATM   15  N   UNL     1      -9.669  14.930  68.114  1.00  0.00    -0.211 N  
HETATM   16  H   UNL     1      -8.930  14.425  67.625  1.00  0.00     0.000 HD 
BRANCH  15  17
HETATM   17  N   UNL     1      -9.299  15.804  69.153  1.00  0.00    -0.241 NA 
HETATM   18  C   UNL     1      -7.837  15.997  69.233  1.00  0.00    -0.222 C  
HETATM   19  C   UNL     1      -7.481  17.271  68.454  1.00  0.00    -0.234 C  
HETATM   20  C   UNL     1      -6.716  17.035  67.155  1.00  0.00    -0.214 C  
HETATM   21  C   UNL     1      -7.787  16.728  66.125  1.00  0.00    -0.245 C  
HETATM   22  C   UNL     1      -8.946  17.635  66.522  1.00  0.00    -0.283 C  
HETATM   23  C   UNL     1      -8.822  17.878  68.036  1.00  0.00    -0.268 C  
HETATM   24  C   UNL     1      -9.839  17.156  68.915  1.00  0.00    -0.273 C  
ENDBRANCH  15  17
ENDBRANCH  13  15
ENDBRANCH  11  13
ENDBRANCH   8  11
ENDBRANCH   5   8
TORSDOF 5
ENDMDL
MODEL      118
REMARK 921   NORMALIZED FREE ENERGY PREDICTED BY IDOCK:   -4.88 KCAL/MOL
REMARK 922        TOTAL FREE ENERGY PREDICTED BY IDOCK:   -7.09 KCAL/MOL
REMARK 923 INTER-LIGAND FREE ENERGY PREDICTED BY IDOCK:   -6.46 KCAL/MOL
REMARK 924 INTRA-LIGAND FREE ENERGY PREDICTED BY IDOCK:   -0.63 KCAL/MOL
REMARK 927      BINDING AFFINITY PREDICTED BY RF-SCORE:    0.00 PKD
ROOT
HETATM    1  C   UNL     1     -12.868  13.866  65.296  1.00  0.00    -0.437 C  
HETATM    2  C   UNL     1     -11.908  13.002  66.059  1.00  0.00    -0.471 A  
HETATM    3  C   UNL     1     -11.692  13.208  67.426  1.00  0.00    -0.419 A  
HETATM    4  C   UNL     1     -10.738  12.456  68.111  1.00  0.00    -0.243 A  
HETATM    5  C   UNL     1     -10.003  11.479  67.429  1.00  0.00    -0.190 A  
HETATM    6  C   UNL     1     -10.227  11.247  66.071  1.00  0.00    -0.295 A  
HETATM    7  C   UNL     1     -11.179  12.008  65.390  1.00  0.00    -0.374 A  
ENDROOT
BRANCH   5   8
HETATM    8  S   UNL     1      -8.659  10.651  68.246  1.00  0.00    -0.133 S  
HETATM    9  O   UNL     1      -7.623  11.640  68.461  1.00  0.00    -0.114 OA 
HETATM   10  O   UNL     1      -8.391   9.416  67.545  1.00  0.00    -0.120 OA 
BRANCH   8  11
HETATM   11  N   UNL     1      -9.301  10.241  69.711  1.00  0.00    -0.401 N  
HETATM   12  H   UNL     1     -10.047  10.848  70.052  1.00  0.00     0.000 HD 
BRANCH  11  13
HETATM   13  C   UNL     1      -8.961   9.177  70.545  1.00  0.00    -0.232 C  
HETATM   14  O   UNL     1      -8.115   9.362  71.409  1.00  0.00    -0.306 OA 
BRANCH  13  15
HETATM   15  N   UNL     1      -9.659   8.009  70.340  1.00  0.00    -0.174 N  
HETATM   16  H   UNL     1      -9.127   7.150  70.204  1.00  0.00     0.000 HD 
BRANCH  15  17
HETATM   17  N   UNL     1     -11.065   7.930  70.307  1.00  0.00    -0.252 NA 
HETATM   18  C   UNL     1     -11.556   6.549  70.493  1.00  0.00    -0.393 C  
HETATM   19  C   UNL     1     -11.890   6.358  71.979  1.00  0.00    -0.382 C  
HETATM   20  C   UNL     1     -10.949   5.423  72.732  1.00  0.00    -0.328 C  
HETATM   21  C   UNL     1      -9.772   6.294  73.130  1.00  0.00    -0.164 C  
HETATM   22  C   UNL     1     -10.407   7.642  73.451  1.00  0.00    -0.374 C  
HETATM   23  C   UNL     1     -11.697   7.735  72.618  1.00  0.00    -0.364 C  
HETATM   24  C   UNL     1     -11.656   8.688  71.426  1.00  0.00    -0.293 C  
ENDBRANCH  15  17
ENDBRANCH  13  15
ENDBRANCH  11  13
ENDBRANCH   8  11
ENDBRANCH   5   8
TORSDOF 5
ENDMDL
MODEL      119
REMARK 921   NORMALIZED FREE ENERGY PREDICTED BY IDOCK:   -4.87 KCAL/MOL
REMARK 922        TOTAL FREE ENERGY PREDICTED BY IDOCK:   -7.08 KCAL/MOL
REMARK 923 INTER-LIGAND FREE ENERGY PREDICTED BY IDOCK:   -6.67 KCAL/MOL
REMARK 924 INTRA-LIGAND FREE ENERGY PREDICTED BY IDOCK:   -0.41 KCAL/MOL
REMARK 927      BINDING AFFINITY PREDICTED BY RF-SCORE:    0.00 PKD
ROOT
HETATM    1  C   UNL     1     -10.286  11.413  63.012  1.00  0.00    -0.311 C  
HETATM    2  C   UNL     1     -10.541  11.359  64.489  1.00  0.00    -0.390 A  
HETATM    3  C   UNL     1     -11.316  12.341  65.117  1.00  0.00    -0.376 A  
HETATM    4  C   UNL     1     -11.480  12.331  66.502  1.00  0.00    -0.438 A  
HETATM    5  C   UNL     1     -10.879  11.324  67.266  1.00  0.00    -0.267 A  
HETATM    6  C   UNL     1     -10.125  10.325  66.649  1.00  0.00    -0.281 A  
HETATM    7  C   UNL     1      -9.959  10.344  65.263  1.00  0.00    -0.376 A  
ENDROOT
BRANCH   5   8
HETATM    8  S   UNL     1     -10.927  11.411  69.041  1.00  0.00    -0.244 S  
HETATM    9  O   UNL     1     -11.952  10.486  69.480  1.00  0.00    -0.259 OA 
HETATM   10  O   UNL     1     -10.950  12.803  69.429  1.00  0.00    -0.125 OA 
BRANCH   8  11
HETATM   11  N   UNL     1      -9.455  10.812  69.490  1.00  0.00    -0.425 N  
HETATM   12  H   UNL     1      -8.655  11.415  69.296  1.00  0.00     0.000 HD 
BRANCH  11  13
HETATM   13  C   UNL     1      -9.158   9.593  70.098  1.00  0.00    -0.240 C  
HETATM   14  O   UNL     1      -8.237   9.554  70.902  1.00  0.00    -0.291 OA 
BRANCH  13  15
HETATM   15  N   UNL     1      -9.977   8.540  69.761  1.00  0.00    -0.187 N  
HETATM   16  H   UNL     1     -10.857   8.749  69.288  1.00  0.00     0.000 HD 
BRANCH  15  17
HETATM   17  N   UNL     1      -9.673   7.192  70.029  1.00  0.00    -0.171 NA 
HETATM   18  C   UNL     1      -9.313   6.966  71.443  1.00  0.00    -0.156 C  
HETATM   19  C   UNL     1     -10.573   6.507  72.188  1.00  0.00    -0.240 C  
HETATM   20  C   UNL     1     -11.137   7.520  73.179  1.00  0.00    -0.378 C  
HETATM   21  C   UNL     1     -11.996   8.447  72.339  1.00  0.00    -0.451 C  
HETATM   22  C   UNL     1     -12.619   7.525  71.298  1.00  0.00    -0.345 C  
HETATM   23  C   UNL     1     -11.647   6.347  71.109  1.00  0.00    -0.378 C  
HETATM   24  C   UNL     1     -10.854   6.337  69.805  1.00  0.00    -0.336 C  
ENDBRANCH  15  17
ENDBRANCH  13  15
ENDBRANCH  11  13
ENDBRANCH   8  11
ENDBRANCH   5   8
TORSDOF 5
ENDMDL
MODEL      120
REMARK 921   NORMALIZED FREE ENERGY PREDICTED BY IDOCK:   -4.86 KCAL/MOL
REMARK 922        TOTAL FREE ENERGY PREDICTED BY IDOCK:   -7.06 KCAL/MOL
REMARK 923 INTER-LIGAND FREE ENERGY PREDICTED BY IDOCK:   -6.13 KCAL/MOL
REMARK 924 INTRA-LIGAND FREE ENERGY PREDICTED BY IDOCK:   -0.93 KCAL/MOL
REMARK 927      BINDING AFFINITY PREDICTED BY RF-SCORE:    0.00 PKD
ROOT
HETATM    1  C   UNL     1      -9.259   4.296  65.264  1.00  0.00    -0.153 C  
HETATM    2  C   UNL     1      -9.415   5.665  65.857  1.00  0.00    -0.087 A  
HETATM    3  C   UNL     1     -10.499   5.965  66.689  1.00  0.00    -0.310 A  
HETATM    4  C   UNL     1     -10.684   7.261  67.170  1.00  0.00    -0.413 A  
HETATM    5  C   UNL     1      -9.770   8.265  66.828  1.00  0.00    -0.239 A  
HETATM    6  C   UNL     1      -8.670   7.973  66.019  1.00  0.00    -0.183 A  
HETATM    7  C   UNL     1      -8.495   6.675  65.536  1.00  0.00    -0.135 A  
ENDROOT
BRANCH   5   8
HETATM    8  S   UNL     1     -10.098   9.952  67.278  1.00  0.00    -0.225 S  
HETATM    9  O   UNL     1      -9.437  10.186  68.546  1.00  0.00    -0.150 OA 
HETATM   10  O   UNL     1     -11.511  10.204  67.106  1.00  0.00    -0.103 OA 
BRANCH   8  11
HETATM   11  N   UNL     1      -9.311  10.816  66.112  1.00  0.00    -0.177 N  
HETATM   12  H   UNL     1      -8.313  10.960  66.267  1.00  0.00     0.000 HD 
BRANCH  11  13
HETATM   13  C   UNL     1      -9.827  11.377  64.945  1.00  0.00    -0.258 C  
HETATM   14  O   UNL     1     -10.211  10.625  64.058  1.00  0.00    -0.341 OA 
BRANCH  13  15
HETATM   15  N   UNL     1      -9.896  12.751  64.920  1.00  0.00    -0.511 N  
HETATM   16  H   UNL     1      -9.042  13.277  65.106  1.00  0.00     0.000 HD 
BRANCH  15  17
HETATM   17  N   UNL     1     -11.075  13.473  64.654  1.00  0.00    -0.356 NA 
HETATM   18  C   UNL     1     -12.171  13.122  65.579  1.00  0.00    -0.461 C  
HETATM   19  C   UNL     1     -12.174  14.143  66.724  1.00  0.00    -0.429 C  
HETATM   20  C   UNL     1     -11.740  13.589  68.078  1.00  0.00    -0.394 C  
HETATM   21  C   UNL     1     -10.224  13.650  68.053  1.00  0.00    -0.248 C  
HETATM   22  C   UNL     1      -9.923  14.934  67.289  1.00  0.00    -0.230 C  
HETATM   23  C   UNL     1     -11.114  15.180  66.346  1.00  0.00    -0.312 C  
HETATM   24  C   UNL     1     -10.859  14.917  64.864  1.00  0.00    -0.413 C  
ENDBRANCH  15  17
ENDBRANCH  13  15
ENDBRANCH  11  13
ENDBRANCH   8  11
ENDBRANCH   5   8
TORSDOF 5
ENDMDL
MODEL      121
REMARK 921   NORMALIZED FREE ENERGY PREDICTED BY IDOCK:   -4.85 KCAL/MOL
REMARK 922        TOTAL FREE ENERGY PREDICTED BY IDOCK:   -7.05 KCAL/MOL
REMARK 923 INTER-LIGAND FREE ENERGY PREDICTED BY IDOCK:   -5.95 KCAL/MOL
REMARK 924 INTRA-LIGAND FREE ENERGY PREDICTED BY IDOCK:   -1.11 KCAL/MOL
REMARK 927      BINDING AFFINITY PREDICTED BY RF-SCORE:    0.00 PKD
ROOT
HETATM    1  C   UNL     1     -12.753   9.929  71.722  1.00  0.00    -0.523 C  
HETATM    2  C   UNL     1     -12.195  10.793  70.629  1.00  0.00    -0.474 A  
HETATM    3  C   UNL     1     -12.369  12.181  70.656  1.00  0.00    -0.385 A  
HETATM    4  C   UNL     1     -11.921  12.970  69.596  1.00  0.00    -0.367 A  
HETATM    5  C   UNL     1     -11.281  12.369  68.506  1.00  0.00    -0.279 A  
HETATM    6  C   UNL     1     -11.079  10.988  68.479  1.00  0.00    -0.297 A  
HETATM    7  C   UNL     1     -11.536  10.204  69.540  1.00  0.00    -0.227 A  
ENDROOT
BRANCH   5   8
HETATM    8  S   UNL     1     -10.877  13.337  67.072  1.00  0.00    -0.271 S  
HETATM    9  O   UNL     1      -9.434  13.323  66.947  1.00  0.00    -0.233 OA 
HETATM   10  O   UNL     1     -11.617  14.577  67.136  1.00  0.00    -0.359 OA 
BRANCH   8  11
HETATM   11  N   UNL     1     -11.518  12.460  65.829  1.00  0.00    -0.352 N  
HETATM   12  H   UNL     1     -12.509  12.234  65.913  1.00  0.00     0.000 HD 
BRANCH  11  13
HETATM   13  C   UNL     1     -10.887  11.987  64.679  1.00  0.00    -0.309 C  
HETATM   14  O   UNL     1     -11.374  12.266  63.592  1.00  0.00    -0.399 OA 
BRANCH  13  15
HETATM   15  N   UNL     1      -9.729  11.273  64.883  1.00  0.00    -0.247 N  
HETATM   16  H   UNL     1      -8.920  11.768  65.259  1.00  0.00     0.000 HD 
BRANCH  15  17
HETATM   17  N   UNL     1      -9.593   9.900  64.603  1.00  0.00    -0.295 NA 
HETATM   18  C   UNL     1      -8.321   9.587  63.921  1.00  0.00    -0.172 C  
HETATM   19  C   UNL     1      -7.304   9.153  64.985  1.00  0.00    -0.100 C  
HETATM   20  C   UNL     1      -6.168  10.142  65.227  1.00  0.00    -0.118 C  
HETATM   21  C   UNL     1      -6.735  11.150  66.209  1.00  0.00    -0.064 C  
HETATM   22  C   UNL     1      -7.622  10.312  67.122  1.00  0.00    -0.092 C  
HETATM   23  C   UNL     1      -8.088   9.099  66.297  1.00  0.00    -0.111 C  
HETATM   24  C   UNL     1      -9.548   9.115  65.851  1.00  0.00    -0.273 C  
ENDBRANCH  15  17
ENDBRANCH  13  15
ENDBRANCH  11  13
ENDBRANCH   8  11
ENDBRANCH   5   8
TORSDOF 5
ENDMDL
MODEL      122
REMARK 921   NORMALIZED FREE ENERGY PREDICTED BY IDOCK:   -4.83 KCAL/MOL
REMARK 922        TOTAL FREE ENERGY PREDICTED BY IDOCK:   -7.03 KCAL/MOL
REMARK 923 INTER-LIGAND FREE ENERGY PREDICTED BY IDOCK:   -5.97 KCAL/MOL
REMARK 924 INTRA-LIGAND FREE ENERGY PREDICTED BY IDOCK:   -1.05 KCAL/MOL
REMARK 927      BINDING AFFINITY PREDICTED BY RF-SCORE:    0.00 PKD
ROOT
HETATM    1  C   UNL     1      -7.077   7.761  65.943  1.00  0.00    -0.064 C  
HETATM    2  C   UNL     1      -8.114   8.786  66.295  1.00  0.00    -0.107 A  
HETATM    3  C   UNL     1      -7.764  10.133  66.448  1.00  0.00    -0.111 A  
HETATM    4  C   UNL     1      -8.717  11.067  66.856  1.00  0.00    -0.148 A  
HETATM    5  C   UNL     1     -10.033  10.657  67.098  1.00  0.00    -0.195 A  
HETATM    6  C   UNL     1     -10.399   9.321  66.924  1.00  0.00    -0.316 A  
HETATM    7  C   UNL     1      -9.440   8.390  66.522  1.00  0.00    -0.284 A  
ENDROOT
BRANCH   5   8
HETATM    8  S   UNL     1     -11.202  11.799  67.796  1.00  0.00    -0.289 S  
HETATM    9  O   UNL     1     -12.083  12.209  66.722  1.00  0.00    -0.609 OA 
HETATM   10  O   UNL     1     -10.477  12.766  68.589  1.00  0.00    -0.244 OA 
BRANCH   8  11
HETATM   11  N   UNL     1     -12.063  10.864  68.850  1.00  0.00    -0.476 N  
HETATM   12  H   UNL     1     -12.844  10.347  68.444  1.00  0.00     0.000 HD 
BRANCH  11  13
HETATM   13  C   UNL     1     -11.868  10.685  70.218  1.00  0.00    -0.342 C  
HETATM   14  O   UNL     1     -12.539  11.352  70.994  1.00  0.00    -0.389 OA 
BRANCH  13  15
HETATM   15  N   UNL     1     -10.950   9.722  70.571  1.00  0.00    -0.297 N  
HETATM   16  H   UNL     1     -10.289   9.407  69.861  1.00  0.00     0.000 HD 
BRANCH  15  17
HETATM   17  N   UNL     1     -10.871   9.145  71.853  1.00  0.00    -0.347 NA 
HETATM   18  C   UNL     1     -11.808   8.017  72.023  1.00  0.00    -0.326 C  
HETATM   19  C   UNL     1     -11.048   6.717  71.732  1.00  0.00    -0.275 C  
HETATM   20  C   UNL     1     -11.461   6.007  70.446  1.00  0.00    -0.234 C  
HETATM   21  C   UNL     1     -10.666   6.694  69.351  1.00  0.00    -0.303 C  
HETATM   22  C   UNL     1      -9.325   6.998  70.009  1.00  0.00    -0.158 C  
HETATM   23  C   UNL     1      -9.592   7.138  71.518  1.00  0.00    -0.161 C  
HETATM   24  C   UNL     1      -9.537   8.557  72.078  1.00  0.00    -0.301 C  
ENDBRANCH  15  17
ENDBRANCH  13  15
ENDBRANCH  11  13
ENDBRANCH   8  11
ENDBRANCH   5   8
TORSDOF 5
ENDMDL
MODEL      123
REMARK 921   NORMALIZED FREE ENERGY PREDICTED BY IDOCK:   -4.81 KCAL/MOL
REMARK 922        TOTAL FREE ENERGY PREDICTED BY IDOCK:   -6.99 KCAL/MOL
REMARK 923 INTER-LIGAND FREE ENERGY PREDICTED BY IDOCK:   -6.08 KCAL/MOL
REMARK 924 INTRA-LIGAND FREE ENERGY PREDICTED BY IDOCK:   -0.91 KCAL/MOL
REMARK 927      BINDING AFFINITY PREDICTED BY RF-SCORE:    0.00 PKD
ROOT
HETATM    1  C   UNL     1     -12.642  10.405  71.600  1.00  0.00    -0.521 C  
HETATM    2  C   UNL     1     -11.940  10.582  70.286  1.00  0.00    -0.411 A  
HETATM    3  C   UNL     1     -12.214  11.688  69.472  1.00  0.00    -0.257 A  
HETATM    4  C   UNL     1     -11.620  11.804  68.216  1.00  0.00    -0.373 A  
HETATM    5  C   UNL     1     -10.734  10.815  67.772  1.00  0.00    -0.251 A  
HETATM    6  C   UNL     1     -10.434   9.720  68.585  1.00  0.00    -0.233 A  
HETATM    7  C   UNL     1     -11.037   9.607  69.839  1.00  0.00    -0.268 A  
ENDROOT
BRANCH   5   8
HETATM    8  S   UNL     1     -10.122  10.857  66.105  1.00  0.00    -0.247 S  
HETATM    9  O   UNL     1     -10.928  11.822  65.384  1.00  0.00    -0.299 OA 
HETATM   10  O   UNL     1      -9.975   9.498  65.637  1.00  0.00    -0.305 OA 
BRANCH   8  11
HETATM   11  N   UNL     1      -8.600  11.473  66.275  1.00  0.00    -0.278 N  
HETATM   12  H   UNL     1      -7.879  11.035  65.700  1.00  0.00     0.000 HD 
BRANCH  11  13
HETATM   13  C   UNL     1      -8.165  12.511  67.097  1.00  0.00    -0.168 C  
HETATM   14  O   UNL     1      -7.380  12.249  67.999  1.00  0.00    -0.087 OA 
BRANCH  13  15
HETATM   15  N   UNL     1      -8.637  13.764  66.780  1.00  0.00    -0.436 N  
HETATM   16  H   UNL     1      -8.141  14.296  66.065  1.00  0.00     0.000 HD 
BRANCH  15  17
HETATM   17  N   UNL     1      -9.763  14.355  67.385  1.00  0.00    -0.217 NA 
HETATM   18  C   UNL     1      -9.449  14.952  68.698  1.00  0.00    -0.208 C  
HETATM   19  C   UNL     1      -9.166  16.445  68.488  1.00  0.00    -0.226 C  
HETATM   20  C   UNL     1      -7.711  16.856  68.692  1.00  0.00    -0.235 C  
HETATM   21  C   UNL     1      -7.035  16.561  67.366  1.00  0.00    -0.186 C  
HETATM   22  C   UNL     1      -8.098  16.908  66.330  1.00  0.00    -0.351 C  
HETATM   23  C   UNL     1      -9.463  16.710  67.011  1.00  0.00    -0.239 C  
HETATM   24  C   UNL     1     -10.258  15.483  66.573  1.00  0.00    -0.283 C  
ENDBRANCH  15  17
ENDBRANCH  13  15
ENDBRANCH  11  13
ENDBRANCH   8  11
ENDBRANCH   5   8
TORSDOF 5
ENDMDL
MODEL      124
REMARK 921   NORMALIZED FREE ENERGY PREDICTED BY IDOCK:   -4.80 KCAL/MOL
REMARK 922        TOTAL FREE ENERGY PREDICTED BY IDOCK:   -6.99 KCAL/MOL
REMARK 923 INTER-LIGAND FREE ENERGY PREDICTED BY IDOCK:   -5.84 KCAL/MOL
REMARK 924 INTRA-LIGAND FREE ENERGY PREDICTED BY IDOCK:   -1.15 KCAL/MOL
REMARK 927      BINDING AFFINITY PREDICTED BY RF-SCORE:    0.00 PKD
ROOT
HETATM    1  C   UNL     1     -13.414  14.715  72.867  1.00  0.00    -0.528 C  
HETATM    2  C   UNL     1     -12.592  14.822  71.617  1.00  0.00    -0.394 A  
HETATM    3  C   UNL     1     -12.820  13.963  70.535  1.00  0.00    -0.250 A  
HETATM    4  C   UNL     1     -11.999  14.012  69.409  1.00  0.00    -0.390 A  
HETATM    5  C   UNL     1     -10.949  14.936  69.356  1.00  0.00    -0.271 A  
HETATM    6  C   UNL     1     -10.727  15.815  70.417  1.00  0.00    -0.305 A  
HETATM    7  C   UNL     1     -11.549  15.756  71.544  1.00  0.00    -0.531 A  
ENDROOT
BRANCH   5   8
HETATM    8  S   UNL     1      -9.786  14.878  68.013  1.00  0.00    -0.218 S  
HETATM    9  O   UNL     1      -9.354  16.240  67.771  1.00  0.00    -0.213 OA 
HETATM   10  O   UNL     1     -10.347  14.066  66.958  1.00  0.00    -0.264 OA 
BRANCH   8  11
HETATM   11  N   UNL     1      -8.517  14.033  68.645  1.00  0.00    -0.273 N  
HETATM   12  H   UNL     1      -7.965  14.525  69.349  1.00  0.00     0.000 HD 
BRANCH  11  13
HETATM   13  C   UNL     1      -8.097  12.738  68.349  1.00  0.00    -0.129 C  
HETATM   14  O   UNL     1      -6.961  12.578  67.920  1.00  0.00    -0.082 OA 
BRANCH  13  15
HETATM   15  N   UNL     1      -9.004  11.738  68.614  1.00  0.00    -0.345 N  
HETATM   16  H   UNL     1      -9.353  11.649  69.568  1.00  0.00     0.000 HD 
BRANCH  15  17
HETATM   17  N   UNL     1      -9.480  10.832  67.647  1.00  0.00    -0.153 NA 
HETATM   18  C   UNL     1      -8.952   9.467  67.846  1.00  0.00    -0.123 C  
HETATM   19  C   UNL     1      -9.986   8.669  68.651  1.00  0.00    -0.197 C  
HETATM   20  C   UNL     1      -9.563   8.329  70.077  1.00  0.00    -0.168 C  
HETATM   21  C   UNL     1      -9.913   9.562  70.889  1.00  0.00    -0.308 C  
HETATM   22  C   UNL     1     -11.208  10.060  70.258  1.00  0.00    -0.379 C  
HETATM   23  C   UNL     1     -11.195   9.596  68.792  1.00  0.00    -0.011 C  
HETATM   24  C   UNL     1     -10.944  10.683  67.749  1.00  0.00    -0.306 C  
ENDBRANCH  15  17
ENDBRANCH  13  15
ENDBRANCH  11  13
ENDBRANCH   8  11
ENDBRANCH   5   8
TORSDOF 5
ENDMDL
MODEL      125
REMARK 921   NORMALIZED FREE ENERGY PREDICTED BY IDOCK:   -4.80 KCAL/MOL
REMARK 922        TOTAL FREE ENERGY PREDICTED BY IDOCK:   -6.98 KCAL/MOL
REMARK 923 INTER-LIGAND FREE ENERGY PREDICTED BY IDOCK:   -5.97 KCAL/MOL
REMARK 924 INTRA-LIGAND FREE ENERGY PREDICTED BY IDOCK:   -1.02 KCAL/MOL
REMARK 927      BINDING AFFINITY PREDICTED BY RF-SCORE:    0.00 PKD
ROOT
HETATM    1  C   UNL     1      -7.009   7.983  64.958  1.00  0.00    -0.062 C  
HETATM    2  C   UNL     1      -8.140   8.939  64.718  1.00  0.00    -0.144 A  
HETATM    3  C   UNL     1      -8.480   9.332  63.418  1.00  0.00    -0.204 A  
HETATM    4  C   UNL     1      -9.478  10.284  63.207  1.00  0.00    -0.342 A  
HETATM    5  C   UNL     1     -10.153  10.837  64.302  1.00  0.00    -0.361 A  
HETATM    6  C   UNL     1      -9.840  10.434  65.601  1.00  0.00    -0.321 A  
HETATM    7  C   UNL     1      -8.836   9.486  65.806  1.00  0.00    -0.193 A  
ENDROOT
BRANCH   5   8
HETATM    8  S   UNL     1     -11.289  12.181  64.055  1.00  0.00    -0.433 S  
HETATM    9  O   UNL     1     -12.301  11.712  63.131  1.00  0.00    -0.399 OA 
HETATM   10  O   UNL     1     -10.526  13.380  63.794  1.00  0.00    -0.160 OA 
BRANCH   8  11
HETATM   11  N   UNL     1     -11.984  12.368  65.540  1.00  0.00    -0.423 N  
HETATM   12  H   UNL     1     -12.064  11.519  66.101  1.00  0.00     0.000 HD 
BRANCH  11  13
HETATM   13  C   UNL     1     -12.478  13.529  66.133  1.00  0.00    -0.365 C  
HETATM   14  O   UNL     1     -13.375  14.136  65.564  1.00  0.00    -0.656 OA 
BRANCH  13  15
HETATM   15  N   UNL     1     -11.926  13.862  67.349  1.00  0.00    -0.403 N  
HETATM   16  H   UNL     1     -11.704  13.107  67.997  1.00  0.00     0.000 HD 
BRANCH  15  17
HETATM   17  N   UNL     1     -11.651  15.183  67.751  1.00  0.00    -0.322 NA 
HETATM   18  C   UNL     1     -10.907  15.241  69.025  1.00  0.00    -0.244 C  
HETATM   19  C   UNL     1      -9.412  15.359  68.699  1.00  0.00    -0.205 C  
HETATM   20  C   UNL     1      -8.584  14.122  69.032  1.00  0.00     0.109 C  
HETATM   21  C   UNL     1      -8.753  13.207  67.833  1.00  0.00    -0.192 C  
HETATM   22  C   UNL     1      -8.797  14.164  66.648  1.00  0.00    -0.141 C  
HETATM   23  C   UNL     1      -9.339  15.503  67.177  1.00  0.00    -0.227 C  
HETATM   24  C   UNL     1     -10.769  15.852  66.775  1.00  0.00    -0.281 C  
ENDBRANCH  15  17
ENDBRANCH  13  15
ENDBRANCH  11  13
ENDBRANCH   8  11
ENDBRANCH   5   8
TORSDOF 5
ENDMDL
MODEL      126
REMARK 921   NORMALIZED FREE ENERGY PREDICTED BY IDOCK:   -4.80 KCAL/MOL
REMARK 922        TOTAL FREE ENERGY PREDICTED BY IDOCK:   -6.98 KCAL/MOL
REMARK 923 INTER-LIGAND FREE ENERGY PREDICTED BY IDOCK:   -6.46 KCAL/MOL
REMARK 924 INTRA-LIGAND FREE ENERGY PREDICTED BY IDOCK:   -0.52 KCAL/MOL
REMARK 927      BINDING AFFINITY PREDICTED BY RF-SCORE:    0.00 PKD
ROOT
HETATM    1  C   UNL     1     -10.652  20.289  66.061  1.00  0.00    -0.244 C  
HETATM    2  C   UNL     1     -10.033  19.092  66.721  1.00  0.00    -0.432 A  
HETATM    3  C   UNL     1      -9.610  19.150  68.054  1.00  0.00    -0.397 A  
HETATM    4  C   UNL     1      -8.960  18.061  68.635  1.00  0.00    -0.278 A  
HETATM    5  C   UNL     1      -8.744  16.899  67.885  1.00  0.00    -0.213 A  
HETATM    6  C   UNL     1      -9.184  16.821  66.563  1.00  0.00    -0.294 A  
HETATM    7  C   UNL     1      -9.828  17.916  65.984  1.00  0.00    -0.180 A  
ENDROOT
BRANCH   5   8
HETATM    8  S   UNL     1      -7.755  15.584  68.555  1.00  0.00    -0.140 S  
HETATM    9  O   UNL     1      -6.893  16.174  69.560  1.00  0.00    -0.201 OA 
HETATM   10  O   UNL     1      -7.216  14.814  67.458  1.00  0.00    -0.178 OA 
BRANCH   8  11
HETATM   11  N   UNL     1      -8.863  14.625  69.316  1.00  0.00    -0.397 N  
HETATM   12  H   UNL     1      -8.477  13.896  69.916  1.00  0.00     0.000 HD 
BRANCH  11  13
HETATM   13  C   UNL     1     -10.254  14.678  69.249  1.00  0.00    -0.147 C  
HETATM   14  O   UNL     1     -10.851  15.354  70.076  1.00  0.00    -0.264 OA 
BRANCH  13  15
HETATM   15  N   UNL     1     -10.830  13.985  68.210  1.00  0.00    -0.248 N  
HETATM   16  H   UNL     1     -11.600  14.427  67.707  1.00  0.00     0.000 HD 
BRANCH  15  17
HETATM   17  N   UNL     1     -10.421  12.702  67.799  1.00  0.00    -0.218 NA 
HETATM   18  C   UNL     1     -11.532  11.909  67.236  1.00  0.00    -0.317 C  
HETATM   19  C   UNL     1     -11.505  12.066  65.710  1.00  0.00    -0.377 C  
HETATM   20  C   UNL     1     -12.660  12.876  65.129  1.00  0.00    -0.536 C  
HETATM   21  C   UNL     1     -12.228  14.323  65.266  1.00  0.00    -0.414 C  
HETATM   22  C   UNL     1     -10.727  14.282  65.004  1.00  0.00    -0.435 C  
HETATM   23  C   UNL     1     -10.244  12.878  65.408  1.00  0.00    -0.301 C  
HETATM   24  C   UNL     1      -9.439  12.795  66.702  1.00  0.00    -0.249 C  
ENDBRANCH  15  17
ENDBRANCH  13  15
ENDBRANCH  11  13
ENDBRANCH   8  11
ENDBRANCH   5   8
TORSDOF 5
ENDMDL
MODEL      127
REMARK 921   NORMALIZED FREE ENERGY PREDICTED BY IDOCK:   -4.79 KCAL/MOL
REMARK 922        TOTAL FREE ENERGY PREDICTED BY IDOCK:   -6.97 KCAL/MOL
REMARK 923 INTER-LIGAND FREE ENERGY PREDICTED BY IDOCK:   -5.48 KCAL/MOL
REMARK 924 INTRA-LIGAND FREE ENERGY PREDICTED BY IDOCK:   -1.49 KCAL/MOL
REMARK 927      BINDING AFFINITY PREDICTED BY RF-SCORE:    0.00 PKD
ROOT
HETATM    1  C   UNL     1      -7.297   9.696  69.614  1.00  0.00    -0.093 C  
HETATM    2  C   UNL     1      -8.082  10.351  68.516  1.00  0.00    -0.116 A  
HETATM    3  C   UNL     1      -9.447  10.617  68.674  1.00  0.00    -0.176 A  
HETATM    4  C   UNL     1     -10.188  11.149  67.619  1.00  0.00    -0.208 A  
HETATM    5  C   UNL     1      -9.559  11.432  66.401  1.00  0.00    -0.205 A  
HETATM    6  C   UNL     1      -8.193  11.195  66.240  1.00  0.00    -0.153 A  
HETATM    7  C   UNL     1      -7.458  10.656  67.297  1.00  0.00    -0.099 A  
ENDROOT
BRANCH   5   8
HETATM    8  S   UNL     1     -10.530  11.932  64.999  1.00  0.00    -0.301 S  
HETATM    9  O   UNL     1     -10.742  10.748  64.190  1.00  0.00    -0.295 OA 
HETATM   10  O   UNL     1      -9.944  13.130  64.443  1.00  0.00    -0.258 OA 
BRANCH   8  11
HETATM   11  N   UNL     1     -11.972  12.370  65.672  1.00  0.00    -0.424 N  
HETATM   12  H   UNL     1     -12.613  11.604  65.879  1.00  0.00     0.000 HD 
BRANCH  11  13
HETATM   13  C   UNL     1     -12.432  13.645  65.995  1.00  0.00    -0.426 C  
HETATM   14  O   UNL     1     -13.477  14.032  65.489  1.00  0.00    -0.677 OA 
BRANCH  13  15
HETATM   15  N   UNL     1     -11.674  14.343  66.907  1.00  0.00    -0.389 N  
HETATM   16  H   UNL     1     -11.121  13.809  67.578  1.00  0.00     0.000 HD 
BRANCH  15  17
HETATM   17  N   UNL     1     -11.615  15.748  66.968  1.00  0.00     0.119 NA 
HETATM   18  C   UNL     1     -11.304  16.240  68.325  1.00  0.00    -0.280 C  
HETATM   19  C   UNL     1      -9.791  16.484  68.408  1.00  0.00    -0.237 C  
HETATM   20  C   UNL     1      -9.033  15.508  69.303  1.00  0.00    -0.267 C  
HETATM   21  C   UNL     1      -8.770  14.300  68.423  1.00  0.00    -0.181 C  
HETATM   22  C   UNL     1      -8.504  14.901  67.048  1.00  0.00    -0.260 C  
HETATM   23  C   UNL     1      -9.262  16.238  66.993  1.00  0.00    -0.230 C  
HETATM   24  C   UNL     1     -10.518  16.261  66.126  1.00  0.00    -0.322 C  
ENDBRANCH  15  17
ENDBRANCH  13  15
ENDBRANCH  11  13
ENDBRANCH   8  11
ENDBRANCH   5   8
TORSDOF 5
ENDMDL
MODEL      128
REMARK 921   NORMALIZED FREE ENERGY PREDICTED BY IDOCK:   -4.78 KCAL/MOL
REMARK 922        TOTAL FREE ENERGY PREDICTED BY IDOCK:   -6.96 KCAL/MOL
REMARK 923 INTER-LIGAND FREE ENERGY PREDICTED BY IDOCK:   -5.77 KCAL/MOL
REMARK 924 INTRA-LIGAND FREE ENERGY PREDICTED BY IDOCK:   -1.19 KCAL/MOL
REMARK 927      BINDING AFFINITY PREDICTED BY RF-SCORE:    0.00 PKD
ROOT
HETATM    1  C   UNL     1      -6.845  16.508  66.752  1.00  0.00    -0.225 C  
HETATM    2  C   UNL     1      -8.011  15.628  67.091  1.00  0.00    -0.254 A  
HETATM    3  C   UNL     1      -9.160  15.624  66.291  1.00  0.00    -0.376 A  
HETATM    4  C   UNL     1     -10.272  14.866  66.658  1.00  0.00    -0.264 A  
HETATM    5  C   UNL     1     -10.233  14.095  67.825  1.00  0.00    -0.242 A  
HETATM    6  C   UNL     1      -9.084  14.072  68.618  1.00  0.00    -0.107 A  
HETATM    7  C   UNL     1      -7.976  14.837  68.249  1.00  0.00    -0.130 A  
ENDROOT
BRANCH   5   8
HETATM    8  S   UNL     1     -11.704  13.279  68.397  1.00  0.00    -0.367 S  
HETATM    9  O   UNL     1     -12.256  12.563  67.265  1.00  0.00    -0.454 OA 
HETATM   10  O   UNL     1     -12.493  14.231  69.145  1.00  0.00    -0.212 OA 
BRANCH   8  11
HETATM   11  N   UNL     1     -11.129  12.176  69.482  1.00  0.00    -0.458 N  
HETATM   12  H   UNL     1     -10.243  12.415  69.928  1.00  0.00     0.000 HD 
BRANCH  11  13
HETATM   13  C   UNL     1     -11.690  10.961  69.872  1.00  0.00    -0.339 C  
HETATM   14  O   UNL     1     -12.359  10.931  70.896  1.00  0.00    -0.337 OA 
BRANCH  13  15
HETATM   15  N   UNL     1     -11.469   9.900  69.024  1.00  0.00    -0.475 N  
HETATM   16  H   UNL     1     -11.923   9.914  68.111  1.00  0.00     0.000 HD 
BRANCH  15  17
HETATM   17  N   UNL     1     -10.655   8.796  69.343  1.00  0.00    -0.225 NA 
HETATM   18  C   UNL     1     -10.525   7.849  68.218  1.00  0.00    -0.164 C  
HETATM   19  C   UNL     1      -9.235   8.186  67.458  1.00  0.00    -0.154 C  
HETATM   20  C   UNL     1      -9.446   8.782  66.070  1.00  0.00    -0.302 C  
HETATM   21  C   UNL     1      -9.666  10.263  66.313  1.00  0.00    -0.263 C  
HETATM   22  C   UNL     1      -8.731  10.585  67.472  1.00  0.00    -0.125 C  
HETATM   23  C   UNL     1      -8.557   9.286  68.277  1.00  0.00    -0.125 C  
HETATM   24  C   UNL     1      -9.274   9.232  69.624  1.00  0.00    -0.175 C  
ENDBRANCH  15  17
ENDBRANCH  13  15
ENDBRANCH  11  13
ENDBRANCH   8  11
ENDBRANCH   5   8
TORSDOF 5
ENDMDL
MODEL      129
REMARK 921   NORMALIZED FREE ENERGY PREDICTED BY IDOCK:   -4.76 KCAL/MOL
REMARK 922        TOTAL FREE ENERGY PREDICTED BY IDOCK:   -6.94 KCAL/MOL
REMARK 923 INTER-LIGAND FREE ENERGY PREDICTED BY IDOCK:   -6.18 KCAL/MOL
REMARK 924 INTRA-LIGAND FREE ENERGY PREDICTED BY IDOCK:   -0.76 KCAL/MOL
REMARK 927      BINDING AFFINITY PREDICTED BY RF-SCORE:    0.00 PKD
ROOT
HETATM    1  C   UNL     1      -5.227  19.104  71.357  1.00  0.00    -0.336 C  
HETATM    2  C   UNL     1      -6.107  18.927  70.156  1.00  0.00    -0.156 A  
HETATM    3  C   UNL     1      -6.158  17.702  69.481  1.00  0.00    -0.250 A  
HETATM    4  C   UNL     1      -6.915  17.569  68.316  1.00  0.00    -0.210 A  
HETATM    5  C   UNL     1      -7.638  18.664  67.829  1.00  0.00    -0.232 A  
HETATM    6  C   UNL     1      -7.615  19.884  68.508  1.00  0.00    -0.286 A  
HETATM    7  C   UNL     1      -6.851  20.012  69.669  1.00  0.00    -0.245 A  
ENDROOT
BRANCH   5   8
HETATM    8  S   UNL     1      -8.450  18.559  66.252  1.00  0.00    -0.145 S  
HETATM    9  O   UNL     1      -7.409  18.536  65.244  1.00  0.00    -0.460 OA 
HETATM   10  O   UNL     1      -9.511  19.538  66.218  1.00  0.00    -0.361 OA 
BRANCH   8  11
HETATM   11  N   UNL     1      -9.169  17.073  66.293  1.00  0.00    -0.262 N  
HETATM   12  H   UNL     1      -8.616  16.327  66.717  1.00  0.00     0.000 HD 
BRANCH  11  13
HETATM   13  C   UNL     1     -10.428  16.700  65.827  1.00  0.00    -0.311 C  
HETATM   14  O   UNL     1     -10.806  17.145  64.752  1.00  0.00    -0.834 OA 
BRANCH  13  15
HETATM   15  N   UNL     1     -11.121  15.813  66.619  1.00  0.00    -0.178 N  
HETATM   16  H   UNL     1     -11.639  16.184  67.415  1.00  0.00     0.000 HD 
BRANCH  15  17
HETATM   17  N   UNL     1     -11.157  14.423  66.395  1.00  0.00    -0.320 NA 
HETATM   18  C   UNL     1      -9.817  13.806  66.462  1.00  0.00    -0.290 C  
HETATM   19  C   UNL     1      -9.615  13.258  67.881  1.00  0.00    -0.217 C  
HETATM   20  C   UNL     1      -8.587  14.012  68.720  1.00  0.00    -0.032 C  
HETATM   21  C   UNL     1      -9.349  15.187  69.303  1.00  0.00    -0.207 C  
HETATM   22  C   UNL     1     -10.735  14.620  69.586  1.00  0.00    -0.168 C  
HETATM   23  C   UNL     1     -10.955  13.467  68.591  1.00  0.00    -0.289 C  
HETATM   24  C   UNL     1     -11.932  13.745  67.451  1.00  0.00    -0.388 C  
ENDBRANCH  15  17
ENDBRANCH  13  15
ENDBRANCH  11  13
ENDBRANCH   8  11
ENDBRANCH   5   8
TORSDOF 5
ENDMDL
MODEL      130
REMARK 921   NORMALIZED FREE ENERGY PREDICTED BY IDOCK:   -4.76 KCAL/MOL
REMARK 922        TOTAL FREE ENERGY PREDICTED BY IDOCK:   -6.93 KCAL/MOL
REMARK 923 INTER-LIGAND FREE ENERGY PREDICTED BY IDOCK:   -6.15 KCAL/MOL
REMARK 924 INTRA-LIGAND FREE ENERGY PREDICTED BY IDOCK:   -0.78 KCAL/MOL
REMARK 927      BINDING AFFINITY PREDICTED BY RF-SCORE:    0.00 PKD
ROOT
HETATM    1  C   UNL     1      -9.247  19.894  66.452  1.00  0.00    -0.470 C  
HETATM    2  C   UNL     1      -9.703  18.548  66.931  1.00  0.00    -0.334 A  
HETATM    3  C   UNL     1      -9.838  17.478  66.038  1.00  0.00    -0.195 A  
HETATM    4  C   UNL     1     -10.341  16.253  66.475  1.00  0.00    -0.310 A  
HETATM    5  C   UNL     1     -10.698  16.088  67.819  1.00  0.00    -0.323 A  
HETATM    6  C   UNL     1     -10.544  17.139  68.724  1.00  0.00    -0.336 A  
HETATM    7  C   UNL     1     -10.046  18.365  68.279  1.00  0.00    -0.410 A  
ENDROOT
BRANCH   5   8
HETATM    8  S   UNL     1     -11.512  14.598  68.342  1.00  0.00    -0.327 S  
HETATM    9  O   UNL     1     -12.073  13.985  67.155  1.00  0.00    -0.423 OA 
HETATM   10  O   UNL     1     -12.331  14.905  69.491  1.00  0.00    -0.254 OA 
BRANCH   8  11
HETATM   11  N   UNL     1     -10.268  13.654  68.877  1.00  0.00    -0.409 N  
HETATM   12  H   UNL     1     -10.140  13.624  69.890  1.00  0.00     0.000 HD 
BRANCH  11  13
HETATM   13  C   UNL     1      -9.368  12.891  68.134  1.00  0.00    -0.214 C  
HETATM   14  O   UNL     1      -8.482  13.471  67.520  1.00  0.00    -0.168 OA 
BRANCH  13  15
HETATM   15  N   UNL     1      -9.541  11.528  68.201  1.00  0.00    -0.181 N  
HETATM   16  H   UNL     1      -8.846  10.981  68.710  1.00  0.00     0.000 HD 
BRANCH  15  17
HETATM   17  N   UNL     1     -10.618  10.843  67.608  1.00  0.00    -0.208 NA 
HETATM   18  C   UNL     1     -10.758  11.149  66.170  1.00  0.00    -0.225 C  
HETATM   19  C   UNL     1     -10.031  10.055  65.377  1.00  0.00    -0.364 C  
HETATM   20  C   UNL     1      -8.755  10.512  64.676  1.00  0.00    -0.193 C  
HETATM   21  C   UNL     1      -7.677  10.429  65.741  1.00  0.00    -0.146 C  
HETATM   22  C   UNL     1      -8.057   9.194  66.549  1.00  0.00    -0.107 C  
HETATM   23  C   UNL     1      -9.581   9.029  66.420  1.00  0.00    -0.309 C  
HETATM   24  C   UNL     1     -10.400   9.385  67.658  1.00  0.00    -0.246 C  
ENDBRANCH  15  17
ENDBRANCH  13  15
ENDBRANCH  11  13
ENDBRANCH   8  11
ENDBRANCH   5   8
TORSDOF 5
ENDMDL
MODEL      131
REMARK 921   NORMALIZED FREE ENERGY PREDICTED BY IDOCK:   -4.76 KCAL/MOL
REMARK 922        TOTAL FREE ENERGY PREDICTED BY IDOCK:   -6.93 KCAL/MOL
REMARK 923 INTER-LIGAND FREE ENERGY PREDICTED BY IDOCK:   -6.61 KCAL/MOL
REMARK 924 INTRA-LIGAND FREE ENERGY PREDICTED BY IDOCK:   -0.32 KCAL/MOL
REMARK 927      BINDING AFFINITY PREDICTED BY RF-SCORE:    0.00 PKD
ROOT
HETATM    1  C   UNL     1      -7.714   7.452  65.589  1.00  0.00    -0.104 C  
HETATM    2  C   UNL     1      -8.662   8.557  65.228  1.00  0.00    -0.175 A  
HETATM    3  C   UNL     1      -8.646   9.124  63.948  1.00  0.00    -0.188 A  
HETATM    4  C   UNL     1      -9.473  10.205  63.645  1.00  0.00    -0.320 A  
HETATM    5  C   UNL     1     -10.334  10.716  64.622  1.00  0.00    -0.283 A  
HETATM    6  C   UNL     1     -10.378  10.143  65.894  1.00  0.00    -0.221 A  
HETATM    7  C   UNL     1      -9.543   9.065  66.193  1.00  0.00    -0.341 A  
ENDROOT
BRANCH   5   8
HETATM    8  S   UNL     1     -11.250  12.206  64.304  1.00  0.00    -0.376 S  
HETATM    9  O   UNL     1     -12.413  11.828  63.527  1.00  0.00    -0.520 OA 
HETATM   10  O   UNL     1     -10.328  13.217  63.839  1.00  0.00    -0.326 OA 
BRANCH   8  11
HETATM   11  N   UNL     1     -11.753  12.670  65.806  1.00  0.00    -0.396 N  
HETATM   12  H   UNL     1     -11.453  12.073  66.577  1.00  0.00     0.000 HD 
BRANCH  11  13
HETATM   13  C   UNL     1     -12.534  13.768  66.164  1.00  0.00    -0.418 C  
HETATM   14  O   UNL     1     -13.512  14.035  65.478  1.00  0.00    -0.677 OA 
BRANCH  13  15
HETATM   15  N   UNL     1     -12.146  14.432  67.305  1.00  0.00    -0.573 N  
HETATM   16  H   UNL     1     -12.865  14.676  67.986  1.00  0.00     0.000 HD 
BRANCH  15  17
HETATM   17  N   UNL     1     -10.816  14.795  67.588  1.00  0.00    -0.278 NA 
HETATM   18  C   UNL     1     -10.730  15.961  68.491  1.00  0.00    -0.274 C  
HETATM   19  C   UNL     1     -10.565  15.442  69.925  1.00  0.00    -0.315 C  
HETATM   20  C   UNL     1     -11.774  15.662  70.829  1.00  0.00    -0.408 C  
HETATM   21  C   UNL     1     -12.698  14.495  70.534  1.00  0.00    -0.404 C  
HETATM   22  C   UNL     1     -11.747  13.327  70.304  1.00  0.00    -0.217 C  
HETATM   23  C   UNL     1     -10.424  13.924  69.793  1.00  0.00     0.445 C  
HETATM   24  C   UNL     1     -10.123  13.713  68.312  1.00  0.00    -0.240 C  
ENDBRANCH  15  17
ENDBRANCH  13  15
ENDBRANCH  11  13
ENDBRANCH   8  11
ENDBRANCH   5   8
TORSDOF 5
ENDMDL
MODEL      132
REMARK 921   NORMALIZED FREE ENERGY PREDICTED BY IDOCK:   -4.75 KCAL/MOL
REMARK 922        TOTAL FREE ENERGY PREDICTED BY IDOCK:   -6.92 KCAL/MOL
REMARK 923 INTER-LIGAND FREE ENERGY PREDICTED BY IDOCK:   -6.28 KCAL/MOL
REMARK 924 INTRA-LIGAND FREE ENERGY PREDICTED BY IDOCK:   -0.64 KCAL/MOL
REMARK 927      BINDING AFFINITY PREDICTED BY RF-SCORE:    0.00 PKD
ROOT
HETATM    1  C   UNL     1      -5.136  20.229  71.518  1.00  0.00    -0.371 C  
HETATM    2  C   UNL     1      -5.783  19.525  70.362  1.00  0.00    -0.283 A  
HETATM    3  C   UNL     1      -6.914  20.064  69.739  1.00  0.00    -0.133 A  
HETATM    4  C   UNL     1      -7.559  19.363  68.719  1.00  0.00    -0.398 A  
HETATM    5  C   UNL     1      -7.062  18.121  68.308  1.00  0.00    -0.247 A  
HETATM    6  C   UNL     1      -5.919  17.585  68.905  1.00  0.00    -0.186 A  
HETATM    7  C   UNL     1      -5.282  18.288  69.929  1.00  0.00    -0.208 A  
ENDROOT
BRANCH   5   8
HETATM    8  S   UNL     1      -7.981  17.140  67.146  1.00  0.00    -0.202 S  
HETATM    9  O   UNL     1      -7.123  16.042  66.750  1.00  0.00    -0.188 OA 
HETATM   10  O   UNL     1      -8.572  18.025  66.169  1.00  0.00    -0.454 OA 
BRANCH   8  11
HETATM   11  N   UNL     1      -9.219  16.535  68.055  1.00  0.00    -0.211 N  
HETATM   12  H   UNL     1      -9.349  16.971  68.969  1.00  0.00     0.000 HD 
BRANCH  11  13
HETATM   13  C   UNL     1     -10.110  15.509  67.744  1.00  0.00    -0.232 C  
HETATM   14  O   UNL     1     -10.057  14.475  68.396  1.00  0.00    -0.227 OA 
BRANCH  13  15
HETATM   15  N   UNL     1     -11.012  15.784  66.742  1.00  0.00    -0.251 N  
HETATM   16  H   UNL     1     -11.978  15.976  67.006  1.00  0.00     0.000 HD 
BRANCH  15  17
HETATM   17  N   UNL     1     -10.680  15.814  65.374  1.00  0.00    -0.391 NA 
HETATM   18  C   UNL     1      -9.819  14.682  64.977  1.00  0.00    -0.030 C  
HETATM   19  C   UNL     1     -10.718  13.573  64.415  1.00  0.00    -0.402 C  
HETATM   20  C   UNL     1     -10.825  12.329  65.292  1.00  0.00    -0.332 C  
HETATM   21  C   UNL     1     -11.902  12.661  66.307  1.00  0.00    -0.471 C  
HETATM   22  C   UNL     1     -12.908  13.487  65.515  1.00  0.00    -0.406 C  
HETATM   23  C   UNL     1     -12.126  14.172  64.380  1.00  0.00    -0.486 C  
HETATM   24  C   UNL     1     -11.889  15.671  64.541  1.00  0.00    -0.172 C  
ENDBRANCH  15  17
ENDBRANCH  13  15
ENDBRANCH  11  13
ENDBRANCH   8  11
ENDBRANCH   5   8
TORSDOF 5
ENDMDL
MODEL      133
REMARK 921   NORMALIZED FREE ENERGY PREDICTED BY IDOCK:   -4.72 KCAL/MOL
REMARK 922        TOTAL FREE ENERGY PREDICTED BY IDOCK:   -6.88 KCAL/MOL
REMARK 923 INTER-LIGAND FREE ENERGY PREDICTED BY IDOCK:   -5.91 KCAL/MOL
REMARK 924 INTRA-LIGAND FREE ENERGY PREDICTED BY IDOCK:   -0.97 KCAL/MOL
REMARK 927      BINDING AFFINITY PREDICTED BY RF-SCORE:    0.00 PKD
ROOT
HETATM    1  C   UNL     1     -12.347  15.783  71.912  1.00  0.00    -0.533 C  
HETATM    2  C   UNL     1     -12.042  15.340  70.512  1.00  0.00    -0.395 A  
HETATM    3  C   UNL     1     -11.585  16.255  69.556  1.00  0.00    -0.169 A  
HETATM    4  C   UNL     1     -11.384  15.854  68.235  1.00  0.00    -0.342 A  
HETATM    5  C   UNL     1     -11.626  14.525  67.868  1.00  0.00    -0.344 A  
HETATM    6  C   UNL     1     -12.058  13.598  68.818  1.00  0.00    -0.332 A  
HETATM    7  C   UNL     1     -12.264  14.007  70.137  1.00  0.00    -0.425 A  
ENDROOT
BRANCH   5   8
HETATM    8  S   UNL     1     -11.554  14.052  66.157  1.00  0.00    -0.382 S  
HETATM    9  O   UNL     1     -10.420  14.742  65.577  1.00  0.00    -0.311 OA 
HETATM   10  O   UNL     1     -12.879  14.172  65.593  1.00  0.00    -0.529 OA 
BRANCH   8  11
HETATM   11  N   UNL     1     -11.205  12.440  66.223  1.00  0.00    -0.300 N  
HETATM   12  H   UNL     1     -11.834  11.875  66.795  1.00  0.00     0.000 HD 
BRANCH  11  13
HETATM   13  C   UNL     1     -10.168  11.745  65.603  1.00  0.00    -0.246 C  
HETATM   14  O   UNL     1     -10.445  10.980  64.688  1.00  0.00    -0.324 OA 
BRANCH  13  15
HETATM   15  N   UNL     1      -8.901  12.027  66.060  1.00  0.00    -0.405 N  
HETATM   16  H   UNL     1      -8.255  12.493  65.424  1.00  0.00     0.000 HD 
BRANCH  15  17
HETATM   17  N   UNL     1      -8.445  11.710  67.354  1.00  0.00    -0.144 NA 
HETATM   18  C   UNL     1      -8.667  10.291  67.698  1.00  0.00    -0.121 C  
HETATM   19  C   UNL     1      -7.377   9.518  67.391  1.00  0.00    -0.087 C  
HETATM   20  C   UNL     1      -7.470   8.562  66.206  1.00  0.00    -0.090 C  
HETATM   21  C   UNL     1      -7.217   9.429  64.987  1.00  0.00    -0.105 C  
HETATM   22  C   UNL     1      -6.169  10.429  65.461  1.00  0.00    -0.125 C  
HETATM   23  C   UNL     1      -6.356  10.582  66.981  1.00  0.00    -0.074 C  
HETATM   24  C   UNL     1      -6.984  11.891  67.450  1.00  0.00    -0.128 C  
ENDBRANCH  15  17
ENDBRANCH  13  15
ENDBRANCH  11  13
ENDBRANCH   8  11
ENDBRANCH   5   8
TORSDOF 5
ENDMDL
MODEL      134
REMARK 921   NORMALIZED FREE ENERGY PREDICTED BY IDOCK:   -4.72 KCAL/MOL
REMARK 922        TOTAL FREE ENERGY PREDICTED BY IDOCK:   -6.88 KCAL/MOL
REMARK 923 INTER-LIGAND FREE ENERGY PREDICTED BY IDOCK:   -5.99 KCAL/MOL
REMARK 924 INTRA-LIGAND FREE ENERGY PREDICTED BY IDOCK:   -0.89 KCAL/MOL
REMARK 927      BINDING AFFINITY PREDICTED BY RF-SCORE:    0.00 PKD
ROOT
HETATM    1  C   UNL     1     -11.379  15.243  71.594  1.00  0.00    -0.440 C  
HETATM    2  C   UNL     1     -10.947  15.677  70.225  1.00  0.00    -0.363 A  
HETATM    3  C   UNL     1     -11.892  15.926  69.223  1.00  0.00    -0.328 A  
HETATM    4  C   UNL     1     -11.480  16.248  67.930  1.00  0.00    -0.056 A  
HETATM    5  C   UNL     1     -10.114  16.337  67.637  1.00  0.00    -0.260 A  
HETATM    6  C   UNL     1      -9.163  16.116  68.634  1.00  0.00    -0.220 A  
HETATM    7  C   UNL     1      -9.581  15.787  69.925  1.00  0.00    -0.030 A  
ENDROOT
BRANCH   5   8
HETATM    8  S   UNL     1      -9.581  16.561  65.957  1.00  0.00    -0.258 S  
HETATM    9  O   UNL     1      -8.346  17.317  66.004  1.00  0.00    -0.490 OA 
HETATM   10  O   UNL     1     -10.711  17.008  65.175  1.00  0.00    -0.672 OA 
BRANCH   8  11
HETATM   11  N   UNL     1      -9.233  15.025  65.462  1.00  0.00    -0.329 N  
HETATM   12  H   UNL     1      -8.371  14.918  64.925  1.00  0.00     0.000 HD 
BRANCH  11  13
HETATM   13  C   UNL     1      -9.958  13.854  65.676  1.00  0.00    -0.276 C  
HETATM   14  O   UNL     1     -11.114  13.803  65.278  1.00  0.00    -0.299 OA 
BRANCH  13  15
HETATM   15  N   UNL     1      -9.273  12.829  66.289  1.00  0.00    -0.416 N  
HETATM   16  H   UNL     1      -8.749  12.183  65.699  1.00  0.00     0.000 HD 
BRANCH  15  17
HETATM   17  N   UNL     1      -9.253  12.621  67.681  1.00  0.00    -0.184 NA 
HETATM   18  C   UNL     1     -10.432  11.871  68.156  1.00  0.00    -0.207 C  
HETATM   19  C   UNL     1     -10.050  10.387  68.242  1.00  0.00    -0.174 C  
HETATM   20  C   UNL     1     -10.720   9.492  67.204  1.00  0.00    -0.252 C  
HETATM   21  C   UNL     1      -9.856   9.622  65.964  1.00  0.00    -0.345 C  
HETATM   22  C   UNL     1      -8.439   9.726  66.515  1.00  0.00    -0.127 C  
HETATM   23  C   UNL     1      -8.554  10.334  67.924  1.00  0.00    -0.118 C  
HETATM   24  C   UNL     1      -8.100  11.784  68.066  1.00  0.00    -0.145 C  
ENDBRANCH  15  17
ENDBRANCH  13  15
ENDBRANCH  11  13
ENDBRANCH   8  11
ENDBRANCH   5   8
TORSDOF 5
ENDMDL
MODEL      135
REMARK 921   NORMALIZED FREE ENERGY PREDICTED BY IDOCK:   -4.71 KCAL/MOL
REMARK 922        TOTAL FREE ENERGY PREDICTED BY IDOCK:   -6.87 KCAL/MOL
REMARK 923 INTER-LIGAND FREE ENERGY PREDICTED BY IDOCK:   -6.32 KCAL/MOL
REMARK 924 INTRA-LIGAND FREE ENERGY PREDICTED BY IDOCK:   -0.55 KCAL/MOL
REMARK 927      BINDING AFFINITY PREDICTED BY RF-SCORE:    0.00 PKD
ROOT
HETATM    1  C   UNL     1      -8.574  16.878  66.225  1.00  0.00    -0.319 C  
HETATM    2  C   UNL     1      -9.217  15.619  66.726  1.00  0.00    -0.275 A  
HETATM    3  C   UNL     1     -10.611  15.514  66.813  1.00  0.00    -0.307 A  
HETATM    4  C   UNL     1     -11.200  14.373  67.357  1.00  0.00    -0.337 A  
HETATM    5  C   UNL     1     -10.392  13.321  67.806  1.00  0.00    -0.233 A  
HETATM    6  C   UNL     1      -9.003  13.404  67.703  1.00  0.00    -0.202 A  
HETATM    7  C   UNL     1      -8.419  14.551  67.162  1.00  0.00    -0.234 A  
ENDROOT
BRANCH   5   8
HETATM    8  S   UNL     1     -11.123  11.951  68.670  1.00  0.00    -0.267 S  
HETATM    9  O   UNL     1     -11.794  11.137  67.677  1.00  0.00    -0.612 OA 
HETATM   10  O   UNL     1     -11.823  12.461  69.826  1.00  0.00    -0.317 OA 
BRANCH   8  11
HETATM   11  N   UNL     1      -9.814  11.115  69.232  1.00  0.00    -0.423 N  
HETATM   12  H   UNL     1      -9.016  11.684  69.517  1.00  0.00     0.000 HD 
BRANCH  11  13
HETATM   13  C   UNL     1      -9.652   9.738  69.370  1.00  0.00    -0.207 C  
HETATM   14  O   UNL     1      -9.709   9.041  68.366  1.00  0.00    -0.151 OA 
BRANCH  13  15
HETATM   15  N   UNL     1      -9.393   9.291  70.646  1.00  0.00    -0.257 N  
HETATM   16  H   UNL     1      -8.439   9.008  70.870  1.00  0.00     0.000 HD 
BRANCH  15  17
HETATM   17  N   UNL     1     -10.367   9.200  71.659  1.00  0.00    -0.348 NA 
HETATM   18  C   UNL     1     -11.620   8.581  71.182  1.00  0.00    -0.281 C  
HETATM   19  C   UNL     1     -11.574   7.086  71.524  1.00  0.00    -0.322 C  
HETATM   20  C   UNL     1     -11.432   6.158  70.321  1.00  0.00    -0.357 C  
HETATM   21  C   UNL     1      -9.942   6.119  70.035  1.00  0.00    -0.217 C  
HETATM   22  C   UNL     1      -9.304   6.165  71.418  1.00  0.00    -0.163 C  
HETATM   23  C   UNL     1     -10.294   6.897  72.341  1.00  0.00    -0.226 C  
HETATM   24  C   UNL     1      -9.906   8.316  72.746  1.00  0.00    -0.263 C  
ENDBRANCH  15  17
ENDBRANCH  13  15
ENDBRANCH  11  13
ENDBRANCH   8  11
ENDBRANCH   5   8
TORSDOF 5
ENDMDL
MODEL      136
REMARK 921   NORMALIZED FREE ENERGY PREDICTED BY IDOCK:   -4.70 KCAL/MOL
REMARK 922        TOTAL FREE ENERGY PREDICTED BY IDOCK:   -6.85 KCAL/MOL
REMARK 923 INTER-LIGAND FREE ENERGY PREDICTED BY IDOCK:   -5.95 KCAL/MOL
REMARK 924 INTRA-LIGAND FREE ENERGY PREDICTED BY IDOCK:   -0.91 KCAL/MOL
REMARK 927      BINDING AFFINITY PREDICTED BY RF-SCORE:    0.00 PKD
ROOT
HETATM    1  C   UNL     1     -12.788   8.168  72.218  1.00  0.00    -0.263 C  
HETATM    2  C   UNL     1     -12.411   9.417  71.478  1.00  0.00    -0.452 A  
HETATM    3  C   UNL     1     -13.105  10.613  71.694  1.00  0.00    -0.555 A  
HETATM    4  C   UNL     1     -12.804  11.749  70.943  1.00  0.00    -0.243 A  
HETATM    5  C   UNL     1     -11.791  11.695  69.978  1.00  0.00    -0.355 A  
HETATM    6  C   UNL     1     -11.075  10.515  69.772  1.00  0.00    -0.354 A  
HETATM    7  C   UNL     1     -11.385   9.380  70.522  1.00  0.00    -0.328 A  
ENDROOT
BRANCH   5   8
HETATM    8  S   UNL     1     -11.529  13.076  68.891  1.00  0.00    -0.318 S  
HETATM    9  O   UNL     1     -10.096  13.231  68.744  1.00  0.00    -0.186 OA 
HETATM   10  O   UNL     1     -12.365  14.169  69.333  1.00  0.00    -0.326 OA 
BRANCH   8  11
HETATM   11  N   UNL     1     -12.148  12.550  67.454  1.00  0.00    -0.187 N  
HETATM   12  H   UNL     1     -13.151  12.363  67.446  1.00  0.00     0.000 HD 
BRANCH  11  13
HETATM   13  C   UNL     1     -11.485  12.327  66.248  1.00  0.00    -0.380 C  
HETATM   14  O   UNL     1     -11.706  13.085  65.313  1.00  0.00    -0.323 OA 
BRANCH  13  15
HETATM   15  N   UNL     1     -10.592  11.280  66.240  1.00  0.00    -0.258 N  
HETATM   16  H   UNL     1     -10.848  10.429  66.741  1.00  0.00     0.000 HD 
BRANCH  15  17
HETATM   17  N   UNL     1      -9.348  11.314  65.582  1.00  0.00    -0.221 NA 
HETATM   18  C   UNL     1      -8.214  11.135  66.512  1.00  0.00    -0.167 C  
HETATM   19  C   UNL     1      -7.825   9.651  66.510  1.00  0.00    -0.108 C  
HETATM   20  C   UNL     1      -8.145   8.903  67.800  1.00  0.00    -0.106 C  
HETATM   21  C   UNL     1      -9.601   8.500  67.664  1.00  0.00    -0.187 C  
HETATM   22  C   UNL     1      -9.752   8.171  66.183  1.00  0.00    -0.154 C  
HETATM   23  C   UNL     1      -8.699   9.004  65.433  1.00  0.00    -0.221 C  
HETATM   24  C   UNL     1      -9.230  10.191  64.633  1.00  0.00    -0.252 C  
ENDBRANCH  15  17
ENDBRANCH  13  15
ENDBRANCH  11  13
ENDBRANCH   8  11
ENDBRANCH   5   8
TORSDOF 5
ENDMDL
MODEL      137
REMARK 921   NORMALIZED FREE ENERGY PREDICTED BY IDOCK:   -4.68 KCAL/MOL
REMARK 922        TOTAL FREE ENERGY PREDICTED BY IDOCK:   -6.82 KCAL/MOL
REMARK 923 INTER-LIGAND FREE ENERGY PREDICTED BY IDOCK:   -5.56 KCAL/MOL
REMARK 924 INTRA-LIGAND FREE ENERGY PREDICTED BY IDOCK:   -1.26 KCAL/MOL
REMARK 927      BINDING AFFINITY PREDICTED BY RF-SCORE:    0.00 PKD
ROOT
HETATM    1  C   UNL     1      -5.465  14.943  69.671  1.00  0.00    -0.095 C  
HETATM    2  C   UNL     1      -6.767  15.129  68.950  1.00  0.00    -0.110 A  
HETATM    3  C   UNL     1      -6.856  14.916  67.569  1.00  0.00    -0.189 A  
HETATM    4  C   UNL     1      -8.049  15.170  66.892  1.00  0.00    -0.194 A  
HETATM    5  C   UNL     1      -9.166  15.628  67.600  1.00  0.00    -0.193 A  
HETATM    6  C   UNL     1      -9.096  15.820  68.981  1.00  0.00    -0.245 A  
HETATM    7  C   UNL     1      -7.898  15.570  69.652  1.00  0.00    -0.128 A  
ENDROOT
BRANCH   5   8
HETATM    8  S   UNL     1     -10.626  16.133  66.722  1.00  0.00    -0.233 S  
HETATM    9  O   UNL     1     -11.744  15.442  67.331  1.00  0.00    -0.215 OA 
HETATM   10  O   UNL     1     -10.362  16.036  65.304  1.00  0.00    -0.471 OA 
BRANCH   8  11
HETATM   11  N   UNL     1     -10.748  17.740  67.079  1.00  0.00    -0.253 N  
HETATM   12  H   UNL     1     -11.249  17.964  67.939  1.00  0.00     0.000 HD 
BRANCH  11  13
HETATM   13  C   UNL     1     -10.258  18.832  66.364  1.00  0.00    -0.421 C  
HETATM   14  O   UNL     1     -10.996  19.374  65.553  1.00  0.00    -0.411 OA 
BRANCH  13  15
HETATM   15  N   UNL     1      -8.980  19.230  66.681  1.00  0.00    -0.323 N  
HETATM   16  H   UNL     1      -8.762  19.410  67.661  1.00  0.00     0.000 HD 
BRANCH  15  17
HETATM   17  N   UNL     1      -7.954  19.405  65.732  1.00  0.00    -0.433 NA 
HETATM   18  C   UNL     1      -7.179  20.641  65.960  1.00  0.00    -0.047 C  
HETATM   19  C   UNL     1      -5.934  20.278  66.780  1.00  0.00    -0.205 C  
HETATM   20  C   UNL     1      -5.936  20.798  68.214  1.00  0.00    -0.373 C  
HETATM   21  C   UNL     1      -6.728  19.769  68.999  1.00  0.00    -0.372 C  
HETATM   22  C   UNL     1      -6.343  18.443  68.354  1.00  0.00    -0.202 C  
HETATM   23  C   UNL     1      -5.956  18.752  66.898  1.00  0.00    -0.170 C  
HETATM   24  C   UNL     1      -6.961  18.319  65.833  1.00  0.00    -0.277 C  
ENDBRANCH  15  17
ENDBRANCH  13  15
ENDBRANCH  11  13
ENDBRANCH   8  11
ENDBRANCH   5   8
TORSDOF 5
ENDMDL
MODEL      138
REMARK 921   NORMALIZED FREE ENERGY PREDICTED BY IDOCK:   -4.66 KCAL/MOL
REMARK 922        TOTAL FREE ENERGY PREDICTED BY IDOCK:   -6.81 KCAL/MOL
REMARK 923 INTER-LIGAND FREE ENERGY PREDICTED BY IDOCK:   -6.08 KCAL/MOL
REMARK 924 INTRA-LIGAND FREE ENERGY PREDICTED BY IDOCK:   -0.73 KCAL/MOL
REMARK 927      BINDING AFFINITY PREDICTED BY RF-SCORE:    0.00 PKD
ROOT
HETATM    1  C   UNL     1      -5.645  13.849  69.832  1.00  0.00    -0.108 C  
HETATM    2  C   UNL     1      -6.924  13.929  69.052  1.00  0.00    -0.109 A  
HETATM    3  C   UNL     1      -7.292  12.902  68.176  1.00  0.00    -0.119 A  
HETATM    4  C   UNL     1      -8.440  13.021  67.392  1.00  0.00    -0.200 A  
HETATM    5  C   UNL     1      -9.235  14.168  67.495  1.00  0.00    -0.192 A  
HETATM    6  C   UNL     1      -8.892  15.187  68.384  1.00  0.00    -0.174 A  
HETATM    7  C   UNL     1      -7.739  15.065  69.161  1.00  0.00    -0.179 A  
ENDROOT
BRANCH   5   8
HETATM    8  S   UNL     1     -10.589  14.410  66.369  1.00  0.00    -0.304 S  
HETATM    9  O   UNL     1     -11.730  13.711  66.926  1.00  0.00    -0.347 OA 
HETATM   10  O   UNL     1     -10.121  14.143  65.029  1.00  0.00    -0.383 OA 
BRANCH   8  11
HETATM   11  N   UNL     1     -10.875  16.033  66.464  1.00  0.00    -0.230 N  
HETATM   12  H   UNL     1     -11.262  16.363  67.349  1.00  0.00     0.000 HD 
BRANCH  11  13
HETATM   13  C   UNL     1     -10.660  17.015  65.497  1.00  0.00    -0.173 C  
HETATM   14  O   UNL     1     -11.145  16.853  64.385  1.00  0.00    -1.128 OA 
BRANCH  13  15
HETATM   15  N   UNL     1      -9.945  18.116  65.911  1.00  0.00    -0.187 N  
HETATM   16  H   UNL     1      -8.927  18.054  65.911  1.00  0.00     0.000 HD 
BRANCH  15  17
HETATM   17  N   UNL     1     -10.536  19.322  66.334  1.00  0.00    -0.449 NA 
HETATM   18  C   UNL     1     -10.755  19.360  67.794  1.00  0.00    -0.362 C  
HETATM   19  C   UNL     1      -9.562  20.080  68.436  1.00  0.00    -0.343 C  
HETATM   20  C   UNL     1      -8.642  19.186  69.262  1.00  0.00    -0.009 C  
HETATM   21  C   UNL     1      -7.697  18.564  68.251  1.00  0.00    -0.313 C  
HETATM   22  C   UNL     1      -7.461  19.678  67.238  1.00  0.00    -0.278 C  
HETATM   23  C   UNL     1      -8.710  20.576  67.266  1.00  0.00    -0.387 C  
HETATM   24  C   UNL     1      -9.642  20.463  66.063  1.00  0.00    -0.107 C  
ENDBRANCH  15  17
ENDBRANCH  13  15
ENDBRANCH  11  13
ENDBRANCH   8  11
ENDBRANCH   5   8
TORSDOF 5
ENDMDL
MODEL      139
REMARK 921   NORMALIZED FREE ENERGY PREDICTED BY IDOCK:   -4.66 KCAL/MOL
REMARK 922        TOTAL FREE ENERGY PREDICTED BY IDOCK:   -6.81 KCAL/MOL
REMARK 923 INTER-LIGAND FREE ENERGY PREDICTED BY IDOCK:   -6.04 KCAL/MOL
REMARK 924 INTRA-LIGAND FREE ENERGY PREDICTED BY IDOCK:   -0.77 KCAL/MOL
REMARK 927      BINDING AFFINITY PREDICTED BY RF-SCORE:    0.00 PKD
ROOT
HETATM    1  C   UNL     1     -11.659  11.722  63.020  1.00  0.00     0.016 C  
HETATM    2  C   UNL     1     -11.162  12.492  64.207  1.00  0.00    -0.407 A  
HETATM    3  C   UNL     1     -10.252  11.917  65.102  1.00  0.00    -0.314 A  
HETATM    4  C   UNL     1      -9.859  12.608  66.249  1.00  0.00    -0.266 A  
HETATM    5  C   UNL     1     -10.366  13.888  66.497  1.00  0.00    -0.286 A  
HETATM    6  C   UNL     1     -11.254  14.482  65.599  1.00  0.00    -0.335 A  
HETATM    7  C   UNL     1     -11.649  13.783  64.456  1.00  0.00    -0.413 A  
ENDROOT
BRANCH   5   8
HETATM    8  S   UNL     1     -10.018  14.694  68.042  1.00  0.00    -0.224 S  
HETATM    9  O   UNL     1     -11.181  15.494  68.371  1.00  0.00    -0.305 OA 
HETATM   10  O   UNL     1      -8.698  15.278  67.965  1.00  0.00    -0.157 OA 
BRANCH   8  11
HETATM   11  N   UNL     1      -9.927  13.441  69.112  1.00  0.00    -0.396 N  
HETATM   12  H   UNL     1      -8.984  13.153  69.376  1.00  0.00     0.000 HD 
BRANCH  11  13
HETATM   13  C   UNL     1     -10.964  12.721  69.703  1.00  0.00     0.211 C  
HETATM   14  O   UNL     1     -11.182  11.584  69.308  1.00  0.00    -0.242 OA 
BRANCH  13  15
HETATM   15  N   UNL     1     -11.627  13.358  70.727  1.00  0.00    -0.362 N  
HETATM   16  H   UNL     1     -11.069  13.838  71.433  1.00  0.00     0.000 HD 
BRANCH  15  17
HETATM   17  N   UNL     1     -13.029  13.386  70.858  1.00  0.00    -0.182 NA 
HETATM   18  C   UNL     1     -13.466  13.264  72.263  1.00  0.00    -0.582 C  
HETATM   19  C   UNL     1     -13.698  14.677  72.815  1.00  0.00    -0.473 C  
HETATM   20  C   UNL     1     -12.683  15.131  73.860  1.00  0.00    -0.610 C  
HETATM   21  C   UNL     1     -11.509  15.658  73.057  1.00  0.00    -0.142 C  
HETATM   22  C   UNL     1     -12.161  16.328  71.853  1.00  0.00    -0.447 C  
HETATM   23  C   UNL     1     -13.504  15.615  71.621  1.00  0.00    -0.522 C  
HETATM   24  C   UNL     1     -13.567  14.685  70.413  1.00  0.00     0.398 C  
ENDBRANCH  15  17
ENDBRANCH  13  15
ENDBRANCH  11  13
ENDBRANCH   8  11
ENDBRANCH   5   8
TORSDOF 5
ENDMDL
MODEL      140
REMARK 921   NORMALIZED FREE ENERGY PREDICTED BY IDOCK:   -4.64 KCAL/MOL
REMARK 922        TOTAL FREE ENERGY PREDICTED BY IDOCK:   -6.77 KCAL/MOL
REMARK 923 INTER-LIGAND FREE ENERGY PREDICTED BY IDOCK:   -5.54 KCAL/MOL
REMARK 924 INTRA-LIGAND FREE ENERGY PREDICTED BY IDOCK:   -1.23 KCAL/MOL
REMARK 927      BINDING AFFINITY PREDICTED BY RF-SCORE:    0.00 PKD
ROOT
HETATM    1  C   UNL     1     -13.035  12.116  64.128  1.00  0.00    -0.247 C  
HETATM    2  C   UNL     1     -12.253  13.181  64.838  1.00  0.00    -0.477 A  
HETATM    3  C   UNL     1     -11.091  13.714  64.269  1.00  0.00    -0.332 A  
HETATM    4  C   UNL     1     -10.324  14.644  64.971  1.00  0.00    -0.432 A  
HETATM    5  C   UNL     1     -10.727  15.055  66.247  1.00  0.00    -0.322 A  
HETATM    6  C   UNL     1     -11.898  14.549  66.814  1.00  0.00    -0.390 A  
HETATM    7  C   UNL     1     -12.658  13.614  66.109  1.00  0.00    -0.391 A  
ENDROOT
BRANCH   5   8
HETATM    8  S   UNL     1      -9.662  16.091  67.221  1.00  0.00    -0.234 S  
HETATM    9  O   UNL     1     -10.507  16.797  68.162  1.00  0.00    -0.299 OA 
HETATM   10  O   UNL     1      -8.771  16.797  66.329  1.00  0.00    -0.284 OA 
BRANCH   8  11
HETATM   11  N   UNL     1      -8.741  15.006  68.058  1.00  0.00    -0.156 N  
HETATM   12  H   UNL     1      -8.889  14.988  69.068  1.00  0.00     0.000 HD 
BRANCH  11  13
HETATM   13  C   UNL     1      -7.788  14.112  67.573  1.00  0.00    -0.192 C  
HETATM   14  O   UNL     1      -6.678  14.542  67.289  1.00  0.00    -0.274 OA 
BRANCH  13  15
HETATM   15  N   UNL     1      -8.183  12.796  67.502  1.00  0.00    -0.168 N  
HETATM   16  H   UNL     1      -9.093  12.591  67.090  1.00  0.00     0.000 HD 
BRANCH  15  17
HETATM   17  N   UNL     1      -7.406  11.717  67.963  1.00  0.00    -0.084 NA 
HETATM   18  C   UNL     1      -8.188  10.769  68.783  1.00  0.00    -0.145 C  
HETATM   19  C   UNL     1      -8.666   9.631  67.871  1.00  0.00    -0.119 C  
HETATM   20  C   UNL     1     -10.167   9.614  67.601  1.00  0.00    -0.267 C  
HETATM   21  C   UNL     1     -10.366  10.589  66.455  1.00  0.00    -0.294 C  
HETATM   22  C   UNL     1      -9.132  10.387  65.585  1.00  0.00    -0.206 C  
HETATM   23  C   UNL     1      -8.008   9.896  66.515  1.00  0.00    -0.110 C  
HETATM   24  C   UNL     1      -6.912  10.909  66.832  1.00  0.00    -0.119 C  
ENDBRANCH  15  17
ENDBRANCH  13  15
ENDBRANCH  11  13
ENDBRANCH   8  11
ENDBRANCH   5   8
TORSDOF 5
ENDMDL
MODEL      141
REMARK 921   NORMALIZED FREE ENERGY PREDICTED BY IDOCK:   -4.64 KCAL/MOL
REMARK 922        TOTAL FREE ENERGY PREDICTED BY IDOCK:   -6.77 KCAL/MOL
REMARK 923 INTER-LIGAND FREE ENERGY PREDICTED BY IDOCK:   -6.16 KCAL/MOL
REMARK 924 INTRA-LIGAND FREE ENERGY PREDICTED BY IDOCK:   -0.61 KCAL/MOL
REMARK 927      BINDING AFFINITY PREDICTED BY RF-SCORE:    0.00 PKD
ROOT
HETATM    1  C   UNL     1      -5.304  20.255  63.836  1.00  0.00    -0.239 C  
HETATM    2  C   UNL     1      -6.176  19.650  64.896  1.00  0.00    -0.318 A  
HETATM    3  C   UNL     1      -7.298  20.335  65.376  1.00  0.00    -0.140 A  
HETATM    4  C   UNL     1      -8.056  19.803  66.420  1.00  0.00    -0.350 A  
HETATM    5  C   UNL     1      -7.700  18.571  66.980  1.00  0.00    -0.225 A  
HETATM    6  C   UNL     1      -6.597  17.867  66.493  1.00  0.00    -0.249 A  
HETATM    7  C   UNL     1      -5.839  18.407  65.452  1.00  0.00    -0.250 A  
ENDROOT
BRANCH   5   8
HETATM    8  S   UNL     1      -8.543  17.980  68.428  1.00  0.00    -0.287 S  
HETATM    9  O   UNL     1      -8.875  19.142  69.226  1.00  0.00    -0.166 OA 
HETATM   10  O   UNL     1      -7.787  16.878  68.978  1.00  0.00    -0.240 OA 
BRANCH   8  11
HETATM   11  N   UNL     1      -9.941  17.346  67.821  1.00  0.00    -0.289 N  
HETATM   12  H   UNL     1     -10.320  17.819  66.999  1.00  0.00     0.000 HD 
BRANCH  11  13
HETATM   13  C   UNL     1     -10.675  16.253  68.278  1.00  0.00    -0.322 C  
HETATM   14  O   UNL     1     -11.095  16.274  69.428  1.00  0.00    -0.311 OA 
BRANCH  13  15
HETATM   15  N   UNL     1     -10.898  15.254  67.358  1.00  0.00    -0.298 N  
HETATM   16  H   UNL     1     -11.852  15.115  67.024  1.00  0.00     0.000 HD 
BRANCH  15  17
HETATM   17  N   UNL     1      -9.889  14.414  66.850  1.00  0.00    -0.254 NA 
HETATM   18  C   UNL     1     -10.310  12.999  66.794  1.00  0.00    -0.254 C  
HETATM   19  C   UNL     1     -10.828  12.713  65.378  1.00  0.00    -0.318 C  
HETATM   20  C   UNL     1     -12.333  12.478  65.282  1.00  0.00    -0.469 C  
HETATM   21  C   UNL     1     -12.937  13.867  65.201  1.00  0.00    -0.282 C  
HETATM   22  C   UNL     1     -11.933  14.655  64.367  1.00  0.00    -0.454 C  
HETATM   23  C   UNL     1     -10.561  13.992  64.582  1.00  0.00    -0.416 C  
HETATM   24  C   UNL     1      -9.574  14.764  65.453  1.00  0.00    -0.029 C  
ENDBRANCH  15  17
ENDBRANCH  13  15
ENDBRANCH  11  13
ENDBRANCH   8  11
ENDBRANCH   5   8
TORSDOF 5
ENDMDL
MODEL      142
REMARK 921   NORMALIZED FREE ENERGY PREDICTED BY IDOCK:   -4.61 KCAL/MOL
REMARK 922        TOTAL FREE ENERGY PREDICTED BY IDOCK:   -6.74 KCAL/MOL
REMARK 923 INTER-LIGAND FREE ENERGY PREDICTED BY IDOCK:   -5.65 KCAL/MOL
REMARK 924 INTRA-LIGAND FREE ENERGY PREDICTED BY IDOCK:   -1.09 KCAL/MOL
REMARK 927      BINDING AFFINITY PREDICTED BY RF-SCORE:    0.00 PKD
ROOT
HETATM    1  C   UNL     1      -9.117  10.653  63.673  1.00  0.00    -0.248 C  
HETATM    2  C   UNL     1      -9.630  11.205  64.970  1.00  0.00    -0.278 A  
HETATM    3  C   UNL     1     -10.999  11.427  65.160  1.00  0.00    -0.259 A  
HETATM    4  C   UNL     1     -11.461  12.017  66.337  1.00  0.00    -0.417 A  
HETATM    5  C   UNL     1     -10.551  12.375  67.338  1.00  0.00    -0.216 A  
HETATM    6  C   UNL     1      -9.186  12.136  67.170  1.00  0.00    -0.193 A  
HETATM    7  C   UNL     1      -8.729  11.550  65.988  1.00  0.00    -0.095 A  
ENDROOT
BRANCH   5   8
HETATM    8  S   UNL     1     -11.108  13.295  68.753  1.00  0.00    -0.272 S  
HETATM    9  O   UNL     1     -12.488  13.659  68.502  1.00  0.00    -0.095 OA 
HETATM   10  O   UNL     1     -10.111  14.292  69.070  1.00  0.00    -0.209 OA 
BRANCH   8  11
HETATM   11  N   UNL     1     -11.075  12.179  69.969  1.00  0.00    -0.379 N  
HETATM   12  H   UNL     1     -10.152  11.971  70.352  1.00  0.00     0.000 HD 
BRANCH  11  13
HETATM   13  C   UNL     1     -12.136  11.481  70.542  1.00  0.00    -0.378 C  
HETATM   14  O   UNL     1     -12.976  12.113  71.169  1.00  0.00    -0.277 OA 
BRANCH  13  15
HETATM   15  N   UNL     1     -12.161  10.126  70.303  1.00  0.00    -0.462 N  
HETATM   16  H   UNL     1     -12.537   9.804  69.412  1.00  0.00     0.000 HD 
BRANCH  15  17
HETATM   17  N   UNL     1     -11.699   9.160  71.216  1.00  0.00    -0.302 NA 
HETATM   18  C   UNL     1     -11.869   7.782  70.713  1.00  0.00    -0.187 C  
HETATM   19  C   UNL     1     -10.550   7.346  70.061  1.00  0.00    -0.241 C  
HETATM   20  C   UNL     1     -10.601   7.204  68.543  1.00  0.00    -0.219 C  
HETATM   21  C   UNL     1     -10.375   8.608  68.014  1.00  0.00    -0.277 C  
HETATM   22  C   UNL     1      -9.368   9.208  68.989  1.00  0.00    -0.151 C  
HETATM   23  C   UNL     1      -9.567   8.487  70.333  1.00  0.00    -0.189 C  
HETATM   24  C   UNL     1     -10.247   9.299  71.433  1.00  0.00    -0.301 C  
ENDBRANCH  15  17
ENDBRANCH  13  15
ENDBRANCH  11  13
ENDBRANCH   8  11
ENDBRANCH   5   8
TORSDOF 5
ENDMDL
MODEL      143
REMARK 921   NORMALIZED FREE ENERGY PREDICTED BY IDOCK:   -4.59 KCAL/MOL
REMARK 922        TOTAL FREE ENERGY PREDICTED BY IDOCK:   -6.71 KCAL/MOL
REMARK 923 INTER-LIGAND FREE ENERGY PREDICTED BY IDOCK:   -5.98 KCAL/MOL
REMARK 924 INTRA-LIGAND FREE ENERGY PREDICTED BY IDOCK:   -0.73 KCAL/MOL
REMARK 927      BINDING AFFINITY PREDICTED BY RF-SCORE:    0.00 PKD
ROOT
HETATM    1  C   UNL     1     -13.436  15.727  73.075  1.00  0.00    -0.672 C  
HETATM    2  C   UNL     1     -12.837  15.155  71.825  1.00  0.00    -0.432 A  
HETATM    3  C   UNL     1     -12.153  15.974  70.920  1.00  0.00    -0.332 A  
HETATM    4  C   UNL     1     -11.670  15.452  69.720  1.00  0.00    -0.352 A  
HETATM    5  C   UNL     1     -11.860  14.097  69.427  1.00  0.00    -0.330 A  
HETATM    6  C   UNL     1     -12.519  13.264  70.332  1.00  0.00    -0.295 A  
HETATM    7  C   UNL     1     -13.005  13.794  71.529  1.00  0.00    -0.444 A  
ENDROOT
BRANCH   5   8
HETATM    8  S   UNL     1     -11.417  13.467  67.825  1.00  0.00    -0.335 S  
HETATM    9  O   UNL     1      -9.977  13.578  67.712  1.00  0.00    -0.222 OA 
HETATM   10  O   UNL     1     -12.298  14.058  66.843  1.00  0.00    -0.418 OA 
BRANCH   8  11
HETATM   11  N   UNL     1     -11.812  11.867  67.923  1.00  0.00    -0.294 N  
HETATM   12  H   UNL     1     -12.808  11.654  67.862  1.00  0.00     0.000 HD 
BRANCH  11  13
HETATM   13  C   UNL     1     -10.969  10.768  68.078  1.00  0.00    -0.283 C  
HETATM   14  O   UNL     1     -11.210   9.972  68.975  1.00  0.00    -0.207 OA 
BRANCH  13  15
HETATM   15  N   UNL     1      -9.951  10.660  67.159  1.00  0.00    -0.189 N  
HETATM   16  H   UNL     1      -9.115  11.227  67.300  1.00  0.00     0.000 HD 
BRANCH  15  17
HETATM   17  N   UNL     1      -9.995   9.814  66.034  1.00  0.00    -0.273 NA 
HETATM   18  C   UNL     1      -9.008  10.194  65.004  1.00  0.00    -0.195 C  
HETATM   19  C   UNL     1      -7.751   9.339  65.210  1.00  0.00    -0.103 C  
HETATM   20  C   UNL     1      -6.532  10.102  65.719  1.00  0.00    -0.107 C  
HETATM   21  C   UNL     1      -6.713  10.163  67.224  1.00  0.00    -0.073 C  
HETATM   22  C   UNL     1      -7.341   8.819  67.571  1.00  0.00    -0.081 C  
HETATM   23  C   UNL     1      -8.110   8.352  66.323  1.00  0.00    -0.105 C  
HETATM   24  C   UNL     1      -9.632   8.434  66.406  1.00  0.00    -0.237 C  
ENDBRANCH  15  17
ENDBRANCH  13  15
ENDBRANCH  11  13
ENDBRANCH   8  11
ENDBRANCH   5   8
TORSDOF 5
ENDMDL
MODEL      144
REMARK 921   NORMALIZED FREE ENERGY PREDICTED BY IDOCK:   -4.55 KCAL/MOL
REMARK 922        TOTAL FREE ENERGY PREDICTED BY IDOCK:   -6.66 KCAL/MOL
REMARK 923 INTER-LIGAND FREE ENERGY PREDICTED BY IDOCK:   -5.77 KCAL/MOL
REMARK 924 INTRA-LIGAND FREE ENERGY PREDICTED BY IDOCK:   -0.89 KCAL/MOL
REMARK 927      BINDING AFFINITY PREDICTED BY RF-SCORE:    0.00 PKD
ROOT
HETATM    1  C   UNL     1     -11.015  20.179  65.482  1.00  0.00     0.010 C  
HETATM    2  C   UNL     1     -10.283  19.191  66.341  1.00  0.00    -0.515 A  
HETATM    3  C   UNL     1      -9.545  19.617  67.451  1.00  0.00    -0.455 A  
HETATM    4  C   UNL     1      -8.799  18.704  68.196  1.00  0.00    -0.335 A  
HETATM    5  C   UNL     1      -8.801  17.350  67.839  1.00  0.00    -0.237 A  
HETATM    6  C   UNL     1      -9.553  16.909  66.749  1.00  0.00    -0.273 A  
HETATM    7  C   UNL     1     -10.292  17.830  66.003  1.00  0.00    -0.304 A  
ENDROOT
BRANCH   5   8
HETATM    8  S   UNL     1      -7.710  16.215  68.663  1.00  0.00    -0.199 S  
HETATM    9  O   UNL     1      -6.764  17.013  69.417  1.00  0.00    -0.236 OA 
HETATM   10  O   UNL     1      -7.269  15.228  67.704  1.00  0.00    -0.145 OA 
BRANCH   8  11
HETATM   11  N   UNL     1      -8.704  15.439  69.728  1.00  0.00    -0.346 N  
HETATM   12  H   UNL     1      -8.442  15.513  70.712  1.00  0.00     0.000 HD 
BRANCH  11  13
HETATM   13  C   UNL     1      -9.854  14.695  69.466  1.00  0.00     0.089 C  
HETATM   14  O   UNL     1     -10.929  15.128  69.857  1.00  0.00    -0.250 OA 
BRANCH  13  15
HETATM   15  N   UNL     1      -9.667  13.542  68.737  1.00  0.00    -0.411 N  
HETATM   16  H   UNL     1      -9.179  12.767  69.185  1.00  0.00     0.000 HD 
BRANCH  15  17
HETATM   17  N   UNL     1     -10.111  13.371  67.412  1.00  0.00    -0.235 NA 
HETATM   18  C   UNL     1      -9.368  12.310  66.703  1.00  0.00    -0.228 C  
HETATM   19  C   UNL     1     -10.174  11.009  66.812  1.00  0.00    -0.272 C  
HETATM   20  C   UNL     1      -9.547   9.939  67.701  1.00  0.00    -0.172 C  
HETATM   21  C   UNL     1      -9.980  10.302  69.109  1.00  0.00    -0.235 C  
HETATM   22  C   UNL     1     -11.398  10.833  68.929  1.00  0.00    -0.349 C  
HETATM   23  C   UNL     1     -11.483  11.400  67.502  1.00  0.00    -0.336 C  
HETATM   24  C   UNL     1     -11.515  12.921  67.387  1.00  0.00    -0.336 C  
ENDBRANCH  15  17
ENDBRANCH  13  15
ENDBRANCH  11  13
ENDBRANCH   8  11
ENDBRANCH   5   8
TORSDOF 5
ENDMDL
MODEL      145
REMARK 921   NORMALIZED FREE ENERGY PREDICTED BY IDOCK:   -4.55 KCAL/MOL
REMARK 922        TOTAL FREE ENERGY PREDICTED BY IDOCK:   -6.66 KCAL/MOL
REMARK 923 INTER-LIGAND FREE ENERGY PREDICTED BY IDOCK:   -6.32 KCAL/MOL
REMARK 924 INTRA-LIGAND FREE ENERGY PREDICTED BY IDOCK:   -0.34 KCAL/MOL
REMARK 927      BINDING AFFINITY PREDICTED BY RF-SCORE:    0.00 PKD
ROOT
HETATM    1  C   UNL     1     -12.251  13.846  70.960  1.00  0.00    -0.421 C  
HETATM    2  C   UNL     1     -11.632  14.722  69.912  1.00  0.00    -0.330 A  
HETATM    3  C   UNL     1     -12.213  14.839  68.644  1.00  0.00    -0.112 A  
HETATM    4  C   UNL     1     -11.589  15.590  67.648  1.00  0.00    -0.147 A  
HETATM    5  C   UNL     1     -10.381  16.242  67.924  1.00  0.00    -0.285 A  
HETATM    6  C   UNL     1      -9.805  16.154  69.192  1.00  0.00    -0.250 A  
HETATM    7  C   UNL     1     -10.432  15.396  70.183  1.00  0.00    -0.291 A  
ENDROOT
BRANCH   5   8
HETATM    8  S   UNL     1      -9.487  17.042  66.613  1.00  0.00    -0.276 S  
HETATM    9  O   UNL     1      -8.198  17.424  67.154  1.00  0.00    -0.200 OA 
HETATM   10  O   UNL     1     -10.360  18.009  65.989  1.00  0.00    -0.467 OA 
BRANCH   8  11
HETATM   11  N   UNL     1      -9.254  15.829  65.518  1.00  0.00    -0.154 N  
HETATM   12  H   UNL     1      -8.282  15.640  65.268  1.00  0.00     0.000 HD 
BRANCH  11  13
HETATM   13  C   UNL     1     -10.204  15.028  64.887  1.00  0.00    -0.225 C  
HETATM   14  O   UNL     1     -11.179  15.569  64.383  1.00  0.00    -0.336 OA 
BRANCH  13  15
HETATM   15  N   UNL     1      -9.925  13.681  64.854  1.00  0.00    -0.618 N  
HETATM   16  H   UNL     1      -8.982  13.381  65.100  1.00  0.00     0.000 HD 
BRANCH  15  17
HETATM   17  N   UNL     1     -10.863  12.693  64.500  1.00  0.00    -0.316 NA 
HETATM   18  C   UNL     1     -10.235  11.527  63.847  1.00  0.00    -0.362 C  
HETATM   19  C   UNL     1      -9.980  10.459  64.920  1.00  0.00    -0.409 C  
HETATM   20  C   UNL     1      -8.511  10.230  65.260  1.00  0.00    -0.168 C  
HETATM   21  C   UNL     1      -8.176  11.304  66.278  1.00  0.00    -0.126 C  
HETATM   22  C   UNL     1      -9.447  11.430  67.108  1.00  0.00    -0.186 C  
HETATM   23  C   UNL     1     -10.615  11.011  66.199  1.00  0.00    -0.288 C  
HETATM   24  C   UNL     1     -11.515  12.139  65.702  1.00  0.00    -0.355 C  
ENDBRANCH  15  17
ENDBRANCH  13  15
ENDBRANCH  11  13
ENDBRANCH   8  11
ENDBRANCH   5   8
TORSDOF 5
ENDMDL
MODEL      146
REMARK 921   NORMALIZED FREE ENERGY PREDICTED BY IDOCK:   -4.54 KCAL/MOL
REMARK 922        TOTAL FREE ENERGY PREDICTED BY IDOCK:   -6.65 KCAL/MOL
REMARK 923 INTER-LIGAND FREE ENERGY PREDICTED BY IDOCK:   -5.96 KCAL/MOL
REMARK 924 INTRA-LIGAND FREE ENERGY PREDICTED BY IDOCK:   -0.69 KCAL/MOL
REMARK 927      BINDING AFFINITY PREDICTED BY RF-SCORE:    0.00 PKD
ROOT
HETATM    1  C   UNL     1      -7.089   6.452  74.283  1.00  0.00    -0.089 C  
HETATM    2  C   UNL     1      -7.941   7.304  73.390  1.00  0.00    -0.127 A  
HETATM    3  C   UNL     1      -9.317   7.425  73.618  1.00  0.00    -0.306 A  
HETATM    4  C   UNL     1     -10.117   8.151  72.737  1.00  0.00    -0.367 A  
HETATM    5  C   UNL     1      -9.538   8.775  71.626  1.00  0.00    -0.293 A  
HETATM    6  C   UNL     1      -8.163   8.683  71.402  1.00  0.00    -0.205 A  
HETATM    7  C   UNL     1      -7.369   7.949  72.284  1.00  0.00    -0.100 A  
ENDROOT
BRANCH   5   8
HETATM    8  S   UNL     1     -10.572   9.541  70.401  1.00  0.00    -0.299 S  
HETATM    9  O   UNL     1     -11.557  10.330  71.114  1.00  0.00    -0.355 OA 
HETATM   10  O   UNL     1     -10.963   8.535  69.440  1.00  0.00    -0.147 OA 
BRANCH   8  11
HETATM   11  N   UNL     1      -9.542  10.571  69.624  1.00  0.00    -0.420 N  
HETATM   12  H   UNL     1      -8.568  10.531  69.925  1.00  0.00     0.000 HD 
BRANCH  11  13
HETATM   13  C   UNL     1      -9.823  11.489  68.613  1.00  0.00    -0.177 C  
HETATM   14  O   UNL     1      -9.640  11.148  67.452  1.00  0.00    -0.167 OA 
BRANCH  13  15
HETATM   15  N   UNL     1     -10.332  12.698  69.026  1.00  0.00    -0.436 N  
HETATM   16  H   UNL     1      -9.679  13.397  69.380  1.00  0.00     0.000 HD 
BRANCH  15  17
HETATM   17  N   UNL     1     -11.700  13.028  68.989  1.00  0.00    -0.311 NA 
HETATM   18  C   UNL     1     -12.078  13.984  70.050  1.00  0.00    -0.348 C  
HETATM   19  C   UNL     1     -12.040  15.397  69.454  1.00  0.00    -0.308 C  
HETATM   20  C   UNL     1     -10.910  16.281  69.974  1.00  0.00    -0.329 C  
HETATM   21  C   UNL     1      -9.707  15.913  69.126  1.00  0.00    -0.249 C  
HETATM   22  C   UNL     1     -10.299  15.654  67.746  1.00  0.00    -0.266 C  
HETATM   23  C   UNL     1     -11.754  15.201  67.964  1.00  0.00    -0.304 C  
HETATM   24  C   UNL     1     -12.035  13.720  67.730  1.00  0.00    -0.356 C  
ENDBRANCH  15  17
ENDBRANCH  13  15
ENDBRANCH  11  13
ENDBRANCH   8  11
ENDBRANCH   5   8
TORSDOF 5
ENDMDL
MODEL      147
REMARK 921   NORMALIZED FREE ENERGY PREDICTED BY IDOCK:   -4.49 KCAL/MOL
REMARK 922        TOTAL FREE ENERGY PREDICTED BY IDOCK:   -6.59 KCAL/MOL
REMARK 923 INTER-LIGAND FREE ENERGY PREDICTED BY IDOCK:   -5.89 KCAL/MOL
REMARK 924 INTRA-LIGAND FREE ENERGY PREDICTED BY IDOCK:   -0.70 KCAL/MOL
REMARK 927      BINDING AFFINITY PREDICTED BY RF-SCORE:    0.00 PKD
ROOT
HETATM    1  C   UNL     1      -7.890   6.678  74.122  1.00  0.00    -0.110 C  
HETATM    2  C   UNL     1      -8.500   7.586  73.096  1.00  0.00    -0.178 A  
HETATM    3  C   UNL     1      -9.862   7.909  73.147  1.00  0.00    -0.357 A  
HETATM    4  C   UNL     1     -10.440   8.686  72.143  1.00  0.00    -0.411 A  
HETATM    5  C   UNL     1      -9.650   9.158  71.088  1.00  0.00    -0.277 A  
HETATM    6  C   UNL     1      -8.287   8.864  71.040  1.00  0.00    -0.233 A  
HETATM    7  C   UNL     1      -7.715   8.080  72.044  1.00  0.00    -0.124 A  
ENDROOT
BRANCH   5   8
HETATM    8  S   UNL     1     -10.413   9.986  69.713  1.00  0.00    -0.271 S  
HETATM    9  O   UNL     1     -11.443  10.847  70.259  1.00  0.00    -0.300 OA 
HETATM   10  O   UNL     1     -10.712   9.003  68.697  1.00  0.00    -0.188 OA 
BRANCH   8  11
HETATM   11  N   UNL     1      -9.199  10.935  69.121  1.00  0.00    -0.371 N  
HETATM   12  H   UNL     1      -8.785  11.589  69.786  1.00  0.00     0.000 HD 
BRANCH  11  13
HETATM   13  C   UNL     1      -8.663  10.964  67.834  1.00  0.00    -0.131 C  
HETATM   14  O   UNL     1      -7.773  10.171  67.557  1.00  0.00    -0.091 OA 
BRANCH  13  15
HETATM   15  N   UNL     1      -9.230  11.872  66.970  1.00  0.00    -0.185 N  
HETATM   16  H   UNL     1      -8.827  12.808  66.926  1.00  0.00     0.000 HD 
BRANCH  15  17
HETATM   17  N   UNL     1     -10.333  11.586  66.143  1.00  0.00    -0.237 NA 
HETATM   18  C   UNL     1     -11.616  11.976  66.760  1.00  0.00    -0.321 C  
HETATM   19  C   UNL     1     -11.988  13.373  66.245  1.00  0.00    -0.460 C  
HETATM   20  C   UNL     1     -11.905  14.483  67.288  1.00  0.00    -0.419 C  
HETATM   21  C   UNL     1     -10.446  14.897  67.298  1.00  0.00    -0.263 C  
HETATM   22  C   UNL     1     -10.023  14.782  65.838  1.00  0.00    -0.351 C  
HETATM   23  C   UNL     1     -10.927  13.714  65.197  1.00  0.00    -0.334 C  
HETATM   24  C   UNL     1     -10.267  12.371  64.896  1.00  0.00    -0.278 C  
ENDBRANCH  15  17
ENDBRANCH  13  15
ENDBRANCH  11  13
ENDBRANCH   8  11
ENDBRANCH   5   8
TORSDOF 5
ENDMDL
MODEL      148
REMARK 921   NORMALIZED FREE ENERGY PREDICTED BY IDOCK:   -4.49 KCAL/MOL
REMARK 922        TOTAL FREE ENERGY PREDICTED BY IDOCK:   -6.58 KCAL/MOL
REMARK 923 INTER-LIGAND FREE ENERGY PREDICTED BY IDOCK:   -6.14 KCAL/MOL
REMARK 924 INTRA-LIGAND FREE ENERGY PREDICTED BY IDOCK:   -0.44 KCAL/MOL
REMARK 927      BINDING AFFINITY PREDICTED BY RF-SCORE:    0.00 PKD
ROOT
HETATM    1  C   UNL     1      -8.575   9.073  62.504  1.00  0.00    -0.210 C  
HETATM    2  C   UNL     1      -9.272   9.972  63.482  1.00  0.00    -0.315 A  
HETATM    3  C   UNL     1      -9.862  11.169  63.058  1.00  0.00    -0.368 A  
HETATM    4  C   UNL     1     -10.435  12.040  63.985  1.00  0.00    -0.410 A  
HETATM    5  C   UNL     1     -10.434  11.707  65.344  1.00  0.00    -0.275 A  
HETATM    6  C   UNL     1      -9.871  10.505  65.776  1.00  0.00    -0.295 A  
HETATM    7  C   UNL     1      -9.293   9.640  64.844  1.00  0.00    -0.306 A  
ENDROOT
BRANCH   5   8
HETATM    8  S   UNL     1     -10.990  12.891  66.546  1.00  0.00    -0.282 S  
HETATM    9  O   UNL     1      -9.838  13.253  67.346  1.00  0.00    -0.220 OA 
HETATM   10  O   UNL     1     -12.202  12.390  67.153  1.00  0.00    -0.492 OA 
BRANCH   8  11
HETATM   11  N   UNL     1     -11.418  14.194  65.627  1.00  0.00    -0.318 N  
HETATM   12  H   UNL     1     -12.322  14.126  65.159  1.00  0.00     0.000 HD 
BRANCH  11  13
HETATM   13  C   UNL     1     -10.710  15.373  65.402  1.00  0.00    -0.400 C  
HETATM   14  O   UNL     1     -10.964  16.022  64.396  1.00  0.00    -0.554 OA 
BRANCH  13  15
HETATM   15  N   UNL     1      -9.805  15.724  66.378  1.00  0.00    -0.258 N  
HETATM   16  H   UNL     1     -10.127  15.740  67.346  1.00  0.00     0.000 HD 
BRANCH  15  17
HETATM   17  N   UNL     1      -8.463  16.061  66.121  1.00  0.00    -0.298 NA 
HETATM   18  C   UNL     1      -8.192  17.497  66.334  1.00  0.00    -0.270 C  
HETATM   19  C   UNL     1      -7.639  17.672  67.754  1.00  0.00    -0.209 C  
HETATM   20  C   UNL     1      -8.578  18.380  68.726  1.00  0.00    -0.248 C  
HETATM   21  C   UNL     1      -9.498  17.289  69.240  1.00  0.00     0.056 C  
HETATM   22  C   UNL     1      -8.593  16.067  69.343  1.00  0.00    -0.150 C  
HETATM   23  C   UNL     1      -7.475  16.253  68.303  1.00  0.00    -0.157 C  
HETATM   24  C   UNL     1      -7.562  15.370  67.061  1.00  0.00    -0.160 C  
ENDBRANCH  15  17
ENDBRANCH  13  15
ENDBRANCH  11  13
ENDBRANCH   8  11
ENDBRANCH   5   8
TORSDOF 5
ENDMDL
MODEL      149
REMARK 921   NORMALIZED FREE ENERGY PREDICTED BY IDOCK:   -4.48 KCAL/MOL
REMARK 922        TOTAL FREE ENERGY PREDICTED BY IDOCK:   -6.57 KCAL/MOL
REMARK 923 INTER-LIGAND FREE ENERGY PREDICTED BY IDOCK:   -5.20 KCAL/MOL
REMARK 924 INTRA-LIGAND FREE ENERGY PREDICTED BY IDOCK:   -1.37 KCAL/MOL
REMARK 927      BINDING AFFINITY PREDICTED BY RF-SCORE:    0.00 PKD
ROOT
HETATM    1  C   UNL     1      -5.757  15.159  69.875  1.00  0.00    -0.123 C  
HETATM    2  C   UNL     1      -6.905  15.158  68.908  1.00  0.00    -0.120 A  
HETATM    3  C   UNL     1      -6.716  15.535  67.574  1.00  0.00    -0.220 A  
HETATM    4  C   UNL     1      -7.802  15.612  66.702  1.00  0.00    -0.134 A  
HETATM    5  C   UNL     1      -9.086  15.296  67.162  1.00  0.00    -0.210 A  
HETATM    6  C   UNL     1      -9.283  14.894  68.484  1.00  0.00    -0.192 A  
HETATM    7  C   UNL     1      -8.193  14.826  69.353  1.00  0.00    -0.012 A  
ENDROOT
BRANCH   5   8
HETATM    8  S   UNL     1     -10.494  15.571  66.114  1.00  0.00    -0.327 S  
HETATM    9  O   UNL     1     -10.502  16.981  65.780  1.00  0.00    -0.448 OA 
HETATM   10  O   UNL     1     -11.642  14.933  66.716  1.00  0.00    -0.344 OA 
BRANCH   8  11
HETATM   11  N   UNL     1     -10.128  14.714  64.752  1.00  0.00    -0.525 N  
HETATM   12  H   UNL     1      -9.513  15.184  64.086  1.00  0.00     0.000 HD 
BRANCH  11  13
HETATM   13  C   UNL     1     -10.545  13.435  64.388  1.00  0.00    -0.407 C  
HETATM   14  O   UNL     1     -11.355  13.324  63.477  1.00  0.00    -0.277 OA 
BRANCH  13  15
HETATM   15  N   UNL     1      -9.957  12.396  65.073  1.00  0.00    -0.417 N  
HETATM   16  H   UNL     1      -8.939  12.356  65.101  1.00  0.00     0.000 HD 
BRANCH  15  17
HETATM   17  N   UNL     1     -10.679  11.385  65.736  1.00  0.00    -0.267 NA 
HETATM   18  C   UNL     1     -10.114  10.042  65.500  1.00  0.00    -0.255 C  
HETATM   19  C   UNL     1      -9.176   9.707  66.668  1.00  0.00    -0.187 C  
HETATM   20  C   UNL     1      -7.694   9.672  66.310  1.00  0.00    -0.101 C  
HETATM   21  C   UNL     1      -7.242  11.119  66.387  1.00  0.00    -0.094 C  
HETATM   22  C   UNL     1      -8.035  11.687  67.558  1.00  0.00    -0.141 C  
HETATM   23  C   UNL     1      -9.332  10.864  67.657  1.00  0.00    -0.163 C  
HETATM   24  C   UNL     1     -10.606  11.567  67.198  1.00  0.00    -0.237 C  
ENDBRANCH  15  17
ENDBRANCH  13  15
ENDBRANCH  11  13
ENDBRANCH   8  11
ENDBRANCH   5   8
TORSDOF 5
ENDMDL
MODEL      150
REMARK 921   NORMALIZED FREE ENERGY PREDICTED BY IDOCK:   -4.47 KCAL/MOL
REMARK 922        TOTAL FREE ENERGY PREDICTED BY IDOCK:   -6.56 KCAL/MOL
REMARK 923 INTER-LIGAND FREE ENERGY PREDICTED BY IDOCK:   -5.23 KCAL/MOL
REMARK 924 INTRA-LIGAND FREE ENERGY PREDICTED BY IDOCK:   -1.33 KCAL/MOL
REMARK 927      BINDING AFFINITY PREDICTED BY RF-SCORE:    0.00 PKD
ROOT
HETATM    1  C   UNL     1      -6.382  11.251  70.141  1.00  0.00    -0.120 C  
HETATM    2  C   UNL     1      -6.971  10.864  68.816  1.00  0.00    -0.078 A  
HETATM    3  C   UNL     1      -7.934   9.853  68.730  1.00  0.00    -0.093 A  
HETATM    4  C   UNL     1      -8.416   9.441  67.487  1.00  0.00    -0.122 A  
HETATM    5  C   UNL     1      -7.943  10.055  66.321  1.00  0.00    -0.111 A  
HETATM    6  C   UNL     1      -7.001  11.082  66.396  1.00  0.00    -0.122 A  
HETATM    7  C   UNL     1      -6.518  11.484  67.643  1.00  0.00    -0.067 A  
ENDROOT
BRANCH   5   8
HETATM    8  S   UNL     1      -8.409   9.412  64.731  1.00  0.00    -0.165 S  
HETATM    9  O   UNL     1      -8.407   7.967  64.844  1.00  0.00    -0.150 OA 
HETATM   10  O   UNL     1      -7.631  10.090  63.720  1.00  0.00    -0.136 OA 
BRANCH   8  11
HETATM   11  N   UNL     1      -9.970   9.921  64.558  1.00  0.00    -0.405 N  
HETATM   12  H   UNL     1     -10.686   9.223  64.761  1.00  0.00     0.000 HD 
BRANCH  11  13
HETATM   13  C   UNL     1     -10.441  11.174  64.173  1.00  0.00    -0.377 C  
HETATM   14  O   UNL     1     -10.582  11.401  62.979  1.00  0.00    -0.255 OA 
BRANCH  13  15
HETATM   15  N   UNL     1     -10.751  12.038  65.198  1.00  0.00    -0.278 N  
HETATM   16  H   UNL     1     -10.618  11.713  66.155  1.00  0.00     0.000 HD 
BRANCH  15  17
HETATM   17  N   UNL     1     -11.242  13.344  65.003  1.00  0.00    -0.308 NA 
HETATM   18  C   UNL     1     -12.378  13.657  65.893  1.00  0.00    -0.471 C  
HETATM   19  C   UNL     1     -11.829  14.382  67.129  1.00  0.00    -0.437 C  
HETATM   20  C   UNL     1     -11.890  13.578  68.424  1.00  0.00    -0.408 C  
HETATM   21  C   UNL     1     -10.644  12.712  68.402  1.00  0.00    -0.258 C  
HETATM   22  C   UNL     1      -9.590  13.607  67.760  1.00  0.00    -0.224 C  
HETATM   23  C   UNL     1     -10.339  14.593  66.848  1.00  0.00    -0.264 C  
HETATM   24  C   UNL     1     -10.213  14.343  65.347  1.00  0.00    -0.382 C  
ENDBRANCH  15  17
ENDBRANCH  13  15
ENDBRANCH  11  13
ENDBRANCH   8  11
ENDBRANCH   5   8
TORSDOF 5
ENDMDL
MODEL      151
REMARK 921   NORMALIZED FREE ENERGY PREDICTED BY IDOCK:   -4.47 KCAL/MOL
REMARK 922        TOTAL FREE ENERGY PREDICTED BY IDOCK:   -6.55 KCAL/MOL
REMARK 923 INTER-LIGAND FREE ENERGY PREDICTED BY IDOCK:   -6.34 KCAL/MOL
REMARK 924 INTRA-LIGAND FREE ENERGY PREDICTED BY IDOCK:   -0.21 KCAL/MOL
REMARK 927      BINDING AFFINITY PREDICTED BY RF-SCORE:    0.00 PKD
ROOT
HETATM    1  C   UNL     1     -12.150  12.873  63.568  1.00  0.00    -0.633 C  
HETATM    2  C   UNL     1     -11.260  12.014  64.416  1.00  0.00    -0.406 A  
HETATM    3  C   UNL     1     -10.386  11.091  63.829  1.00  0.00    -0.427 A  
HETATM    4  C   UNL     1      -9.622  10.238  64.625  1.00  0.00    -0.374 A  
HETATM    5  C   UNL     1      -9.720  10.316  66.020  1.00  0.00    -0.218 A  
HETATM    6  C   UNL     1     -10.569  11.250  66.617  1.00  0.00    -0.309 A  
HETATM    7  C   UNL     1     -11.335  12.096  65.814  1.00  0.00    -0.402 A  
ENDROOT
BRANCH   5   8
HETATM    8  S   UNL     1      -8.896   9.112  67.034  1.00  0.00    -0.123 S  
HETATM    9  O   UNL     1      -7.899   9.823  67.808  1.00  0.00    -0.094 OA 
HETATM   10  O   UNL     1      -8.543   7.982  66.204  1.00  0.00    -0.132 OA 
BRANCH   8  11
HETATM   11  N   UNL     1     -10.086   8.601  68.058  1.00  0.00    -0.187 N  
HETATM   12  H   UNL     1     -10.903   9.209  68.124  1.00  0.00     0.000 HD 
BRANCH  11  13
HETATM   13  C   UNL     1     -10.125   7.451  68.845  1.00  0.00    -0.186 C  
HETATM   14  O   UNL     1     -10.764   6.489  68.440  1.00  0.00    -0.225 OA 
BRANCH  13  15
HETATM   15  N   UNL     1      -9.388   7.495  70.007  1.00  0.00    -0.154 N  
HETATM   16  H   UNL     1      -8.926   6.639  70.314  1.00  0.00     0.000 HD 
BRANCH  15  17
HETATM   17  N   UNL     1      -9.233   8.651  70.795  1.00  0.00    -0.170 NA 
HETATM   18  C   UNL     1     -10.436   9.508  70.781  1.00  0.00    -0.314 C  
HETATM   19  C   UNL     1     -11.284   9.159  72.011  1.00  0.00    -0.310 C  
HETATM   20  C   UNL     1     -12.596   8.444  71.703  1.00  0.00    -0.362 C  
HETATM   21  C   UNL     1     -12.219   6.980  71.574  1.00  0.00    -0.407 C  
HETATM   22  C   UNL     1     -11.130   6.790  72.623  1.00  0.00    -0.301 C  
HETATM   23  C   UNL     1     -10.448   8.156  72.809  1.00  0.00    -0.385 C  
HETATM   24  C   UNL     1      -9.049   8.293  72.214  1.00  0.00    -0.221 C  
ENDBRANCH  15  17
ENDBRANCH  13  15
ENDBRANCH  11  13
ENDBRANCH   8  11
ENDBRANCH   5   8
TORSDOF 5
ENDMDL
MODEL      152
REMARK 921   NORMALIZED FREE ENERGY PREDICTED BY IDOCK:   -4.45 KCAL/MOL
REMARK 922        TOTAL FREE ENERGY PREDICTED BY IDOCK:   -6.53 KCAL/MOL
REMARK 923 INTER-LIGAND FREE ENERGY PREDICTED BY IDOCK:   -5.51 KCAL/MOL
REMARK 924 INTRA-LIGAND FREE ENERGY PREDICTED BY IDOCK:   -1.03 KCAL/MOL
REMARK 927      BINDING AFFINITY PREDICTED BY RF-SCORE:    0.00 PKD
ROOT
HETATM    1  C   UNL     1     -10.605   5.277  66.416  1.00  0.00    -0.338 C  
HETATM    2  C   UNL     1      -9.973   6.493  67.028  1.00  0.00    -0.216 A  
HETATM    3  C   UNL     1      -8.929   6.367  67.952  1.00  0.00    -0.114 A  
HETATM    4  C   UNL     1      -8.403   7.497  68.579  1.00  0.00    -0.126 A  
HETATM    5  C   UNL     1      -8.913   8.763  68.271  1.00  0.00    -0.141 A  
HETATM    6  C   UNL     1      -9.936   8.903  67.333  1.00  0.00    -0.267 A  
HETATM    7  C   UNL     1     -10.463   7.769  66.714  1.00  0.00    -0.318 A  
ENDROOT
BRANCH   5   8
HETATM    8  S   UNL     1      -8.380  10.182  69.200  1.00  0.00    -0.166 S  
HETATM    9  O   UNL     1      -7.596  11.004  68.300  1.00  0.00    -0.095 OA 
HETATM   10  O   UNL     1      -7.846   9.726  70.463  1.00  0.00    -0.214 OA 
BRANCH   8  11
HETATM   11  N   UNL     1      -9.792  10.970  69.532  1.00  0.00    -0.428 N  
HETATM   12  H   UNL     1      -9.768  11.984  69.420  1.00  0.00     0.000 HD 
BRANCH  11  13
HETATM   13  C   UNL     1     -11.012  10.438  69.945  1.00  0.00    -0.305 C  
HETATM   14  O   UNL     1     -12.039  10.886  69.452  1.00  0.00    -0.328 OA 
BRANCH  13  15
HETATM   15  N   UNL     1     -10.939   9.407  70.853  1.00  0.00    -0.291 N  
HETATM   16  H   UNL     1     -10.100   9.334  71.428  1.00  0.00     0.000 HD 
BRANCH  15  17
HETATM   17  N   UNL     1     -11.954   8.449  71.036  1.00  0.00    -0.268 NA 
HETATM   18  C   UNL     1     -11.546   7.103  70.584  1.00  0.00    -0.314 C  
HETATM   19  C   UNL     1     -11.024   6.329  71.802  1.00  0.00    -0.305 C  
HETATM   20  C   UNL     1      -9.522   6.065  71.798  1.00  0.00    -0.165 C  
HETATM   21  C   UNL     1      -8.904   7.330  72.363  1.00  0.00    -0.143 C  
HETATM   22  C   UNL     1      -9.898   7.777  73.429  1.00  0.00    -0.346 C  
HETATM   23  C   UNL     1     -11.277   7.243  73.002  1.00  0.00    -0.309 C  
HETATM   24  C   UNL     1     -12.260   8.282  72.469  1.00  0.00    -0.307 C  
ENDBRANCH  15  17
ENDBRANCH  13  15
ENDBRANCH  11  13
ENDBRANCH   8  11
ENDBRANCH   5   8
TORSDOF 5
ENDMDL
MODEL      153
REMARK 921   NORMALIZED FREE ENERGY PREDICTED BY IDOCK:   -4.44 KCAL/MOL
REMARK 922        TOTAL FREE ENERGY PREDICTED BY IDOCK:   -6.52 KCAL/MOL
REMARK 923 INTER-LIGAND FREE ENERGY PREDICTED BY IDOCK:   -6.36 KCAL/MOL
REMARK 924 INTRA-LIGAND FREE ENERGY PREDICTED BY IDOCK:   -0.16 KCAL/MOL
REMARK 927      BINDING AFFINITY PREDICTED BY RF-SCORE:    0.00 PKD
ROOT
HETATM    1  C   UNL     1      -8.423   5.342  72.128  1.00  0.00    -0.126 C  
HETATM    2  C   UNL     1      -9.631   6.228  72.058  1.00  0.00    -0.161 A  
HETATM    3  C   UNL     1     -10.680   5.940  71.178  1.00  0.00    -0.328 A  
HETATM    4  C   UNL     1     -11.762   6.812  71.059  1.00  0.00    -0.406 A  
HETATM    5  C   UNL     1     -11.804   7.976  71.836  1.00  0.00    -0.307 A  
HETATM    6  C   UNL     1     -10.776   8.262  72.735  1.00  0.00    -0.313 A  
HETATM    7  C   UNL     1      -9.693   7.388  72.845  1.00  0.00    -0.231 A  
ENDROOT
BRANCH   5   8
HETATM    8  S   UNL     1     -13.078   9.182  71.555  1.00  0.00    -0.339 S  
HETATM    9  O   UNL     1     -13.029  10.113  72.664  1.00  0.00    -0.036 OA 
HETATM   10  O   UNL     1     -14.296   8.486  71.208  1.00  0.00    -0.355 OA 
BRANCH   8  11
HETATM   11  N   UNL     1     -12.568   9.964  70.194  1.00  0.00    -0.497 N  
HETATM   12  H   UNL     1     -12.496   9.388  69.354  1.00  0.00     0.000 HD 
BRANCH  11  13
HETATM   13  C   UNL     1     -12.221  11.305  70.036  1.00  0.00    -0.314 C  
HETATM   14  O   UNL     1     -12.660  12.118  70.839  1.00  0.00    -0.336 OA 
BRANCH  13  15
HETATM   15  N   UNL     1     -11.365  11.584  68.995  1.00  0.00    -0.249 N  
HETATM   16  H   UNL     1     -10.429  11.918  69.222  1.00  0.00     0.000 HD 
BRANCH  15  17
HETATM   17  N   UNL     1     -11.705  11.435  67.637  1.00  0.00    -0.594 NA 
HETATM   18  C   UNL     1     -11.903  12.733  66.961  1.00  0.00    -0.361 C  
HETATM   19  C   UNL     1     -10.588  13.115  66.268  1.00  0.00    -0.292 C  
HETATM   20  C   UNL     1      -9.856  14.299  66.892  1.00  0.00    -0.264 C  
HETATM   21  C   UNL     1      -9.058  13.702  68.036  1.00  0.00    -0.192 C  
HETATM   22  C   UNL     1      -8.614  12.345  67.503  1.00  0.00    -0.177 C  
HETATM   23  C   UNL     1      -9.663  11.912  66.464  1.00  0.00    -0.226 C  
HETATM   24  C   UNL     1     -10.606  10.792  66.893  1.00  0.00    -0.258 C  
ENDBRANCH  15  17
ENDBRANCH  13  15
ENDBRANCH  11  13
ENDBRANCH   8  11
ENDBRANCH   5   8
TORSDOF 5
ENDMDL
MODEL      154
REMARK 921   NORMALIZED FREE ENERGY PREDICTED BY IDOCK:   -4.42 KCAL/MOL
REMARK 922        TOTAL FREE ENERGY PREDICTED BY IDOCK:   -6.50 KCAL/MOL
REMARK 923 INTER-LIGAND FREE ENERGY PREDICTED BY IDOCK:   -5.87 KCAL/MOL
REMARK 924 INTRA-LIGAND FREE ENERGY PREDICTED BY IDOCK:   -0.63 KCAL/MOL
REMARK 927      BINDING AFFINITY PREDICTED BY RF-SCORE:    0.00 PKD
ROOT
HETATM    1  C   UNL     1      -7.707   7.007  66.199  1.00  0.00    -0.095 C  
HETATM    2  C   UNL     1      -8.391   8.330  66.018  1.00  0.00    -0.130 A  
HETATM    3  C   UNL     1      -7.698   9.426  65.491  1.00  0.00    -0.099 A  
HETATM    4  C   UNL     1      -8.315  10.674  65.402  1.00  0.00    -0.142 A  
HETATM    5  C   UNL     1      -9.639  10.826  65.830  1.00  0.00    -0.208 A  
HETATM    6  C   UNL     1     -10.348   9.735  66.333  1.00  0.00    -0.247 A  
HETATM    7  C   UNL     1      -9.723   8.490  66.425  1.00  0.00    -0.328 A  
ENDROOT
BRANCH   5   8
HETATM    8  S   UNL     1     -10.367  12.446  65.896  1.00  0.00    -0.263 S  
HETATM    9  O   UNL     1     -11.256  12.462  67.040  1.00  0.00    -0.269 OA 
HETATM   10  O   UNL     1     -10.835  12.790  64.573  1.00  0.00    -0.308 OA 
BRANCH   8  11
HETATM   11  N   UNL     1      -9.081  13.428  66.220  1.00  0.00    -0.470 N  
HETATM   12  H   UNL     1      -8.416  13.551  65.456  1.00  0.00     0.000 HD 
BRANCH  11  13
HETATM   13  C   UNL     1      -8.780  14.111  67.397  1.00  0.00    -0.210 C  
HETATM   14  O   UNL     1      -8.210  13.504  68.294  1.00  0.00    -0.146 OA 
BRANCH  13  15
HETATM   15  N   UNL     1      -9.120  15.444  67.419  1.00  0.00    -0.193 N  
HETATM   16  H   UNL     1      -8.396  16.120  67.660  1.00  0.00     0.000 HD 
BRANCH  15  17
HETATM   17  N   UNL     1     -10.410  15.930  67.129  1.00  0.00    -0.294 NA 
HETATM   18  C   UNL     1     -10.936  16.804  68.197  1.00  0.00    -0.309 C  
HETATM   19  C   UNL     1     -10.639  18.259  67.812  1.00  0.00    -0.415 C  
HETATM   20  C   UNL     1      -9.587  18.949  68.675  1.00  0.00    -0.443 C  
HETATM   21  C   UNL     1      -8.258  18.538  68.068  1.00  0.00    -0.286 C  
HETATM   22  C   UNL     1      -8.538  18.497  66.570  1.00  0.00    -0.289 C  
HETATM   23  C   UNL     1     -10.037  18.192  66.406  1.00  0.00    -0.392 C  
HETATM   24  C   UNL     1     -10.386  16.785  65.927  1.00  0.00    -0.328 C  
ENDBRANCH  15  17
ENDBRANCH  13  15
ENDBRANCH  11  13
ENDBRANCH   8  11
ENDBRANCH   5   8
TORSDOF 5
ENDMDL
MODEL      155
REMARK 921   NORMALIZED FREE ENERGY PREDICTED BY IDOCK:   -4.42 KCAL/MOL
REMARK 922        TOTAL FREE ENERGY PREDICTED BY IDOCK:   -6.50 KCAL/MOL
REMARK 923 INTER-LIGAND FREE ENERGY PREDICTED BY IDOCK:   -5.77 KCAL/MOL
REMARK 924 INTRA-LIGAND FREE ENERGY PREDICTED BY IDOCK:   -0.73 KCAL/MOL
REMARK 927      BINDING AFFINITY PREDICTED BY RF-SCORE:    0.00 PKD
ROOT
HETATM    1  C   UNL     1      -8.375  20.303  67.488  1.00  0.00    -0.365 C  
HETATM    2  C   UNL     1      -8.997  18.966  67.214  1.00  0.00    -0.298 A  
HETATM    3  C   UNL     1     -10.224  18.617  67.791  1.00  0.00    -0.427 A  
HETATM    4  C   UNL     1     -10.757  17.342  67.599  1.00  0.00    -0.310 A  
HETATM    5  C   UNL     1     -10.066  16.412  66.814  1.00  0.00    -0.285 A  
HETATM    6  C   UNL     1      -8.854  16.756  66.214  1.00  0.00    -0.334 A  
HETATM    7  C   UNL     1      -8.323  18.031  66.414  1.00  0.00    -0.275 A  
ENDROOT
BRANCH   5   8
HETATM    8  S   UNL     1     -10.640  14.733  66.720  1.00  0.00    -0.308 S  
HETATM    9  O   UNL     1     -10.393  14.278  65.367  1.00  0.00    -0.327 OA 
HETATM   10  O   UNL     1     -11.959  14.668  67.309  1.00  0.00    -0.391 OA 
BRANCH   8  11
HETATM   11  N   UNL     1      -9.621  13.925  67.737  1.00  0.00    -0.216 N  
HETATM   12  H   UNL     1      -9.845  13.991  68.731  1.00  0.00     0.000 HD 
BRANCH  11  13
HETATM   13  C   UNL     1      -8.496  13.165  67.422  1.00  0.00    -0.201 C  
HETATM   14  O   UNL     1      -7.400  13.710  67.447  1.00  0.00    -0.171 OA 
BRANCH  13  15
HETATM   15  N   UNL     1      -8.727  11.836  67.152  1.00  0.00    -0.162 N  
HETATM   16  H   UNL     1      -8.871  11.205  67.941  1.00  0.00     0.000 HD 
BRANCH  15  17
HETATM   17  N   UNL     1      -8.779  11.296  65.853  1.00  0.00    -0.178 NA 
HETATM   18  C   UNL     1      -7.884  10.132  65.691  1.00  0.00    -0.145 C  
HETATM   19  C   UNL     1      -8.713   8.860  65.917  1.00  0.00    -0.197 C  
HETATM   20  C   UNL     1      -8.385   8.101  67.199  1.00  0.00    -0.120 C  
HETATM   21  C   UNL     1      -9.194   8.795  68.278  1.00  0.00    -0.143 C  
HETATM   22  C   UNL     1     -10.491   9.174  67.575  1.00  0.00    -0.335 C  
HETATM   23  C   UNL     1     -10.156   9.340  66.083  1.00  0.00    -0.304 C  
HETATM   24  C   UNL     1     -10.126  10.773  65.559  1.00  0.00    -0.274 C  
ENDBRANCH  15  17
ENDBRANCH  13  15
ENDBRANCH  11  13
ENDBRANCH   8  11
ENDBRANCH   5   8
TORSDOF 5
ENDMDL
MODEL      156
REMARK 921   NORMALIZED FREE ENERGY PREDICTED BY IDOCK:   -4.40 KCAL/MOL
REMARK 922        TOTAL FREE ENERGY PREDICTED BY IDOCK:   -6.47 KCAL/MOL
REMARK 923 INTER-LIGAND FREE ENERGY PREDICTED BY IDOCK:   -5.36 KCAL/MOL
REMARK 924 INTRA-LIGAND FREE ENERGY PREDICTED BY IDOCK:   -1.11 KCAL/MOL
REMARK 927      BINDING AFFINITY PREDICTED BY RF-SCORE:    0.00 PKD
ROOT
HETATM    1  C   UNL     1      -5.738   9.473  67.898  1.00  0.00    -0.041 C  
HETATM    2  C   UNL     1      -7.125   9.752  68.395  1.00  0.00    -0.073 A  
HETATM    3  C   UNL     1      -7.964   8.707  68.798  1.00  0.00    -0.114 A  
HETATM    4  C   UNL     1      -9.280   8.966  69.180  1.00  0.00    -0.144 A  
HETATM    5  C   UNL     1      -9.759  10.281  69.175  1.00  0.00    -0.217 A  
HETATM    6  C   UNL     1      -8.924  11.335  68.800  1.00  0.00    -0.116 A  
HETATM    7  C   UNL     1      -7.610  11.069  68.412  1.00  0.00    -0.108 A  
ENDROOT
BRANCH   5   8
HETATM    8  S   UNL     1     -11.481  10.598  69.478  1.00  0.00    -0.304 S  
HETATM    9  O   UNL     1     -11.960   9.534  70.337  1.00  0.00    -0.195 OA 
HETATM   10  O   UNL     1     -12.120  10.893  68.216  1.00  0.00    -0.562 OA 
BRANCH   8  11
HETATM   11  N   UNL     1     -11.462  12.002  70.346  1.00  0.00    -0.424 N  
HETATM   12  H   UNL     1     -11.073  11.934  71.286  1.00  0.00     0.000 HD 
BRANCH  11  13
HETATM   13  C   UNL     1     -11.907  13.268  69.967  1.00  0.00    -0.295 C  
HETATM   14  O   UNL     1     -12.662  13.869  70.721  1.00  0.00    -0.329 OA 
BRANCH  13  15
HETATM   15  N   UNL     1     -11.407  13.747  68.778  1.00  0.00    -0.264 N  
HETATM   16  H   UNL     1     -10.550  13.330  68.416  1.00  0.00     0.000 HD 
BRANCH  15  17
HETATM   17  N   UNL     1     -12.009  14.779  68.033  1.00  0.00    -0.284 NA 
HETATM   18  C   UNL     1     -11.409  16.100  68.313  1.00  0.00    -0.316 C  
HETATM   19  C   UNL     1     -10.341  16.374  67.246  1.00  0.00    -0.287 C  
HETATM   20  C   UNL     1      -8.904  16.347  67.756  1.00  0.00    -0.189 C  
HETATM   21  C   UNL     1      -8.514  14.881  67.740  1.00  0.00    -0.160 C  
HETATM   22  C   UNL     1      -9.208  14.332  66.499  1.00  0.00    -0.259 C  
HETATM   23  C   UNL     1     -10.447  15.210  66.258  1.00  0.00    -0.312 C  
HETATM   24  C   UNL     1     -11.794  14.572  66.589  1.00  0.00    -0.366 C  
ENDBRANCH  15  17
ENDBRANCH  13  15
ENDBRANCH  11  13
ENDBRANCH   8  11
ENDBRANCH   5   8
TORSDOF 5
ENDMDL
MODEL      157
REMARK 921   NORMALIZED FREE ENERGY PREDICTED BY IDOCK:   -4.40 KCAL/MOL
REMARK 922        TOTAL FREE ENERGY PREDICTED BY IDOCK:   -6.46 KCAL/MOL
REMARK 923 INTER-LIGAND FREE ENERGY PREDICTED BY IDOCK:   -5.69 KCAL/MOL
REMARK 924 INTRA-LIGAND FREE ENERGY PREDICTED BY IDOCK:   -0.77 KCAL/MOL
REMARK 927      BINDING AFFINITY PREDICTED BY RF-SCORE:    0.00 PKD
ROOT
HETATM    1  C   UNL     1      -6.747  20.245  66.411  1.00  0.00    -0.261 C  
HETATM    2  C   UNL     1      -7.691  19.133  66.760  1.00  0.00    -0.259 A  
HETATM    3  C   UNL     1      -8.792  19.365  67.592  1.00  0.00    -0.355 A  
HETATM    4  C   UNL     1      -9.618  18.309  67.979  1.00  0.00    -0.314 A  
HETATM    5  C   UNL     1      -9.351  17.014  67.521  1.00  0.00    -0.233 A  
HETATM    6  C   UNL     1      -8.271  16.775  66.671  1.00  0.00    -0.296 A  
HETATM    7  C   UNL     1      -7.444  17.834  66.292  1.00  0.00    -0.328 A  
ENDROOT
BRANCH   5   8
HETATM    8  S   UNL     1     -10.282  15.640  68.158  1.00  0.00    -0.232 S  
HETATM    9  O   UNL     1     -11.338  16.193  68.981  1.00  0.00    -0.334 OA 
HETATM   10  O   UNL     1      -9.353  14.662  68.677  1.00  0.00    -0.199 OA 
BRANCH   8  11
HETATM   11  N   UNL     1     -10.963  14.984  66.805  1.00  0.00    -0.320 N  
HETATM   12  H   UNL     1     -11.915  15.288  66.598  1.00  0.00     0.000 HD 
BRANCH  11  13
HETATM   13  C   UNL     1     -10.414  14.070  65.907  1.00  0.00    -0.309 C  
HETATM   14  O   UNL     1     -10.193  14.440  64.762  1.00  0.00    -0.404 OA 
BRANCH  13  15
HETATM   15  N   UNL     1     -10.127  12.826  66.420  1.00  0.00    -0.254 N  
HETATM   16  H   UNL     1      -9.208  12.680  66.837  1.00  0.00     0.000 HD 
BRANCH  15  17
HETATM   17  N   UNL     1     -11.027  11.743  66.403  1.00  0.00    -0.284 NA 
HETATM   18  C   UNL     1     -10.518  10.600  65.619  1.00  0.00    -0.165 C  
HETATM   19  C   UNL     1      -9.842   9.620  66.587  1.00  0.00    -0.285 C  
HETATM   20  C   UNL     1      -8.324   9.536  66.457  1.00  0.00    -0.119 C  
HETATM   21  C   UNL     1      -7.799  10.691  67.290  1.00  0.00    -0.112 C  
HETATM   22  C   UNL     1      -8.759  10.754  68.472  1.00  0.00    -0.149 C  
HETATM   23  C   UNL     1     -10.103  10.186  67.984  1.00  0.00    -0.186 C  
HETATM   24  C   UNL     1     -11.219  11.204  67.763  1.00  0.00    -0.294 C  
ENDBRANCH  15  17
ENDBRANCH  13  15
ENDBRANCH  11  13
ENDBRANCH   8  11
ENDBRANCH   5   8
TORSDOF 5
ENDMDL
MODEL      158
REMARK 921   NORMALIZED FREE ENERGY PREDICTED BY IDOCK:   -4.39 KCAL/MOL
REMARK 922        TOTAL FREE ENERGY PREDICTED BY IDOCK:   -6.45 KCAL/MOL
REMARK 923 INTER-LIGAND FREE ENERGY PREDICTED BY IDOCK:   -5.48 KCAL/MOL
REMARK 924 INTRA-LIGAND FREE ENERGY PREDICTED BY IDOCK:   -0.98 KCAL/MOL
REMARK 927      BINDING AFFINITY PREDICTED BY RF-SCORE:    0.00 PKD
ROOT
HETATM    1  C   UNL     1     -12.848  13.920  65.474  1.00  0.00    -0.471 C  
HETATM    2  C   UNL     1     -11.797  13.242  66.302  1.00  0.00    -0.444 A  
HETATM    3  C   UNL     1     -11.276  13.862  67.443  1.00  0.00    -0.330 A  
HETATM    4  C   UNL     1     -10.241  13.263  68.161  1.00  0.00    -0.243 A  
HETATM    5  C   UNL     1      -9.731  12.027  67.745  1.00  0.00    -0.192 A  
HETATM    6  C   UNL     1     -10.260  11.387  66.622  1.00  0.00    -0.258 A  
HETATM    7  C   UNL     1     -11.291  11.995  65.905  1.00  0.00    -0.391 A  
ENDROOT
BRANCH   5   8
HETATM    8  S   UNL     1      -8.293  11.350  68.538  1.00  0.00    -0.137 S  
HETATM    9  O   UNL     1      -7.506  12.471  69.013  1.00  0.00    -0.040 OA 
HETATM   10  O   UNL     1      -7.724  10.343  67.671  1.00  0.00    -0.093 OA 
BRANCH   8  11
HETATM   11  N   UNL     1      -8.917  10.559  69.846  1.00  0.00    -0.343 N  
HETATM   12  H   UNL     1      -9.580  11.093  70.409  1.00  0.00     0.000 HD 
BRANCH  11  13
HETATM   13  C   UNL     1      -8.662   9.261  70.285  1.00  0.00    -0.219 C  
HETATM   14  O   UNL     1      -8.046   9.112  71.332  1.00  0.00    -0.318 OA 
BRANCH  13  15
HETATM   15  N   UNL     1      -9.178   8.253  69.504  1.00  0.00    -0.157 N  
HETATM   16  H   UNL     1      -8.580   7.453  69.297  1.00  0.00     0.000 HD 
BRANCH  15  17
HETATM   17  N   UNL     1     -10.483   8.259  68.974  1.00  0.00    -0.217 NA 
HETATM   18  C   UNL     1     -10.532   7.744  67.591  1.00  0.00    -0.239 C  
HETATM   19  C   UNL     1     -10.898   6.255  67.651  1.00  0.00    -0.433 C  
HETATM   20  C   UNL     1      -9.770   5.302  67.265  1.00  0.00    -0.163 C  
HETATM   21  C   UNL     1      -8.956   5.131  68.533  1.00  0.00    -0.120 C  
HETATM   22  C   UNL     1     -10.001   5.142  69.643  1.00  0.00    -0.313 C  
HETATM   23  C   UNL     1     -11.191   5.968  69.125  1.00  0.00    -0.337 C  
HETATM   24  C   UNL     1     -11.360   7.354  69.740  1.00  0.00    -0.017 C  
ENDBRANCH  15  17
ENDBRANCH  13  15
ENDBRANCH  11  13
ENDBRANCH   8  11
ENDBRANCH   5   8
TORSDOF 5
ENDMDL
MODEL      159
REMARK 921   NORMALIZED FREE ENERGY PREDICTED BY IDOCK:   -4.39 KCAL/MOL
REMARK 922        TOTAL FREE ENERGY PREDICTED BY IDOCK:   -6.45 KCAL/MOL
REMARK 923 INTER-LIGAND FREE ENERGY PREDICTED BY IDOCK:   -5.67 KCAL/MOL
REMARK 924 INTRA-LIGAND FREE ENERGY PREDICTED BY IDOCK:   -0.78 KCAL/MOL
REMARK 927      BINDING AFFINITY PREDICTED BY RF-SCORE:    0.00 PKD
ROOT
HETATM    1  C   UNL     1     -10.531  20.167  65.894  1.00  0.00    -0.427 C  
HETATM    2  C   UNL     1      -9.598  19.280  66.664  1.00  0.00    -0.411 A  
HETATM    3  C   UNL     1      -9.458  19.421  68.050  1.00  0.00    -0.413 A  
HETATM    4  C   UNL     1      -8.528  18.649  68.747  1.00  0.00    -0.292 A  
HETATM    5  C   UNL     1      -7.743  17.718  68.058  1.00  0.00    -0.238 A  
HETATM    6  C   UNL     1      -7.892  17.550  66.680  1.00  0.00    -0.285 A  
HETATM    7  C   UNL     1      -8.819  18.330  65.987  1.00  0.00     0.013 A  
ENDROOT
BRANCH   5   8
HETATM    8  S   UNL     1      -6.431  16.869  68.903  1.00  0.00    -0.198 S  
HETATM    9  O   UNL     1      -5.937  17.768  69.927  1.00  0.00    -0.247 OA 
HETATM   10  O   UNL     1      -5.547  16.294  67.915  1.00  0.00    -0.106 OA 
BRANCH   8  11
HETATM   11  N   UNL     1      -7.206  15.612  69.642  1.00  0.00    -0.186 N  
HETATM   12  H   UNL     1      -7.671  15.837  70.523  1.00  0.00     0.000 HD 
BRANCH  11  13
HETATM   13  C   UNL     1      -7.311  14.286  69.227  1.00  0.00    -0.053 C  
HETATM   14  O   UNL     1      -6.314  13.578  69.283  1.00  0.00    -0.099 OA 
BRANCH  13  15
HETATM   15  N   UNL     1      -8.564  13.881  68.827  1.00  0.00    -0.348 N  
HETATM   16  H   UNL     1      -9.039  13.172  69.385  1.00  0.00     0.000 HD 
BRANCH  15  17
HETATM   17  N   UNL     1      -9.229  14.388  67.694  1.00  0.00    -0.191 NA 
HETATM   18  C   UNL     1      -9.814  13.320  66.860  1.00  0.00    -0.247 C  
HETATM   19  C   UNL     1     -11.285  13.152  67.263  1.00  0.00    -0.319 C  
HETATM   20  C   UNL     1     -11.605  11.850  67.992  1.00  0.00    -0.401 C  
HETATM   21  C   UNL     1     -11.259  12.123  69.443  1.00  0.00    -0.248 C  
HETATM   22  C   UNL     1     -11.664  13.578  69.648  1.00  0.00    -0.378 C  
HETATM   23  C   UNL     1     -11.558  14.266  68.276  1.00  0.00    -0.358 C  
HETATM   24  C   UNL     1     -10.380  15.219  68.095  1.00  0.00    -0.242 C  
ENDBRANCH  15  17
ENDBRANCH  13  15
ENDBRANCH  11  13
ENDBRANCH   8  11
ENDBRANCH   5   8
TORSDOF 5
ENDMDL
MODEL      160
REMARK 921   NORMALIZED FREE ENERGY PREDICTED BY IDOCK:   -4.39 KCAL/MOL
REMARK 922        TOTAL FREE ENERGY PREDICTED BY IDOCK:   -6.45 KCAL/MOL
REMARK 923 INTER-LIGAND FREE ENERGY PREDICTED BY IDOCK:   -5.77 KCAL/MOL
REMARK 924 INTRA-LIGAND FREE ENERGY PREDICTED BY IDOCK:   -0.68 KCAL/MOL
REMARK 927      BINDING AFFINITY PREDICTED BY RF-SCORE:    0.00 PKD
ROOT
HETATM    1  C   UNL     1     -13.050  12.264  71.566  1.00  0.00    -0.356 C  
HETATM    2  C   UNL     1     -12.477  13.355  70.710  1.00  0.00    -0.418 A  
HETATM    3  C   UNL     1     -11.743  13.048  69.558  1.00  0.00    -0.381 A  
HETATM    4  C   UNL     1     -11.143  14.063  68.813  1.00  0.00    -0.287 A  
HETATM    5  C   UNL     1     -11.288  15.397  69.213  1.00  0.00    -0.315 A  
HETATM    6  C   UNL     1     -12.038  15.717  70.346  1.00  0.00    -0.425 A  
HETATM    7  C   UNL     1     -12.631  14.696  71.091  1.00  0.00    -0.404 A  
ENDROOT
BRANCH   5   8
HETATM    8  S   UNL     1     -10.375  16.675  68.382  1.00  0.00    -0.319 S  
HETATM    9  O   UNL     1     -10.389  17.835  69.249  1.00  0.00    -0.318 OA 
HETATM   10  O   UNL     1     -10.836  16.750  67.015  1.00  0.00    -0.211 OA 
BRANCH   8  11
HETATM   11  N   UNL     1      -8.837  16.075  68.338  1.00  0.00    -0.182 N  
HETATM   12  H   UNL     1      -8.426  15.847  69.243  1.00  0.00     0.000 HD 
BRANCH  11  13
HETATM   13  C   UNL     1      -8.025  15.838  67.230  1.00  0.00    -0.186 C  
HETATM   14  O   UNL     1      -7.894  14.685  66.841  1.00  0.00    -0.103 OA 
BRANCH  13  15
HETATM   15  N   UNL     1      -7.473  16.953  66.642  1.00  0.00    -0.239 N  
HETATM   16  H   UNL     1      -8.086  17.563  66.102  1.00  0.00     0.000 HD 
BRANCH  15  17
HETATM   17  N   UNL     1      -6.113  17.301  66.742  1.00  0.00    -0.182 NA 
HETATM   18  C   UNL     1      -5.615  17.984  65.531  1.00  0.00    -0.146 C  
HETATM   19  C   UNL     1      -5.700  19.498  65.768  1.00  0.00    -0.177 C  
HETATM   20  C   UNL     1      -6.759  20.218  64.939  1.00  0.00    -0.298 C  
HETATM   21  C   UNL     1      -8.048  20.044  65.721  1.00  0.00    -0.130 C  
HETATM   22  C   UNL     1      -7.606  20.126  67.177  1.00  0.00    -0.334 C  
HETATM   23  C   UNL     1      -6.142  19.655  67.225  1.00  0.00    -0.197 C  
HETATM   24  C   UNL     1      -5.903  18.275  67.830  1.00  0.00    -0.158 C  
ENDBRANCH  15  17
ENDBRANCH  13  15
ENDBRANCH  11  13
ENDBRANCH   8  11
ENDBRANCH   5   8
TORSDOF 5
ENDMDL
MODEL      161
REMARK 921   NORMALIZED FREE ENERGY PREDICTED BY IDOCK:   -4.38 KCAL/MOL
REMARK 922        TOTAL FREE ENERGY PREDICTED BY IDOCK:   -6.44 KCAL/MOL
REMARK 923 INTER-LIGAND FREE ENERGY PREDICTED BY IDOCK:   -5.87 KCAL/MOL
REMARK 924 INTRA-LIGAND FREE ENERGY PREDICTED BY IDOCK:   -0.57 KCAL/MOL
REMARK 927      BINDING AFFINITY PREDICTED BY RF-SCORE:    0.00 PKD
ROOT
HETATM    1  C   UNL     1      -7.247   6.360  65.560  1.00  0.00    -0.070 C  
HETATM    2  C   UNL     1      -8.149   6.939  66.610  1.00  0.00    -0.110 A  
HETATM    3  C   UNL     1      -9.365   7.535  66.257  1.00  0.00    -0.176 A  
HETATM    4  C   UNL     1     -10.160   8.145  67.228  1.00  0.00    -0.309 A  
HETATM    5  C   UNL     1      -9.745   8.146  68.565  1.00  0.00    -0.162 A  
HETATM    6  C   UNL     1      -8.546   7.533  68.932  1.00  0.00    -0.129 A  
HETATM    7  C   UNL     1      -7.752   6.930  67.955  1.00  0.00    -0.112 A  
ENDROOT
BRANCH   5   8
HETATM    8  S   UNL     1     -10.654   9.080  69.773  1.00  0.00    -0.227 S  
HETATM    9  O   UNL     1      -9.690   9.885  70.496  1.00  0.00    -0.203 OA 
HETATM   10  O   UNL     1     -11.553   8.182  70.461  1.00  0.00    -0.238 OA 
BRANCH   8  11
HETATM   11  N   UNL     1     -11.588  10.083  68.854  1.00  0.00    -0.498 N  
HETATM   12  H   UNL     1     -11.996   9.664  68.018  1.00  0.00     0.000 HD 
BRANCH  11  13
HETATM   13  C   UNL     1     -11.894  11.427  69.064  1.00  0.00    -0.348 C  
HETATM   14  O   UNL     1     -12.202  11.783  70.194  1.00  0.00    -0.299 OA 
BRANCH  13  15
HETATM   15  N   UNL     1     -11.773  12.248  67.966  1.00  0.00    -0.352 N  
HETATM   16  H   UNL     1     -11.765  13.256  68.120  1.00  0.00     0.000 HD 
BRANCH  15  17
HETATM   17  N   UNL     1     -11.659  11.778  66.644  1.00  0.00    -0.528 NA 
HETATM   18  C   UNL     1     -12.257  12.707  65.663  1.00  0.00    -0.411 C  
HETATM   19  C   UNL     1     -11.140  13.602  65.112  1.00  0.00    -0.324 C  
HETATM   20  C   UNL     1     -11.213  15.062  65.550  1.00  0.00    -0.344 C  
HETATM   21  C   UNL     1     -10.540  15.093  66.909  1.00  0.00    -0.297 C  
HETATM   22  C   UNL     1      -9.407  14.082  66.779  1.00  0.00    -0.289 C  
HETATM   23  C   UNL     1      -9.846  13.056  65.720  1.00  0.00    -0.217 C  
HETATM   24  C   UNL     1     -10.242  11.680  66.246  1.00  0.00    -0.227 C  
ENDBRANCH  15  17
ENDBRANCH  13  15
ENDBRANCH  11  13
ENDBRANCH   8  11
ENDBRANCH   5   8
TORSDOF 5
ENDMDL
MODEL      162
REMARK 921   NORMALIZED FREE ENERGY PREDICTED BY IDOCK:   -4.38 KCAL/MOL
REMARK 922        TOTAL FREE ENERGY PREDICTED BY IDOCK:   -6.43 KCAL/MOL
REMARK 923 INTER-LIGAND FREE ENERGY PREDICTED BY IDOCK:   -5.56 KCAL/MOL
REMARK 924 INTRA-LIGAND FREE ENERGY PREDICTED BY IDOCK:   -0.88 KCAL/MOL
REMARK 927      BINDING AFFINITY PREDICTED BY RF-SCORE:    0.00 PKD
ROOT
HETATM    1  C   UNL     1      -9.145  17.817  66.440  1.00  0.00    -0.254 C  
HETATM    2  C   UNL     1      -9.606  16.451  66.025  1.00  0.00    -0.352 A  
HETATM    3  C   UNL     1     -10.686  16.297  65.148  1.00  0.00    -0.350 A  
HETATM    4  C   UNL     1     -11.162  15.025  64.831  1.00  0.00    -0.423 A  
HETATM    5  C   UNL     1     -10.545  13.895  65.382  1.00  0.00    -0.335 A  
HETATM    6  C   UNL     1      -9.451  14.035  66.238  1.00  0.00    -0.249 A  
HETATM    7  C   UNL     1      -8.983  15.312  66.556  1.00  0.00    -0.340 A  
ENDROOT
BRANCH   5   8
HETATM    8  S   UNL     1     -11.259  12.287  65.135  1.00  0.00    -0.333 S  
HETATM    9  O   UNL     1     -11.256  12.040  63.707  1.00  0.00    -0.367 OA 
HETATM   10  O   UNL     1     -12.474  12.203  65.912  1.00  0.00    -0.453 OA 
BRANCH   8  11
HETATM   11  N   UNL     1     -10.165  11.273  65.843  1.00  0.00    -0.241 N  
HETATM   12  H   UNL     1      -9.567  11.696  66.554  1.00  0.00     0.000 HD 
BRANCH  11  13
HETATM   13  C   UNL     1      -9.948   9.918  65.601  1.00  0.00    -0.283 C  
HETATM   14  O   UNL     1     -10.240   9.116  66.478  1.00  0.00    -0.278 OA 
BRANCH  13  15
HETATM   15  N   UNL     1      -9.457   9.603  64.354  1.00  0.00    -0.426 N  
HETATM   16  H   UNL     1      -9.910   8.849  63.837  1.00  0.00     0.000 HD 
BRANCH  15  17
HETATM   17  N   UNL     1      -8.369  10.261  63.750  1.00  0.00    -0.164 NA 
HETATM   18  C   UNL     1      -7.092   9.984  64.438  1.00  0.00    -0.135 C  
HETATM   19  C   UNL     1      -6.398   8.826  63.707  1.00  0.00    -0.080 C  
HETATM   20  C   UNL     1      -6.343   7.517  64.487  1.00  0.00    -0.041 C  
HETATM   21  C   UNL     1      -7.682   6.853  64.225  1.00  0.00    -0.113 C  
HETATM   22  C   UNL     1      -7.989   7.210  62.776  1.00  0.00    -0.107 C  
HETATM   23  C   UNL     1      -7.271   8.539  62.483  1.00  0.00    -0.098 C  
HETATM   24  C   UNL     1      -8.163   9.772  62.374  1.00  0.00    -0.134 C  
ENDBRANCH  15  17
ENDBRANCH  13  15
ENDBRANCH  11  13
ENDBRANCH   8  11
ENDBRANCH   5   8
TORSDOF 5
ENDMDL
MODEL      163
REMARK 921   NORMALIZED FREE ENERGY PREDICTED BY IDOCK:   -4.36 KCAL/MOL
REMARK 922        TOTAL FREE ENERGY PREDICTED BY IDOCK:   -6.42 KCAL/MOL
REMARK 923 INTER-LIGAND FREE ENERGY PREDICTED BY IDOCK:   -5.67 KCAL/MOL
REMARK 924 INTRA-LIGAND FREE ENERGY PREDICTED BY IDOCK:   -0.75 KCAL/MOL
REMARK 927      BINDING AFFINITY PREDICTED BY RF-SCORE:    0.00 PKD
ROOT
HETATM    1  C   UNL     1     -12.525  11.962  63.345  1.00  0.00    -0.582 C  
HETATM    2  C   UNL     1     -11.376  11.985  64.309  1.00  0.00    -0.433 A  
HETATM    3  C   UNL     1     -10.565  10.857  64.483  1.00  0.00    -0.335 A  
HETATM    4  C   UNL     1      -9.551  10.857  65.440  1.00  0.00    -0.271 A  
HETATM    5  C   UNL     1      -9.333  11.999  66.221  1.00  0.00    -0.223 A  
HETATM    6  C   UNL     1     -10.119  13.138  66.040  1.00  0.00    -0.286 A  
HETATM    7  C   UNL     1     -11.137  13.129  65.084  1.00  0.00    -0.308 A  
ENDROOT
BRANCH   5   8
HETATM    8  S   UNL     1      -8.173  11.943  67.566  1.00  0.00    -0.166 S  
HETATM    9  O   UNL     1      -6.852  12.088  66.989  1.00  0.00    -0.143 OA 
HETATM   10  O   UNL     1      -8.508  10.821  68.412  1.00  0.00    -0.123 OA 
BRANCH   8  11
HETATM   11  N   UNL     1      -8.520  13.311  68.423  1.00  0.00    -0.249 N  
HETATM   12  H   UNL     1      -9.476  13.381  68.775  1.00  0.00     0.000 HD 
BRANCH  11  13
HETATM   13  C   UNL     1      -7.685  14.383  68.732  1.00  0.00    -0.139 C  
HETATM   14  O   UNL     1      -6.655  14.158  69.353  1.00  0.00    -0.111 OA 
BRANCH  13  15
HETATM   15  N   UNL     1      -8.087  15.611  68.258  1.00  0.00    -0.132 N  
HETATM   16  H   UNL     1      -8.037  15.776  67.253  1.00  0.00     0.000 HD 
BRANCH  15  17
HETATM   17  N   UNL     1      -8.562  16.652  69.078  1.00  0.00    -0.229 NA 
HETATM   18  C   UNL     1      -8.495  17.968  68.413  1.00  0.00    -0.298 C  
HETATM   19  C   UNL     1      -9.866  18.256  67.786  1.00  0.00    -0.328 C  
HETATM   20  C   UNL     1      -9.893  18.222  66.261  1.00  0.00    -0.323 C  
HETATM   21  C   UNL     1     -10.061  16.757  65.908  1.00  0.00    -0.324 C  
HETATM   22  C   UNL     1     -10.986  16.223  66.995  1.00  0.00    -0.086 C  
HETATM   23  C   UNL     1     -10.767  17.104  68.237  1.00  0.00    -0.363 C  
HETATM   24  C   UNL     1      -9.992  16.462  69.385  1.00  0.00    -0.214 C  
ENDBRANCH  15  17
ENDBRANCH  13  15
ENDBRANCH  11  13
ENDBRANCH   8  11
ENDBRANCH   5   8
TORSDOF 5
ENDMDL
MODEL      164
REMARK 921   NORMALIZED FREE ENERGY PREDICTED BY IDOCK:   -4.35 KCAL/MOL
REMARK 922        TOTAL FREE ENERGY PREDICTED BY IDOCK:   -6.40 KCAL/MOL
REMARK 923 INTER-LIGAND FREE ENERGY PREDICTED BY IDOCK:   -5.48 KCAL/MOL
REMARK 924 INTRA-LIGAND FREE ENERGY PREDICTED BY IDOCK:   -0.92 KCAL/MOL
REMARK 927      BINDING AFFINITY PREDICTED BY RF-SCORE:    0.00 PKD
ROOT
HETATM    1  C   UNL     1     -13.521  13.401  72.383  1.00  0.00    -0.685 C  
HETATM    2  C   UNL     1     -12.784  13.396  71.077  1.00  0.00    -0.387 A  
HETATM    3  C   UNL     1     -12.361  12.193  70.500  1.00  0.00    -0.358 A  
HETATM    4  C   UNL     1     -11.604  12.201  69.328  1.00  0.00    -0.377 A  
HETATM    5  C   UNL     1     -11.279  13.419  68.719  1.00  0.00    -0.275 A  
HETATM    6  C   UNL     1     -11.717  14.623  69.272  1.00  0.00    -0.348 A  
HETATM    7  C   UNL     1     -12.468  14.609  70.448  1.00  0.00    -0.410 A  
ENDROOT
BRANCH   5   8
HETATM    8  S   UNL     1     -10.161  13.447  67.338  1.00  0.00    -0.238 S  
HETATM    9  O   UNL     1     -10.541  14.576  66.512  1.00  0.00    -0.289 OA 
HETATM   10  O   UNL     1     -10.073  12.111  66.795  1.00  0.00    -0.199 OA 
BRANCH   8  11
HETATM   11  N   UNL     1      -8.703  13.779  68.036  1.00  0.00    -0.172 N  
HETATM   12  H   UNL     1      -8.625  14.693  68.482  1.00  0.00     0.000 HD 
BRANCH  11  13
HETATM   13  C   UNL     1      -7.563  12.978  68.099  1.00  0.00    -0.136 C  
HETATM   14  O   UNL     1      -6.562  13.344  67.498  1.00  0.00    -0.165 OA 
BRANCH  13  15
HETATM   15  N   UNL     1      -7.664  11.853  68.885  1.00  0.00    -0.303 N  
HETATM   16  H   UNL     1      -8.522  11.718  69.420  1.00  0.00     0.000 HD 
BRANCH  15  17
HETATM   17  N   UNL     1      -6.654  10.879  68.994  1.00  0.00    -0.055 NA 
HETATM   18  C   UNL     1      -6.630  10.239  70.325  1.00  0.00    -0.142 C  
HETATM   19  C   UNL     1      -7.444   8.940  70.244  1.00  0.00    -0.074 C  
HETATM   20  C   UNL     1      -8.764   8.962  71.007  1.00  0.00    -0.276 C  
HETATM   21  C   UNL     1      -9.750   9.615  70.056  1.00  0.00    -0.280 C  
HETATM   22  C   UNL     1      -9.328   9.103  68.684  1.00  0.00    -0.135 C  
HETATM   23  C   UNL     1      -7.824   8.791  68.769  1.00  0.00    -0.101 C  
HETATM   24  C   UNL     1      -6.897   9.769  68.053  1.00  0.00    -0.072 C  
ENDBRANCH  15  17
ENDBRANCH  13  15
ENDBRANCH  11  13
ENDBRANCH   8  11
ENDBRANCH   5   8
TORSDOF 5
ENDMDL
MODEL      165
REMARK 921   NORMALIZED FREE ENERGY PREDICTED BY IDOCK:   -4.31 KCAL/MOL
REMARK 922        TOTAL FREE ENERGY PREDICTED BY IDOCK:   -6.34 KCAL/MOL
REMARK 923 INTER-LIGAND FREE ENERGY PREDICTED BY IDOCK:   -5.79 KCAL/MOL
REMARK 924 INTRA-LIGAND FREE ENERGY PREDICTED BY IDOCK:   -0.55 KCAL/MOL
REMARK 927      BINDING AFFINITY PREDICTED BY RF-SCORE:    0.00 PKD
ROOT
HETATM    1  C   UNL     1      -7.728   8.387  64.819  1.00  0.00    -0.109 C  
HETATM    2  C   UNL     1      -8.614   9.042  65.837  1.00  0.00    -0.172 A  
HETATM    3  C   UNL     1      -8.268  10.277  66.397  1.00  0.00    -0.129 A  
HETATM    4  C   UNL     1      -9.054  10.841  67.402  1.00  0.00    -0.148 A  
HETATM    5  C   UNL     1     -10.203  10.174  67.842  1.00  0.00    -0.180 A  
HETATM    6  C   UNL     1     -10.572   8.954  67.273  1.00  0.00    -0.304 A  
HETATM    7  C   UNL     1      -9.778   8.392  66.272  1.00  0.00    -0.278 A  
ENDROOT
BRANCH   5   8
HETATM    8  S   UNL     1     -11.102  10.789  69.246  1.00  0.00    -0.277 S  
HETATM    9  O   UNL     1     -10.582  10.105  70.412  1.00  0.00    -0.290 OA 
HETATM   10  O   UNL     1     -12.511  10.774  68.928  1.00  0.00    -0.377 OA 
BRANCH   8  11
HETATM   11  N   UNL     1     -10.645  12.374  69.324  1.00  0.00    -0.432 N  
HETATM   12  H   UNL     1      -9.726  12.549  69.732  1.00  0.00     0.000 HD 
BRANCH  11  13
HETATM   13  C   UNL     1     -11.345  13.505  68.908  1.00  0.00    -0.289 C  
HETATM   14  O   UNL     1     -12.305  13.873  69.573  1.00  0.00    -0.333 OA 
BRANCH  13  15
HETATM   15  N   UNL     1     -10.851  14.138  67.791  1.00  0.00    -0.250 N  
HETATM   16  H   UNL     1     -10.052  13.718  67.317  1.00  0.00     0.000 HD 
BRANCH  15  17
HETATM   17  N   UNL     1     -11.382  15.331  67.265  1.00  0.00    -0.310 NA 
HETATM   18  C   UNL     1     -11.108  16.499  68.127  1.00  0.00    -0.303 C  
HETATM   19  C   UNL     1      -9.846  17.194  67.601  1.00  0.00    -0.270 C  
HETATM   20  C   UNL     1      -8.623  17.071  68.504  1.00  0.00    -0.257 C  
HETATM   21  C   UNL     1      -8.009  15.731  68.146  1.00  0.00    -0.136 C  
HETATM   22  C   UNL     1      -8.231  15.618  66.642  1.00  0.00    -0.284 C  
HETATM   23  C   UNL     1      -9.481  16.453  66.313  1.00  0.00    -0.347 C  
HETATM   24  C   UNL     1     -10.743  15.663  65.978  1.00  0.00    -0.317 C  
ENDBRANCH  15  17
ENDBRANCH  13  15
ENDBRANCH  11  13
ENDBRANCH   8  11
ENDBRANCH   5   8
TORSDOF 5
ENDMDL
MODEL      166
REMARK 921   NORMALIZED FREE ENERGY PREDICTED BY IDOCK:   -4.30 KCAL/MOL
REMARK 922        TOTAL FREE ENERGY PREDICTED BY IDOCK:   -6.34 KCAL/MOL
REMARK 923 INTER-LIGAND FREE ENERGY PREDICTED BY IDOCK:   -5.58 KCAL/MOL
REMARK 924 INTRA-LIGAND FREE ENERGY PREDICTED BY IDOCK:   -0.76 KCAL/MOL
REMARK 927      BINDING AFFINITY PREDICTED BY RF-SCORE:    0.00 PKD
ROOT
HETATM    1  C   UNL     1     -10.329   5.042  68.191  1.00  0.00    -0.091 C  
HETATM    2  C   UNL     1     -10.225   6.535  68.303  1.00  0.00    -0.195 A  
HETATM    3  C   UNL     1     -10.099   7.151  69.554  1.00  0.00    -0.182 A  
HETATM    4  C   UNL     1     -10.087   8.542  69.657  1.00  0.00    -0.202 A  
HETATM    5  C   UNL     1     -10.185   9.325  68.501  1.00  0.00    -0.201 A  
HETATM    6  C   UNL     1     -10.285   8.722  67.246  1.00  0.00    -0.332 A  
HETATM    7  C   UNL     1     -10.303   7.329  67.150  1.00  0.00    -0.367 A  
ENDROOT
BRANCH   5   8
HETATM    8  S   UNL     1     -10.359  11.088  68.637  1.00  0.00    -0.201 S  
HETATM    9  O   UNL     1      -9.024  11.649  68.576  1.00  0.00    -0.172 OA 
HETATM   10  O   UNL     1     -11.247  11.375  69.740  1.00  0.00    -0.251 OA 
BRANCH   8  11
HETATM   11  N   UNL     1     -11.162  11.499  67.255  1.00  0.00    -0.292 N  
HETATM   12  H   UNL     1     -11.432  10.720  66.654  1.00  0.00     0.000 HD 
BRANCH  11  13
HETATM   13  C   UNL     1     -11.521  12.766  66.798  1.00  0.00    -0.343 C  
HETATM   14  O   UNL     1     -12.480  12.863  66.044  1.00  0.00    -0.509 OA 
BRANCH  13  15
HETATM   15  N   UNL     1     -10.771  13.813  67.285  1.00  0.00    -0.281 N  
HETATM   16  H   UNL     1      -9.947  14.098  66.757  1.00  0.00     0.000 HD 
BRANCH  15  17
HETATM   17  N   UNL     1     -11.076  14.512  68.469  1.00  0.00    -0.246 NA 
HETATM   18  C   UNL     1      -9.869  14.844  69.253  1.00  0.00    -0.159 C  
HETATM   19  C   UNL     1      -9.442  16.272  68.887  1.00  0.00    -0.252 C  
HETATM   20  C   UNL     1      -8.146  16.369  68.088  1.00  0.00    -0.165 C  
HETATM   21  C   UNL     1      -8.562  16.146  66.646  1.00  0.00    -0.311 C  
HETATM   22  C   UNL     1      -9.920  16.830  66.548  1.00  0.00    -0.308 C  
HETATM   23  C   UNL     1     -10.538  16.798  67.957  1.00  0.00    -0.347 C  
HETATM   24  C   UNL     1     -11.690  15.817  68.160  1.00  0.00    -0.168 C  
ENDBRANCH  15  17
ENDBRANCH  13  15
ENDBRANCH  11  13
ENDBRANCH   8  11
ENDBRANCH   5   8
TORSDOF 5
ENDMDL
MODEL      167
REMARK 921   NORMALIZED FREE ENERGY PREDICTED BY IDOCK:   -4.30 KCAL/MOL
REMARK 922        TOTAL FREE ENERGY PREDICTED BY IDOCK:   -6.34 KCAL/MOL
REMARK 923 INTER-LIGAND FREE ENERGY PREDICTED BY IDOCK:   -5.39 KCAL/MOL
REMARK 924 INTRA-LIGAND FREE ENERGY PREDICTED BY IDOCK:   -0.95 KCAL/MOL
REMARK 927      BINDING AFFINITY PREDICTED BY RF-SCORE:    0.00 PKD
ROOT
HETATM    1  C   UNL     1      -5.756  13.773  71.013  1.00  0.00    -0.210 C  
HETATM    2  C   UNL     1      -6.141  12.939  69.827  1.00  0.00    -0.125 A  
HETATM    3  C   UNL     1      -6.135  11.541  69.903  1.00  0.00    -0.141 A  
HETATM    4  C   UNL     1      -6.413  10.772  68.773  1.00  0.00    -0.048 A  
HETATM    5  C   UNL     1      -6.715  11.403  67.561  1.00  0.00    -0.078 A  
HETATM    6  C   UNL     1      -6.748  12.795  67.479  1.00  0.00    -0.154 A  
HETATM    7  C   UNL     1      -6.462  13.560  68.611  1.00  0.00    -0.094 A  
ENDROOT
BRANCH   5   8
HETATM    8  S   UNL     1      -6.884  10.437  66.079  1.00  0.00    -0.134 S  
HETATM    9  O   UNL     1      -7.055   9.058  66.492  1.00  0.00    -0.079 OA 
HETATM   10  O   UNL     1      -5.840  10.825  65.159  1.00  0.00    -0.120 OA 
BRANCH   8  11
HETATM   11  N   UNL     1      -8.310  10.970  65.439  1.00  0.00    -0.363 N  
HETATM   12  H   UNL     1      -8.226  11.607  64.646  1.00  0.00     0.000 HD 
BRANCH  11  13
HETATM   13  C   UNL     1      -9.611  10.669  65.836  1.00  0.00    -0.205 C  
HETATM   14  O   UNL     1     -10.098   9.605  65.477  1.00  0.00    -0.290 OA 
BRANCH  13  15
HETATM   15  N   UNL     1     -10.220  11.599  66.648  1.00  0.00    -0.211 N  
HETATM   16  H   UNL     1      -9.634  12.127  67.294  1.00  0.00     0.000 HD 
BRANCH  15  17
HETATM   17  N   UNL     1     -11.603  11.863  66.639  1.00  0.00    -0.528 NA 
HETATM   18  C   UNL     1     -11.982  12.912  67.607  1.00  0.00    -0.289 C  
HETATM   19  C   UNL     1     -12.036  14.252  66.862  1.00  0.00    -0.467 C  
HETATM   20  C   UNL     1     -10.930  15.236  67.230  1.00  0.00    -0.327 C  
HETATM   21  C   UNL     1      -9.747  14.829  66.372  1.00  0.00    -0.311 C  
HETATM   22  C   UNL     1     -10.382  14.395  65.057  1.00  0.00    -0.449 C  
HETATM   23  C   UNL     1     -11.803  13.906  65.389  1.00  0.00    -0.363 C  
HETATM   24  C   UNL     1     -12.023  12.397  65.330  1.00  0.00    -0.404 C  
ENDBRANCH  15  17
ENDBRANCH  13  15
ENDBRANCH  11  13
ENDBRANCH   8  11
ENDBRANCH   5   8
TORSDOF 5
ENDMDL
MODEL      168
REMARK 921   NORMALIZED FREE ENERGY PREDICTED BY IDOCK:   -4.29 KCAL/MOL
REMARK 922        TOTAL FREE ENERGY PREDICTED BY IDOCK:   -6.32 KCAL/MOL
REMARK 923 INTER-LIGAND FREE ENERGY PREDICTED BY IDOCK:   -5.78 KCAL/MOL
REMARK 924 INTRA-LIGAND FREE ENERGY PREDICTED BY IDOCK:   -0.54 KCAL/MOL
REMARK 927      BINDING AFFINITY PREDICTED BY RF-SCORE:    0.00 PKD
ROOT
HETATM    1  C   UNL     1      -9.139  15.909  65.880  1.00  0.00    -0.304 C  
HETATM    2  C   UNL     1      -9.537  14.583  66.456  1.00  0.00    -0.311 A  
HETATM    3  C   UNL     1     -10.245  13.652  65.686  1.00  0.00    -0.316 A  
HETATM    4  C   UNL     1     -10.683  12.455  66.252  1.00  0.00    -0.287 A  
HETATM    5  C   UNL     1     -10.400  12.178  67.595  1.00  0.00    -0.203 A  
HETATM    6  C   UNL     1      -9.674  13.086  68.366  1.00  0.00    -0.192 A  
HETATM    7  C   UNL     1      -9.243  14.285  67.795  1.00  0.00    -0.194 A  
ENDROOT
BRANCH   5   8
HETATM    8  S   UNL     1     -11.114  10.748  68.372  1.00  0.00    -0.288 S  
HETATM    9  O   UNL     1     -10.647   9.591  67.636  1.00  0.00    -0.248 OA 
HETATM   10  O   UNL     1     -12.523  10.995  68.576  1.00  0.00    -0.440 OA 
BRANCH   8  11
HETATM   11  N   UNL     1     -10.409  10.736  69.865  1.00  0.00    -0.437 N  
HETATM   12  H   UNL     1      -9.679  11.434  70.014  1.00  0.00     0.000 HD 
BRANCH  11  13
HETATM   13  C   UNL     1     -10.674   9.901  70.949  1.00  0.00    -0.235 C  
HETATM   14  O   UNL     1     -11.722  10.057  71.561  1.00  0.00    -0.365 OA 
BRANCH  13  15
HETATM   15  N   UNL     1      -9.731   8.931  71.203  1.00  0.00    -0.248 N  
HETATM   16  H   UNL     1      -8.969   9.160  71.842  1.00  0.00     0.000 HD 
BRANCH  15  17
HETATM   17  N   UNL     1      -9.755   7.644  70.633  1.00  0.00    -0.175 NA 
HETATM   18  C   UNL     1      -8.554   6.854  70.975  1.00  0.00    -0.135 C  
HETATM   19  C   UNL     1      -8.888   5.983  72.193  1.00  0.00    -0.135 C  
HETATM   20  C   UNL     1      -8.182   6.387  73.484  1.00  0.00    -0.119 C  
HETATM   21  C   UNL     1      -9.041   7.494  74.065  1.00  0.00    -0.295 C  
HETATM   22  C   UNL     1     -10.464   7.069  73.726  1.00  0.00    -0.392 C  
HETATM   23  C   UNL     1     -10.380   6.206  72.455  1.00  0.00    -0.219 C  
HETATM   24  C   UNL     1     -10.882   6.858  71.170  1.00  0.00    -0.240 C  
ENDBRANCH  15  17
ENDBRANCH  13  15
ENDBRANCH  11  13
ENDBRANCH   8  11
ENDBRANCH   5   8
TORSDOF 5
ENDMDL
MODEL      169
REMARK 921   NORMALIZED FREE ENERGY PREDICTED BY IDOCK:   -4.28 KCAL/MOL
REMARK 922        TOTAL FREE ENERGY PREDICTED BY IDOCK:   -6.31 KCAL/MOL
REMARK 923 INTER-LIGAND FREE ENERGY PREDICTED BY IDOCK:   -5.37 KCAL/MOL
REMARK 924 INTRA-LIGAND FREE ENERGY PREDICTED BY IDOCK:   -0.94 KCAL/MOL
REMARK 927      BINDING AFFINITY PREDICTED BY RF-SCORE:    0.00 PKD
ROOT
HETATM    1  C   UNL     1     -13.639   9.038  72.564  1.00  0.00    -0.492 C  
HETATM    2  C   UNL     1     -12.725   9.574  71.502  1.00  0.00    -0.461 A  
HETATM    3  C   UNL     1     -12.922  10.853  70.969  1.00  0.00    -0.396 A  
HETATM    4  C   UNL     1     -12.120  11.313  69.924  1.00  0.00    -0.414 A  
HETATM    5  C   UNL     1     -11.104  10.494  69.416  1.00  0.00    -0.258 A  
HETATM    6  C   UNL     1     -10.883   9.227  69.956  1.00  0.00    -0.264 A  
HETATM    7  C   UNL     1     -11.692   8.770  70.998  1.00  0.00    -0.329 A  
ENDROOT
BRANCH   5   8
HETATM    8  S   UNL     1     -10.206  10.995  67.967  1.00  0.00    -0.187 S  
HETATM    9  O   UNL     1      -9.297  12.046  68.377  1.00  0.00    -0.200 OA 
HETATM   10  O   UNL     1     -11.149  11.191  66.890  1.00  0.00    -0.289 OA 
BRANCH   8  11
HETATM   11  N   UNL     1      -9.318   9.655  67.589  1.00  0.00    -0.127 N  
HETATM   12  H   UNL     1      -9.182   8.987  68.348  1.00  0.00     0.000 HD 
BRANCH  11  13
HETATM   13  C   UNL     1      -8.729   9.314  66.373  1.00  0.00    -0.132 C  
HETATM   14  O   UNL     1      -7.986  10.126  65.838  1.00  0.00    -0.123 OA 
BRANCH  13  15
HETATM   15  N   UNL     1      -9.011   8.051  65.905  1.00  0.00    -0.272 N  
HETATM   16  H   UNL     1      -9.951   7.869  65.554  1.00  0.00     0.000 HD 
BRANCH  15  17
HETATM   17  N   UNL     1      -8.079   6.995  65.882  1.00  0.00    -0.112 NA 
HETATM   18  C   UNL     1      -7.729   6.524  67.237  1.00  0.00    -0.101 C  
HETATM   19  C   UNL     1      -8.619   5.317  67.566  1.00  0.00    -0.104 C  
HETATM   20  C   UNL     1      -9.671   5.571  68.642  1.00  0.00    -0.186 C  
HETATM   21  C   UNL     1     -10.835   6.204  67.903  1.00  0.00    -0.406 C  
HETATM   22  C   UNL     1     -10.848   5.487  66.558  1.00  0.00    -0.237 C  
HETATM   23  C   UNL     1      -9.404   5.031  66.284  1.00  0.00    -0.151 C  
HETATM   24  C   UNL     1      -8.648   5.812  65.212  1.00  0.00    -0.129 C  
ENDBRANCH  15  17
ENDBRANCH  13  15
ENDBRANCH  11  13
ENDBRANCH   8  11
ENDBRANCH   5   8
TORSDOF 5
ENDMDL
MODEL      170
REMARK 921   NORMALIZED FREE ENERGY PREDICTED BY IDOCK:   -4.28 KCAL/MOL
REMARK 922        TOTAL FREE ENERGY PREDICTED BY IDOCK:   -6.31 KCAL/MOL
REMARK 923 INTER-LIGAND FREE ENERGY PREDICTED BY IDOCK:   -5.46 KCAL/MOL
REMARK 924 INTRA-LIGAND FREE ENERGY PREDICTED BY IDOCK:   -0.85 KCAL/MOL
REMARK 927      BINDING AFFINITY PREDICTED BY RF-SCORE:    0.00 PKD
ROOT
HETATM    1  C   UNL     1     -10.171  12.287  65.283  1.00  0.00    -0.305 C  
HETATM    2  C   UNL     1     -10.805  11.947  66.600  1.00  0.00    -0.315 A  
HETATM    3  C   UNL     1     -11.395  12.943  67.387  1.00  0.00    -0.355 A  
HETATM    4  C   UNL     1     -11.910  12.634  68.646  1.00  0.00    -0.342 A  
HETATM    5  C   UNL     1     -11.847  11.318  69.118  1.00  0.00    -0.355 A  
HETATM    6  C   UNL     1     -11.283  10.312  68.332  1.00  0.00    -0.284 A  
HETATM    7  C   UNL     1     -10.765  10.628  67.075  1.00  0.00    -0.317 A  
ENDROOT
BRANCH   5   8
HETATM    8  S   UNL     1     -12.326  10.953  70.790  1.00  0.00    -0.414 S  
HETATM    9  O   UNL     1     -13.472  10.069  70.717  1.00  0.00    -0.316 OA 
HETATM   10  O   UNL     1     -12.377  12.193  71.531  1.00  0.00    -0.112 OA 
BRANCH   8  11
HETATM   11  N   UNL     1     -11.042  10.097  71.375  1.00  0.00    -0.111 N  
HETATM   12  H   UNL     1     -10.199  10.640  71.566  1.00  0.00     0.000 HD 
BRANCH  11  13
HETATM   13  C   UNL     1     -10.953   8.732  71.643  1.00  0.00    -0.321 C  
HETATM   14  O   UNL     1     -11.514   8.296  72.639  1.00  0.00    -0.395 OA 
BRANCH  13  15
HETATM   15  N   UNL     1     -10.264   7.983  70.716  1.00  0.00    -0.193 N  
HETATM   16  H   UNL     1     -10.560   8.037  69.741  1.00  0.00     0.000 HD 
BRANCH  15  17
HETATM   17  N   UNL     1      -9.176   7.148  71.033  1.00  0.00    -0.158 NA 
HETATM   18  C   UNL     1      -9.525   5.716  70.960  1.00  0.00    -0.166 C  
HETATM   19  C   UNL     1      -9.120   5.195  69.575  1.00  0.00    -0.145 C  
HETATM   20  C   UNL     1     -10.286   4.850  68.654  1.00  0.00    -0.112 C  
HETATM   21  C   UNL     1     -10.684   6.170  68.020  1.00  0.00    -0.370 C  
HETATM   22  C   UNL     1      -9.358   6.895  67.823  1.00  0.00    -0.120 C  
HETATM   23  C   UNL     1      -8.396   6.363  68.899  1.00  0.00    -0.121 C  
HETATM   24  C   UNL     1      -8.088   7.316  70.051  1.00  0.00    -0.130 C  
ENDBRANCH  15  17
ENDBRANCH  13  15
ENDBRANCH  11  13
ENDBRANCH   8  11
ENDBRANCH   5   8
TORSDOF 5
ENDMDL
MODEL      171
REMARK 921   NORMALIZED FREE ENERGY PREDICTED BY IDOCK:   -4.26 KCAL/MOL
REMARK 922        TOTAL FREE ENERGY PREDICTED BY IDOCK:   -6.29 KCAL/MOL
REMARK 923 INTER-LIGAND FREE ENERGY PREDICTED BY IDOCK:   -5.55 KCAL/MOL
REMARK 924 INTRA-LIGAND FREE ENERGY PREDICTED BY IDOCK:   -0.74 KCAL/MOL
REMARK 927      BINDING AFFINITY PREDICTED BY RF-SCORE:    0.00 PKD
ROOT
HETATM    1  C   UNL     1      -5.137  10.349  70.366  1.00  0.00    -0.044 C  
HETATM    2  C   UNL     1      -5.656  11.635  69.795  1.00  0.00    -0.084 A  
HETATM    3  C   UNL     1      -6.237  11.670  68.523  1.00  0.00    -0.051 A  
HETATM    4  C   UNL     1      -6.642  12.882  67.964  1.00  0.00    -0.107 A  
HETATM    5  C   UNL     1      -6.479  14.069  68.688  1.00  0.00    -0.091 A  
HETATM    6  C   UNL     1      -5.923  14.044  69.968  1.00  0.00    -0.142 A  
HETATM    7  C   UNL     1      -5.514  12.828  70.519  1.00  0.00    -0.159 A  
ENDROOT
BRANCH   5   8
HETATM    8  S   UNL     1      -6.816  15.632  67.913  1.00  0.00    -0.158 S  
HETATM    9  O   UNL     1      -5.592  16.052  67.261  1.00  0.00    -0.282 OA 
HETATM   10  O   UNL     1      -7.490  16.480  68.870  1.00  0.00    -0.201 OA 
BRANCH   8  11
HETATM   11  N   UNL     1      -7.922  15.248  66.749  1.00  0.00    -0.309 N  
HETATM   12  H   UNL     1      -7.611  14.572  66.051  1.00  0.00     0.000 HD 
BRANCH  11  13
HETATM   13  C   UNL     1      -9.223  15.722  66.592  1.00  0.00    -0.255 C  
HETATM   14  O   UNL     1     -10.092  14.934  66.243  1.00  0.00    -0.259 OA 
BRANCH  13  15
HETATM   15  N   UNL     1      -9.417  17.051  66.893  1.00  0.00    -0.248 N  
HETATM   16  H   UNL     1      -9.607  17.299  67.864  1.00  0.00     0.000 HD 
BRANCH  15  17
HETATM   17  N   UNL     1      -9.368  18.087  65.942  1.00  0.00    -0.504 NA 
HETATM   18  C   UNL     1     -10.467  19.059  66.111  1.00  0.00    -0.467 C  
HETATM   19  C   UNL     1      -9.943  20.229  66.954  1.00  0.00    -0.592 C  
HETATM   20  C   UNL     1     -10.528  20.320  68.360  1.00  0.00    -0.228 C  
HETATM   21  C   UNL     1      -9.688  19.370  69.192  1.00  0.00    -0.404 C  
HETATM   22  C   UNL     1      -8.285  19.525  68.618  1.00  0.00    -0.369 C  
HETATM   23  C   UNL     1      -8.450  19.952  67.149  1.00  0.00    -0.376 C  
HETATM   24  C   UNL     1      -8.138  18.885  66.103  1.00  0.00    -0.222 C  
ENDBRANCH  15  17
ENDBRANCH  13  15
ENDBRANCH  11  13
ENDBRANCH   8  11
ENDBRANCH   5   8
TORSDOF 5
ENDMDL
MODEL      172
REMARK 921   NORMALIZED FREE ENERGY PREDICTED BY IDOCK:   -4.25 KCAL/MOL
REMARK 922        TOTAL FREE ENERGY PREDICTED BY IDOCK:   -6.27 KCAL/MOL
REMARK 923 INTER-LIGAND FREE ENERGY PREDICTED BY IDOCK:   -5.51 KCAL/MOL
REMARK 924 INTRA-LIGAND FREE ENERGY PREDICTED BY IDOCK:   -0.76 KCAL/MOL
REMARK 927      BINDING AFFINITY PREDICTED BY RF-SCORE:    0.00 PKD
ROOT
HETATM    1  C   UNL     1     -10.600  18.390  67.644  1.00  0.00    -0.437 C  
HETATM    2  C   UNL     1     -10.711  16.925  67.945  1.00  0.00    -0.344 A  
HETATM    3  C   UNL     1     -10.779  15.985  66.910  1.00  0.00    -0.262 A  
HETATM    4  C   UNL     1     -10.965  14.633  67.196  1.00  0.00    -0.316 A  
HETATM    5  C   UNL     1     -11.070  14.212  68.527  1.00  0.00    -0.255 A  
HETATM    6  C   UNL     1     -10.979  15.137  69.569  1.00  0.00    -0.279 A  
HETATM    7  C   UNL     1     -10.799  16.490  69.276  1.00  0.00    -0.326 A  
ENDROOT
BRANCH   5   8
HETATM    8  S   UNL     1     -11.494  12.526  68.891  1.00  0.00    -0.328 S  
HETATM    9  O   UNL     1     -12.065  11.964  67.684  1.00  0.00    -0.568 OA 
HETATM   10  O   UNL     1     -12.208  12.496  70.147  1.00  0.00    -0.302 OA 
BRANCH   8  11
HETATM   11  N   UNL     1     -10.028  11.814  69.156  1.00  0.00    -0.410 N  
HETATM   12  H   UNL     1      -9.886  11.430  70.090  1.00  0.00     0.000 HD 
BRANCH  11  13
HETATM   13  C   UNL     1      -8.958  11.667  68.275  1.00  0.00    -0.185 C  
HETATM   14  O   UNL     1      -7.999  12.417  68.394  1.00  0.00    -0.151 OA 
BRANCH  13  15
HETATM   15  N   UNL     1      -9.069  10.641  67.364  1.00  0.00    -0.139 N  
HETATM   16  H   UNL     1      -9.382   9.731  67.703  1.00  0.00     0.000 HD 
BRANCH  15  17
HETATM   17  N   UNL     1      -8.775  10.772  65.994  1.00  0.00    -0.177 NA 
HETATM   18  C   UNL     1      -7.363  10.462  65.688  1.00  0.00    -0.148 C  
HETATM   19  C   UNL     1      -7.282   8.995  65.247  1.00  0.00    -0.088 C  
HETATM   20  C   UNL     1      -6.585   8.066  66.236  1.00  0.00    -0.047 C  
HETATM   21  C   UNL     1      -7.661   7.685  67.236  1.00  0.00    -0.113 C  
HETATM   22  C   UNL     1      -8.923   7.575  66.389  1.00  0.00    -0.196 C  
HETATM   23  C   UNL     1      -8.732   8.510  65.182  1.00  0.00    -0.156 C  
HETATM   24  C   UNL     1      -9.549   9.800  65.200  1.00  0.00    -0.287 C  
ENDBRANCH  15  17
ENDBRANCH  13  15
ENDBRANCH  11  13
ENDBRANCH   8  11
ENDBRANCH   5   8
TORSDOF 5
ENDMDL
MODEL      173
REMARK 921   NORMALIZED FREE ENERGY PREDICTED BY IDOCK:   -4.24 KCAL/MOL
REMARK 922        TOTAL FREE ENERGY PREDICTED BY IDOCK:   -6.26 KCAL/MOL
REMARK 923 INTER-LIGAND FREE ENERGY PREDICTED BY IDOCK:   -5.33 KCAL/MOL
REMARK 924 INTRA-LIGAND FREE ENERGY PREDICTED BY IDOCK:   -0.94 KCAL/MOL
REMARK 927      BINDING AFFINITY PREDICTED BY RF-SCORE:    0.00 PKD
ROOT
HETATM    1  C   UNL     1     -12.374  15.755  71.901  1.00  0.00    -0.533 C  
HETATM    2  C   UNL     1     -12.132  15.417  70.460  1.00  0.00    -0.411 A  
HETATM    3  C   UNL     1     -11.738  16.406  69.550  1.00  0.00     0.060 A  
HETATM    4  C   UNL     1     -11.595  16.102  68.196  1.00  0.00    -0.133 A  
HETATM    5  C   UNL     1     -11.833  14.797  67.748  1.00  0.00    -0.294 A  
HETATM    6  C   UNL     1     -12.201  13.797  68.650  1.00  0.00    -0.202 A  
HETATM    7  C   UNL     1     -12.349  14.109  70.002  1.00  0.00    -0.403 A  
ENDROOT
BRANCH   5   8
HETATM    8  S   UNL     1     -11.837  14.446  66.006  1.00  0.00    -0.348 S  
HETATM    9  O   UNL     1     -10.855  15.321  65.398  1.00  0.00    -0.341 OA 
HETATM   10  O   UNL     1     -13.207  14.418  65.550  1.00  0.00    -0.557 OA 
BRANCH   8  11
HETATM   11  N   UNL     1     -11.274  12.896  65.930  1.00  0.00    -0.286 N  
HETATM   12  H   UNL     1     -11.830  12.199  66.426  1.00  0.00     0.000 HD 
BRANCH  11  13
HETATM   13  C   UNL     1     -10.140  12.410  65.280  1.00  0.00    -0.265 C  
HETATM   14  O   UNL     1     -10.285  11.835  64.210  1.00  0.00    -0.266 OA 
BRANCH  13  15
HETATM   15  N   UNL     1      -8.938  12.671  65.897  1.00  0.00    -0.397 N  
HETATM   16  H   UNL     1      -8.363  13.427  65.525  1.00  0.00     0.000 HD 
BRANCH  15  17
HETATM   17  N   UNL     1      -8.456  11.957  67.011  1.00  0.00    -0.173 NA 
HETATM   18  C   UNL     1      -6.998  12.107  67.187  1.00  0.00    -0.117 C  
HETATM   19  C   UNL     1      -6.753  13.236  68.198  1.00  0.00    -0.114 C  
HETATM   20  C   UNL     1      -6.147  14.505  67.606  1.00  0.00    -0.073 C  
HETATM   21  C   UNL     1      -7.330  15.280  67.056  1.00  0.00    -0.072 C  
HETATM   22  C   UNL     1      -8.444  15.006  68.060  1.00  0.00    -0.149 C  
HETATM   23  C   UNL     1      -8.142  13.639  68.698  1.00  0.00    -0.071 C  
HETATM   24  C   UNL     1      -9.038  12.484  68.259  1.00  0.00    -0.183 C  
ENDBRANCH  15  17
ENDBRANCH  13  15
ENDBRANCH  11  13
ENDBRANCH   8  11
ENDBRANCH   5   8
TORSDOF 5
ENDMDL
MODEL      174
REMARK 921   NORMALIZED FREE ENERGY PREDICTED BY IDOCK:   -4.22 KCAL/MOL
REMARK 922        TOTAL FREE ENERGY PREDICTED BY IDOCK:   -6.23 KCAL/MOL
REMARK 923 INTER-LIGAND FREE ENERGY PREDICTED BY IDOCK:   -5.58 KCAL/MOL
REMARK 924 INTRA-LIGAND FREE ENERGY PREDICTED BY IDOCK:   -0.65 KCAL/MOL
REMARK 927      BINDING AFFINITY PREDICTED BY RF-SCORE:    0.00 PKD
ROOT
HETATM    1  C   UNL     1     -12.540  13.692  65.319  1.00  0.00    -0.512 C  
HETATM    2  C   UNL     1     -11.736  12.509  65.772  1.00  0.00    -0.478 A  
HETATM    3  C   UNL     1     -10.958  11.783  64.863  1.00  0.00    -0.358 A  
HETATM    4  C   UNL     1     -10.279  10.636  65.274  1.00  0.00    -0.351 A  
HETATM    5  C   UNL     1     -10.364  10.219  66.608  1.00  0.00    -0.219 A  
HETATM    6  C   UNL     1     -11.116  10.949  67.529  1.00  0.00    -0.375 A  
HETATM    7  C   UNL     1     -11.799  12.092  67.110  1.00  0.00    -0.292 A  
ENDROOT
BRANCH   5   8
HETATM    8  S   UNL     1      -9.659   8.662  67.095  1.00  0.00    -0.189 S  
HETATM    9  O   UNL     1      -8.560   8.395  66.189  1.00  0.00    -0.125 OA 
HETATM   10  O   UNL     1     -10.733   7.712  67.279  1.00  0.00    -0.306 OA 
BRANCH   8  11
HETATM   11  N   UNL     1      -9.037   8.979  68.591  1.00  0.00    -0.137 N  
HETATM   12  H   UNL     1      -8.237   9.612  68.612  1.00  0.00     0.000 HD 
BRANCH  11  13
HETATM   13  C   UNL     1      -9.458   8.498  69.830  1.00  0.00    -0.163 C  
HETATM   14  O   UNL     1      -9.875   9.301  70.655  1.00  0.00    -0.229 OA 
BRANCH  13  15
HETATM   15  N   UNL     1      -9.402   7.133  69.993  1.00  0.00    -0.155 N  
HETATM   16  H   UNL     1     -10.130   6.568  69.555  1.00  0.00     0.000 HD 
BRANCH  15  17
HETATM   17  N   UNL     1      -8.402   6.470  70.729  1.00  0.00    -0.128 NA 
HETATM   18  C   UNL     1      -8.106   7.141  72.011  1.00  0.00    -0.099 C  
HETATM   19  C   UNL     1      -8.931   6.457  73.109  1.00  0.00    -0.133 C  
HETATM   20  C   UNL     1     -10.063   7.304  73.682  1.00  0.00    -0.387 C  
HETATM   21  C   UNL     1     -11.219   7.110  72.720  1.00  0.00    -0.314 C  
HETATM   22  C   UNL     1     -11.100   5.651  72.295  1.00  0.00    -0.318 C  
HETATM   23  C   UNL     1      -9.614   5.271  72.423  1.00  0.00    -0.175 C  
HETATM   24  C   UNL     1      -8.848   5.117  71.112  1.00  0.00    -0.134 C  
ENDBRANCH  15  17
ENDBRANCH  13  15
ENDBRANCH  11  13
ENDBRANCH   8  11
ENDBRANCH   5   8
TORSDOF 5
ENDMDL
MODEL      175
REMARK 921   NORMALIZED FREE ENERGY PREDICTED BY IDOCK:   -4.21 KCAL/MOL
REMARK 922        TOTAL FREE ENERGY PREDICTED BY IDOCK:   -6.22 KCAL/MOL
REMARK 923 INTER-LIGAND FREE ENERGY PREDICTED BY IDOCK:   -5.22 KCAL/MOL
REMARK 924 INTRA-LIGAND FREE ENERGY PREDICTED BY IDOCK:   -1.00 KCAL/MOL
REMARK 927      BINDING AFFINITY PREDICTED BY RF-SCORE:    0.00 PKD
ROOT
HETATM    1  C   UNL     1      -5.201  11.960  67.021  1.00  0.00    -0.104 C  
HETATM    2  C   UNL     1      -6.653  12.170  67.337  1.00  0.00    -0.147 A  
HETATM    3  C   UNL     1      -7.608  11.210  66.983  1.00  0.00    -0.135 A  
HETATM    4  C   UNL     1      -8.964  11.448  67.205  1.00  0.00    -0.162 A  
HETATM    5  C   UNL     1      -9.370  12.649  67.799  1.00  0.00    -0.198 A  
HETATM    6  C   UNL     1      -8.425  13.603  68.179  1.00  0.00    -0.175 A  
HETATM    7  C   UNL     1      -7.070  13.361  67.948  1.00  0.00    -0.137 A  
ENDROOT
BRANCH   5   8
HETATM    8  S   UNL     1     -11.100  13.040  67.912  1.00  0.00    -0.270 S  
HETATM    9  O   UNL     1     -11.608  13.098  66.557  1.00  0.00    -0.323 OA 
HETATM   10  O   UNL     1     -11.258  14.149  68.825  1.00  0.00    -0.243 OA 
BRANCH   8  11
HETATM   11  N   UNL     1     -11.741  11.712  68.654  1.00  0.00    -0.308 N  
HETATM   12  H   UNL     1     -12.294  11.096  68.057  1.00  0.00     0.000 HD 
BRANCH  11  13
HETATM   13  C   UNL     1     -11.630  11.318  69.987  1.00  0.00    -0.321 C  
HETATM   14  O   UNL     1     -12.406  11.798  70.802  1.00  0.00    -0.374 OA 
BRANCH  13  15
HETATM   15  N   UNL     1     -10.666  10.373  70.254  1.00  0.00    -0.436 N  
HETATM   16  H   UNL     1      -9.829  10.364  69.671  1.00  0.00     0.000 HD 
BRANCH  15  17
HETATM   17  N   UNL     1     -10.767   9.417  71.282  1.00  0.00    -0.341 NA 
HETATM   18  C   UNL     1     -11.604   8.262  70.899  1.00  0.00    -0.262 C  
HETATM   19  C   UNL     1     -10.678   7.153  70.383  1.00  0.00    -0.255 C  
HETATM   20  C   UNL     1     -10.775   6.882  68.885  1.00  0.00    -0.254 C  
HETATM   21  C   UNL     1      -9.865   7.912  68.244  1.00  0.00    -0.187 C  
HETATM   22  C   UNL     1      -8.705   8.034  69.225  1.00  0.00    -0.137 C  
HETATM   23  C   UNL     1      -9.257   7.671  70.614  1.00  0.00    -0.162 C  
HETATM   24  C   UNL     1      -9.446   8.834  71.584  1.00  0.00    -0.288 C  
ENDBRANCH  15  17
ENDBRANCH  13  15
ENDBRANCH  11  13
ENDBRANCH   8  11
ENDBRANCH   5   8
TORSDOF 5
ENDMDL
MODEL      176
REMARK 921   NORMALIZED FREE ENERGY PREDICTED BY IDOCK:   -4.20 KCAL/MOL
REMARK 922        TOTAL FREE ENERGY PREDICTED BY IDOCK:   -6.20 KCAL/MOL
REMARK 923 INTER-LIGAND FREE ENERGY PREDICTED BY IDOCK:   -5.54 KCAL/MOL
REMARK 924 INTRA-LIGAND FREE ENERGY PREDICTED BY IDOCK:   -0.66 KCAL/MOL
REMARK 927      BINDING AFFINITY PREDICTED BY RF-SCORE:    0.00 PKD
ROOT
HETATM    1  C   UNL     1      -5.361  10.558  70.213  1.00  0.00    -0.054 C  
HETATM    2  C   UNL     1      -5.828  11.840  69.589  1.00  0.00    -0.097 A  
HETATM    3  C   UNL     1      -6.306  11.862  68.274  1.00  0.00    -0.051 A  
HETATM    4  C   UNL     1      -6.661  13.070  67.672  1.00  0.00    -0.160 A  
HETATM    5  C   UNL     1      -6.550  14.264  68.394  1.00  0.00    -0.105 A  
HETATM    6  C   UNL     1      -6.098  14.252  69.715  1.00  0.00    -0.132 A  
HETATM    7  C   UNL     1      -5.739  13.040  70.309  1.00  0.00    -0.159 A  
ENDROOT
BRANCH   5   8
HETATM    8  S   UNL     1      -6.818  15.820  67.578  1.00  0.00    -0.202 S  
HETATM    9  O   UNL     1      -5.551  16.215  66.997  1.00  0.00    -0.337 OA 
HETATM   10  O   UNL     1      -7.538  16.690  68.480  1.00  0.00    -0.189 OA 
BRANCH   8  11
HETATM   11  N   UNL     1      -7.856  15.433  66.354  1.00  0.00    -0.158 N  
HETATM   12  H   UNL     1      -7.593  14.623  65.791  1.00  0.00     0.000 HD 
BRANCH  11  13
HETATM   13  C   UNL     1      -9.044  16.062  65.985  1.00  0.00    -0.326 C  
HETATM   14  O   UNL     1      -9.073  17.285  65.966  1.00  0.00    -0.483 OA 
BRANCH  13  15
HETATM   15  N   UNL     1     -10.078  15.227  65.628  1.00  0.00    -0.346 N  
HETATM   16  H   UNL     1     -10.192  15.002  64.640  1.00  0.00     0.000 HD 
BRANCH  15  17
HETATM   17  N   UNL     1     -10.987  14.666  66.545  1.00  0.00    -0.313 NA 
HETATM   18  C   UNL     1     -12.169  14.082  65.881  1.00  0.00    -0.456 C  
HETATM   19  C   UNL     1     -11.915  12.581  65.690  1.00  0.00    -0.492 C  
HETATM   20  C   UNL     1     -11.707  12.145  64.243  1.00  0.00    -0.451 C  
HETATM   21  C   UNL     1     -10.238  12.408  63.966  1.00  0.00    -0.401 C  
HETATM   22  C   UNL     1      -9.552  12.068  65.283  1.00  0.00    -0.117 C  
HETATM   23  C   UNL     1     -10.587  12.301  66.397  1.00  0.00    -0.272 C  
HETATM   24  C   UNL     1     -10.370  13.537  67.266  1.00  0.00    -0.241 C  
ENDBRANCH  15  17
ENDBRANCH  13  15
ENDBRANCH  11  13
ENDBRANCH   8  11
ENDBRANCH   5   8
TORSDOF 5
ENDMDL
MODEL      177
REMARK 921   NORMALIZED FREE ENERGY PREDICTED BY IDOCK:   -4.18 KCAL/MOL
REMARK 922        TOTAL FREE ENERGY PREDICTED BY IDOCK:   -6.18 KCAL/MOL
REMARK 923 INTER-LIGAND FREE ENERGY PREDICTED BY IDOCK:   -5.58 KCAL/MOL
REMARK 924 INTRA-LIGAND FREE ENERGY PREDICTED BY IDOCK:   -0.59 KCAL/MOL
REMARK 927      BINDING AFFINITY PREDICTED BY RF-SCORE:    0.00 PKD
ROOT
HETATM    1  C   UNL     1      -6.888   8.772  67.680  1.00  0.00    -0.071 C  
HETATM    2  C   UNL     1      -7.841   9.883  68.007  1.00  0.00    -0.086 A  
HETATM    3  C   UNL     1      -9.119   9.606  68.505  1.00  0.00    -0.131 A  
HETATM    4  C   UNL     1     -10.030  10.639  68.728  1.00  0.00    -0.201 A  
HETATM    5  C   UNL     1      -9.657  11.962  68.465  1.00  0.00    -0.157 A  
HETATM    6  C   UNL     1      -8.377  12.254  67.991  1.00  0.00    -0.165 A  
HETATM    7  C   UNL     1      -7.473  11.215  67.764  1.00  0.00    -0.095 A  
ENDROOT
BRANCH   5   8
HETATM    8  S   UNL     1     -10.867  13.259  68.566  1.00  0.00    -0.271 S  
HETATM    9  O   UNL     1     -12.004  12.720  69.285  1.00  0.00    -0.289 OA 
HETATM   10  O   UNL     1     -11.015  13.849  67.255  1.00  0.00    -0.283 OA 
BRANCH   8  11
HETATM   11  N   UNL     1     -10.134  14.389  69.520  1.00  0.00    -0.421 N  
HETATM   12  H   UNL     1      -9.381  14.042  70.116  1.00  0.00     0.000 HD 
BRANCH  11  13
HETATM   13  C   UNL     1     -10.403  15.753  69.622  1.00  0.00    -0.290 C  
HETATM   14  O   UNL     1     -11.201  16.126  70.471  1.00  0.00    -0.363 OA 
BRANCH  13  15
HETATM   15  N   UNL     1      -9.695  16.568  68.769  1.00  0.00    -0.241 N  
HETATM   16  H   UNL     1      -8.845  17.008  69.121  1.00  0.00     0.000 HD 
BRANCH  15  17
HETATM   17  N   UNL     1     -10.075  16.831  67.439  1.00  0.00    -0.270 NA 
HETATM   18  C   UNL     1     -10.731  18.146  67.290  1.00  0.00    -0.315 C  
HETATM   19  C   UNL     1      -9.667  19.164  66.860  1.00  0.00    -0.389 C  
HETATM   20  C   UNL     1      -9.306  20.201  67.919  1.00  0.00    -0.406 C  
HETATM   21  C   UNL     1      -8.271  19.519  68.793  1.00  0.00    -0.348 C  
HETATM   22  C   UNL     1      -7.460  18.681  67.813  1.00  0.00    -0.241 C  
HETATM   23  C   UNL     1      -8.392  18.347  66.635  1.00  0.00    -0.280 C  
HETATM   24  C   UNL     1      -8.890  16.906  66.564  1.00  0.00    -0.271 C  
ENDBRANCH  15  17
ENDBRANCH  13  15
ENDBRANCH  11  13
ENDBRANCH   8  11
ENDBRANCH   5   8
TORSDOF 5
ENDMDL
MODEL      178
REMARK 921   NORMALIZED FREE ENERGY PREDICTED BY IDOCK:   -4.17 KCAL/MOL
REMARK 922        TOTAL FREE ENERGY PREDICTED BY IDOCK:   -6.16 KCAL/MOL
REMARK 923 INTER-LIGAND FREE ENERGY PREDICTED BY IDOCK:   -5.18 KCAL/MOL
REMARK 924 INTRA-LIGAND FREE ENERGY PREDICTED BY IDOCK:   -0.99 KCAL/MOL
REMARK 927      BINDING AFFINITY PREDICTED BY RF-SCORE:    0.00 PKD
ROOT
HETATM    1  C   UNL     1     -10.428  11.621  65.684  1.00  0.00    -0.314 C  
HETATM    2  C   UNL     1     -10.769  10.973  66.993  1.00  0.00    -0.319 A  
HETATM    3  C   UNL     1     -11.468  11.678  67.979  1.00  0.00    -0.385 A  
HETATM    4  C   UNL     1     -11.709  11.098  69.225  1.00  0.00    -0.401 A  
HETATM    5  C   UNL     1     -11.262   9.797  69.483  1.00  0.00    -0.142 A  
HETATM    6  C   UNL     1     -10.586   9.075  68.499  1.00  0.00    -0.196 A  
HETATM    7  C   UNL     1     -10.342   9.663  67.257  1.00  0.00    -0.310 A  
ENDROOT
BRANCH   5   8
HETATM    8  S   UNL     1     -11.399   9.124  71.122  1.00  0.00    -0.352 S  
HETATM    9  O   UNL     1     -11.846   7.753  70.978  1.00  0.00    -0.289 OA 
HETATM   10  O   UNL     1     -12.116  10.069  71.946  1.00  0.00    -0.327 OA 
BRANCH   8  11
HETATM   11  N   UNL     1      -9.837   9.109  71.658  1.00  0.00    -0.286 N  
HETATM   12  H   UNL     1      -9.238   9.849  71.291  1.00  0.00     0.000 HD 
BRANCH  11  13
HETATM   13  C   UNL     1      -9.226   8.222  72.543  1.00  0.00    -0.269 C  
HETATM   14  O   UNL     1      -8.570   8.683  73.468  1.00  0.00    -0.341 OA 
BRANCH  13  15
HETATM   15  N   UNL     1      -9.464   6.887  72.311  1.00  0.00    -0.141 N  
HETATM   16  H   UNL     1     -10.338   6.627  71.856  1.00  0.00     0.000 HD 
BRANCH  15  17
HETATM   17  N   UNL     1      -8.570   5.858  72.666  1.00  0.00    -0.120 NA 
HETATM   18  C   UNL     1      -9.162   4.515  72.495  1.00  0.00    -0.127 C  
HETATM   19  C   UNL     1      -8.743   3.981  71.119  1.00  0.00    -0.123 C  
HETATM   20  C   UNL     1      -9.872   3.886  70.098  1.00  0.00    -0.163 C  
HETATM   21  C   UNL     1      -9.976   5.278  69.504  1.00  0.00    -0.297 C  
HETATM   22  C   UNL     1      -8.531   5.757  69.442  1.00  0.00    -0.112 C  
HETATM   23  C   UNL     1      -7.770   5.022  70.559  1.00  0.00    -0.070 C  
HETATM   24  C   UNL     1      -7.393   5.861  71.777  1.00  0.00    -0.093 C  
ENDBRANCH  15  17
ENDBRANCH  13  15
ENDBRANCH  11  13
ENDBRANCH   8  11
ENDBRANCH   5   8
TORSDOF 5
ENDMDL
MODEL      179
REMARK 921   NORMALIZED FREE ENERGY PREDICTED BY IDOCK:   -4.16 KCAL/MOL
REMARK 922        TOTAL FREE ENERGY PREDICTED BY IDOCK:   -6.16 KCAL/MOL
REMARK 923 INTER-LIGAND FREE ENERGY PREDICTED BY IDOCK:   -5.63 KCAL/MOL
REMARK 924 INTRA-LIGAND FREE ENERGY PREDICTED BY IDOCK:   -0.53 KCAL/MOL
REMARK 927      BINDING AFFINITY PREDICTED BY RF-SCORE:    0.00 PKD
ROOT
HETATM    1  C   UNL     1      -5.582  19.593  69.385  1.00  0.00    -0.243 C  
HETATM    2  C   UNL     1      -6.793  18.884  68.856  1.00  0.00    -0.329 A  
HETATM    3  C   UNL     1      -6.715  17.551  68.438  1.00  0.00    -0.193 A  
HETATM    4  C   UNL     1      -7.825  16.923  67.870  1.00  0.00    -0.180 A  
HETATM    5  C   UNL     1      -9.026  17.628  67.733  1.00  0.00    -0.247 A  
HETATM    6  C   UNL     1      -9.123  18.950  68.170  1.00  0.00    -0.351 A  
HETATM    7  C   UNL     1      -8.008  19.574  68.731  1.00  0.00    -0.362 A  
ENDROOT
BRANCH   5   8
HETATM    8  S   UNL     1     -10.382  16.901  66.844  1.00  0.00    -0.280 S  
HETATM    9  O   UNL     1     -10.481  17.601  65.579  1.00  0.00    -0.636 OA 
HETATM   10  O   UNL     1     -11.512  16.798  67.739  1.00  0.00    -0.024 OA 
BRANCH   8  11
HETATM   11  N   UNL     1      -9.862  15.362  66.549  1.00  0.00    -0.258 N  
HETATM   12  H   UNL     1      -8.904  15.157  66.837  1.00  0.00     0.000 HD 
BRANCH  11  13
HETATM   13  C   UNL     1     -10.553  14.305  65.961  1.00  0.00    -0.300 C  
HETATM   14  O   UNL     1     -11.301  14.548  65.023  1.00  0.00    -0.342 OA 
BRANCH  13  15
HETATM   15  N   UNL     1     -10.288  13.056  66.475  1.00  0.00    -0.269 N  
HETATM   16  H   UNL     1     -10.976  12.640  67.102  1.00  0.00     0.000 HD 
BRANCH  15  17
HETATM   17  N   UNL     1      -9.124  12.319  66.186  1.00  0.00    -0.137 NA 
HETATM   18  C   UNL     1      -8.300  12.073  67.387  1.00  0.00    -0.171 C  
HETATM   19  C   UNL     1      -8.665  10.688  67.938  1.00  0.00    -0.127 C  
HETATM   20  C   UNL     1      -9.418  10.705  69.265  1.00  0.00    -0.152 C  
HETATM   21  C   UNL     1     -10.871  10.914  68.884  1.00  0.00    -0.262 C  
HETATM   22  C   UNL     1     -11.026  10.125  67.589  1.00  0.00    -0.331 C  
HETATM   23  C   UNL     1      -9.640  10.090  66.921  1.00  0.00    -0.219 C  
HETATM   24  C   UNL     1      -9.468  10.974  65.689  1.00  0.00    -0.217 C  
ENDBRANCH  15  17
ENDBRANCH  13  15
ENDBRANCH  11  13
ENDBRANCH   8  11
ENDBRANCH   5   8
TORSDOF 5
ENDMDL
MODEL      180
REMARK 921   NORMALIZED FREE ENERGY PREDICTED BY IDOCK:   -4.15 KCAL/MOL
REMARK 922        TOTAL FREE ENERGY PREDICTED BY IDOCK:   -6.14 KCAL/MOL
REMARK 923 INTER-LIGAND FREE ENERGY PREDICTED BY IDOCK:   -5.38 KCAL/MOL
REMARK 924 INTRA-LIGAND FREE ENERGY PREDICTED BY IDOCK:   -0.75 KCAL/MOL
REMARK 927      BINDING AFFINITY PREDICTED BY RF-SCORE:    0.00 PKD
ROOT
HETATM    1  C   UNL     1     -12.244  12.929  63.230  1.00  0.00    -0.481 C  
HETATM    2  C   UNL     1     -11.705  12.427  64.536  1.00  0.00    -0.427 A  
HETATM    3  C   UNL     1     -10.769  11.387  64.571  1.00  0.00    -0.391 A  
HETATM    4  C   UNL     1     -10.334  10.870  65.792  1.00  0.00    -0.303 A  
HETATM    5  C   UNL     1     -10.828  11.404  66.988  1.00  0.00    -0.282 A  
HETATM    6  C   UNL     1     -11.743  12.458  66.966  1.00  0.00    -0.423 A  
HETATM    7  C   UNL     1     -12.178  12.967  65.742  1.00  0.00    -0.511 A  
ENDROOT
BRANCH   5   8
HETATM    8  S   UNL     1     -10.425  10.629  68.536  1.00  0.00    -0.205 S  
HETATM    9  O   UNL     1     -10.998  11.454  69.581  1.00  0.00    -0.207 OA 
HETATM   10  O   UNL     1      -9.020  10.292  68.526  1.00  0.00    -0.124 OA 
BRANCH   8  11
HETATM   11  N   UNL     1     -11.261   9.207  68.476  1.00  0.00    -0.396 N  
HETATM   12  H   UNL     1     -12.272   9.283  68.590  1.00  0.00     0.000 HD 
BRANCH  11  13
HETATM   13  C   UNL     1     -10.772   7.914  68.293  1.00  0.00    -0.031 C  
HETATM   14  O   UNL     1     -11.076   7.317  67.269  1.00  0.00    -0.258 OA 
BRANCH  13  15
HETATM   15  N   UNL     1      -9.940   7.443  69.282  1.00  0.00    -0.169 N  
HETATM   16  H   UNL     1     -10.295   7.424  70.238  1.00  0.00     0.000 HD 
BRANCH  15  17
HETATM   17  N   UNL     1      -8.628   6.986  69.053  1.00  0.00    -0.129 NA 
HETATM   18  C   UNL     1      -7.785   7.062  70.264  1.00  0.00    -0.099 C  
HETATM   19  C   UNL     1      -7.811   5.689  70.949  1.00  0.00    -0.105 C  
HETATM   20  C   UNL     1      -8.564   5.649  72.275  1.00  0.00    -0.129 C  
HETATM   21  C   UNL     1     -10.019   5.462  71.891  1.00  0.00    -0.233 C  
HETATM   22  C   UNL     1      -9.961   4.540  70.678  1.00  0.00    -0.273 C  
HETATM   23  C   UNL     1      -8.599   4.779  70.004  1.00  0.00    -0.102 C  
HETATM   24  C   UNL     1      -8.630   5.556  68.691  1.00  0.00    -0.103 C  
ENDBRANCH  15  17
ENDBRANCH  13  15
ENDBRANCH  11  13
ENDBRANCH   8  11
ENDBRANCH   5   8
TORSDOF 5
ENDMDL
MODEL      181
REMARK 921   NORMALIZED FREE ENERGY PREDICTED BY IDOCK:   -4.14 KCAL/MOL
REMARK 922        TOTAL FREE ENERGY PREDICTED BY IDOCK:   -6.13 KCAL/MOL
REMARK 923 INTER-LIGAND FREE ENERGY PREDICTED BY IDOCK:   -5.09 KCAL/MOL
REMARK 924 INTRA-LIGAND FREE ENERGY PREDICTED BY IDOCK:   -1.04 KCAL/MOL
REMARK 927      BINDING AFFINITY PREDICTED BY RF-SCORE:    0.00 PKD
ROOT
HETATM    1  C   UNL     1      -5.732  20.342  71.205  1.00  0.00    -0.339 C  
HETATM    2  C   UNL     1      -5.948  19.271  70.178  1.00  0.00    -0.265 A  
HETATM    3  C   UNL     1      -6.878  19.446  69.146  1.00  0.00    -0.374 A  
HETATM    4  C   UNL     1      -7.133  18.414  68.244  1.00  0.00    -0.269 A  
HETATM    5  C   UNL     1      -6.443  17.201  68.362  1.00  0.00    -0.158 A  
HETATM    6  C   UNL     1      -5.495  17.024  69.370  1.00  0.00    -0.155 A  
HETATM    7  C   UNL     1      -5.249  18.058  70.275  1.00  0.00    -0.243 A  
ENDROOT
BRANCH   5   8
HETATM    8  S   UNL     1      -6.896  15.822  67.337  1.00  0.00    -0.192 S  
HETATM    9  O   UNL     1      -5.663  15.233  66.854  1.00  0.00     0.049 OA 
HETATM   10  O   UNL     1      -7.934  16.250  66.427  1.00  0.00    -0.290 OA 
BRANCH   8  11
HETATM   11  N   UNL     1      -7.595  14.771  68.401  1.00  0.00    -0.110 N  
HETATM   12  H   UNL     1      -7.421  14.962  69.389  1.00  0.00     0.000 HD 
BRANCH  11  13
HETATM   13  C   UNL     1      -8.391  13.658  68.134  1.00  0.00    -0.166 C  
HETATM   14  O   UNL     1      -7.939  12.780  67.412  1.00  0.00    -0.165 OA 
BRANCH  13  15
HETATM   15  N   UNL     1      -9.616  13.635  68.759  1.00  0.00    -0.408 N  
HETATM   16  H   UNL     1      -9.637  13.706  69.776  1.00  0.00     0.000 HD 
BRANCH  15  17
HETATM   17  N   UNL     1     -10.843  13.517  68.077  1.00  0.00    -0.244 NA 
HETATM   18  C   UNL     1     -12.003  13.614  68.985  1.00  0.00    -0.353 C  
HETATM   19  C   UNL     1     -12.494  15.068  68.977  1.00  0.00     0.072 C  
HETATM   20  C   UNL     1     -12.251  15.834  70.274  1.00  0.00    -0.367 C  
HETATM   21  C   UNL     1     -10.823  16.336  70.166  1.00  0.00    -0.299 C  
HETATM   22  C   UNL     1     -10.667  16.678  68.689  1.00  0.00    -0.349 C  
HETATM   23  C   UNL     1     -11.646  15.776  67.918  1.00  0.00    -0.153 C  
HETATM   24  C   UNL     1     -11.020  14.631  67.127  1.00  0.00    -0.316 C  
ENDBRANCH  15  17
ENDBRANCH  13  15
ENDBRANCH  11  13
ENDBRANCH   8  11
ENDBRANCH   5   8
TORSDOF 5
ENDMDL
MODEL      182
REMARK 921   NORMALIZED FREE ENERGY PREDICTED BY IDOCK:   -4.14 KCAL/MOL
REMARK 922        TOTAL FREE ENERGY PREDICTED BY IDOCK:   -6.13 KCAL/MOL
REMARK 923 INTER-LIGAND FREE ENERGY PREDICTED BY IDOCK:   -5.63 KCAL/MOL
REMARK 924 INTRA-LIGAND FREE ENERGY PREDICTED BY IDOCK:   -0.50 KCAL/MOL
REMARK 927      BINDING AFFINITY PREDICTED BY RF-SCORE:    0.00 PKD
ROOT
HETATM    1  C   UNL     1      -9.658   4.143  67.414  1.00  0.00    -0.222 C  
HETATM    2  C   UNL     1      -9.707   5.306  68.361  1.00  0.00    -0.189 A  
HETATM    3  C   UNL     1     -10.902   5.659  68.997  1.00  0.00    -0.251 A  
HETATM    4  C   UNL     1     -10.961   6.790  69.812  1.00  0.00    -0.345 A  
HETATM    5  C   UNL     1      -9.812   7.567  70.004  1.00  0.00    -0.180 A  
HETATM    6  C   UNL     1      -8.608   7.211  69.395  1.00  0.00    -0.134 A  
HETATM    7  C   UNL     1      -8.558   6.081  68.576  1.00  0.00    -0.111 A  
ENDROOT
BRANCH   5   8
HETATM    8  S   UNL     1      -9.923   9.107  70.883  1.00  0.00    -0.303 S  
HETATM    9  O   UNL     1      -9.231   8.924  72.143  1.00  0.00    -0.364 OA 
HETATM   10  O   UNL     1     -11.293   9.563  70.835  1.00  0.00    -0.285 OA 
BRANCH   8  11
HETATM   11  N   UNL     1      -9.040  10.142  69.948  1.00  0.00    -0.390 N  
HETATM   12  H   UNL     1      -8.085  10.318  70.265  1.00  0.00     0.000 HD 
BRANCH  11  13
HETATM   13  C   UNL     1      -9.421  10.810  68.786  1.00  0.00    -0.182 C  
HETATM   14  O   UNL     1      -9.771  10.143  67.821  1.00  0.00    -0.150 OA 
BRANCH  13  15
HETATM   15  N   UNL     1      -9.410  12.184  68.853  1.00  0.00    -0.393 N  
HETATM   16  H   UNL     1      -9.865  12.629  69.650  1.00  0.00     0.000 HD 
BRANCH  15  17
HETATM   17  N   UNL     1      -8.808  13.013  67.887  1.00  0.00    -0.183 NA 
HETATM   18  C   UNL     1      -9.714  13.314  66.760  1.00  0.00    -0.258 C  
HETATM   19  C   UNL     1     -10.392  14.661  67.041  1.00  0.00    -0.263 C  
HETATM   20  C   UNL     1     -11.883  14.575  67.355  1.00  0.00    -0.416 C  
HETATM   21  C   UNL     1     -11.949  14.255  68.836  1.00  0.00    -0.356 C  
HETATM   22  C   UNL     1     -10.785  15.039  69.431  1.00  0.00    -0.267 C  
HETATM   23  C   UNL     1      -9.734  15.188  68.318  1.00  0.00    -0.219 C  
HETATM   24  C   UNL     1      -8.480  14.330  68.462  1.00  0.00    -0.164 C  
ENDBRANCH  15  17
ENDBRANCH  13  15
ENDBRANCH  11  13
ENDBRANCH   8  11
ENDBRANCH   5   8
TORSDOF 5
ENDMDL
MODEL      183
REMARK 921   NORMALIZED FREE ENERGY PREDICTED BY IDOCK:   -4.14 KCAL/MOL
REMARK 922        TOTAL FREE ENERGY PREDICTED BY IDOCK:   -6.12 KCAL/MOL
REMARK 923 INTER-LIGAND FREE ENERGY PREDICTED BY IDOCK:   -5.43 KCAL/MOL
REMARK 924 INTRA-LIGAND FREE ENERGY PREDICTED BY IDOCK:   -0.70 KCAL/MOL
REMARK 927      BINDING AFFINITY PREDICTED BY RF-SCORE:    0.00 PKD
ROOT
HETATM    1  C   UNL     1      -5.850  10.886  66.327  1.00  0.00    -0.139 C  
HETATM    2  C   UNL     1      -7.245  11.123  66.825  1.00  0.00    -0.146 A  
HETATM    3  C   UNL     1      -8.302  10.307  66.406  1.00  0.00    -0.132 A  
HETATM    4  C   UNL     1      -9.609  10.583  66.808  1.00  0.00    -0.205 A  
HETATM    5  C   UNL     1      -9.862  11.674  67.647  1.00  0.00    -0.186 A  
HETATM    6  C   UNL     1      -8.813  12.480  68.092  1.00  0.00    -0.191 A  
HETATM    7  C   UNL     1      -7.508  12.202  67.681  1.00  0.00    -0.129 A  
ENDROOT
BRANCH   5   8
HETATM    8  S   UNL     1     -11.537  12.143  68.009  1.00  0.00    -0.349 S  
HETATM    9  O   UNL     1     -12.261  12.124  66.754  1.00  0.00    -0.553 OA 
HETATM   10  O   UNL     1     -11.510  13.320  68.847  1.00  0.00    -0.258 OA 
BRANCH   8  11
HETATM   11  N   UNL     1     -12.085  10.900  68.947  1.00  0.00    -0.476 N  
HETATM   12  H   UNL     1     -12.645  10.196  68.464  1.00  0.00     0.000 HD 
BRANCH  11  13
HETATM   13  C   UNL     1     -11.886  10.680  70.309  1.00  0.00    -0.342 C  
HETATM   14  O   UNL     1     -12.368  11.477  71.103  1.00  0.00    -0.346 OA 
BRANCH  13  15
HETATM   15  N   UNL     1     -11.190   9.540  70.636  1.00  0.00    -0.278 N  
HETATM   16  H   UNL     1     -11.530   8.978  71.417  1.00  0.00     0.000 HD 
BRANCH  15  17
HETATM   17  N   UNL     1     -10.037   9.102  69.958  1.00  0.00    -0.194 NA 
HETATM   18  C   UNL     1      -8.801   9.356  70.725  1.00  0.00    -0.171 C  
HETATM   19  C   UNL     1      -8.451   8.079  71.501  1.00  0.00    -0.147 C  
HETATM   20  C   UNL     1      -8.626   8.180  73.013  1.00  0.00    -0.284 C  
HETATM   21  C   UNL     1     -10.098   7.898  73.253  1.00  0.00    -0.313 C  
HETATM   22  C   UNL     1     -10.439   6.835  72.216  1.00  0.00    -0.233 C  
HETATM   23  C   UNL     1      -9.467   7.033  71.040  1.00  0.00    -0.159 C  
HETATM   24  C   UNL     1     -10.065   7.639  69.773  1.00  0.00    -0.196 C  
ENDBRANCH  15  17
ENDBRANCH  13  15
ENDBRANCH  11  13
ENDBRANCH   8  11
ENDBRANCH   5   8
TORSDOF 5
ENDMDL
MODEL      184
REMARK 921   NORMALIZED FREE ENERGY PREDICTED BY IDOCK:   -4.13 KCAL/MOL
REMARK 922        TOTAL FREE ENERGY PREDICTED BY IDOCK:   -6.12 KCAL/MOL
REMARK 923 INTER-LIGAND FREE ENERGY PREDICTED BY IDOCK:   -4.95 KCAL/MOL
REMARK 924 INTRA-LIGAND FREE ENERGY PREDICTED BY IDOCK:   -1.17 KCAL/MOL
REMARK 927      BINDING AFFINITY PREDICTED BY RF-SCORE:    0.00 PKD
ROOT
HETATM    1  C   UNL     1     -14.410   8.253  71.395  1.00  0.00    -0.461 C  
HETATM    2  C   UNL     1     -12.954   8.063  71.700  1.00  0.00    -0.351 A  
HETATM    3  C   UNL     1     -12.101   9.165  71.828  1.00  0.00    -0.446 A  
HETATM    4  C   UNL     1     -10.733   8.979  72.029  1.00  0.00    -0.333 A  
HETATM    5  C   UNL     1     -10.214   7.682  72.118  1.00  0.00    -0.207 A  
HETATM    6  C   UNL     1     -11.059   6.575  72.018  1.00  0.00    -0.296 A  
HETATM    7  C   UNL     1     -12.426   6.768  71.810  1.00  0.00    -0.394 A  
ENDROOT
BRANCH   5   8
HETATM    8  S   UNL     1      -8.456   7.434  72.185  1.00  0.00    -0.111 S  
HETATM    9  O   UNL     1      -8.211   6.421  73.192  1.00  0.00    -0.115 OA 
HETATM   10  O   UNL     1      -7.815   8.728  72.245  1.00  0.00    -0.343 OA 
BRANCH   8  11
HETATM   11  N   UNL     1      -8.106   6.794  70.704  1.00  0.00    -0.117 N  
HETATM   12  H   UNL     1      -8.671   5.992  70.425  1.00  0.00     0.000 HD 
BRANCH  11  13
HETATM   13  C   UNL     1      -7.143   7.202  69.783  1.00  0.00    -0.073 C  
HETATM   14  O   UNL     1      -5.979   6.875  69.975  1.00  0.00    -0.023 OA 
BRANCH  13  15
HETATM   15  N   UNL     1      -7.611   7.910  68.700  1.00  0.00    -0.099 N  
HETATM   16  H   UNL     1      -8.173   8.742  68.878  1.00  0.00     0.000 HD 
BRANCH  15  17
HETATM   17  N   UNL     1      -7.362   7.553  67.361  1.00  0.00    -0.096 NA 
HETATM   18  C   UNL     1      -7.829   6.188  67.045  1.00  0.00    -0.101 C  
HETATM   19  C   UNL     1      -9.231   6.295  66.430  1.00  0.00    -0.173 C  
HETATM   20  C   UNL     1     -10.359   5.767  67.310  1.00  0.00    -0.284 C  
HETATM   21  C   UNL     1     -10.700   6.919  68.236  1.00  0.00    -0.265 C  
HETATM   22  C   UNL     1     -10.530   8.154  67.360  1.00  0.00    -0.356 C  
HETATM   23  C   UNL     1      -9.495   7.795  66.280  1.00  0.00    -0.201 C  
HETATM   24  C   UNL     1      -8.114   8.426  66.440  1.00  0.00    -0.104 C  
ENDBRANCH  15  17
ENDBRANCH  13  15
ENDBRANCH  11  13
ENDBRANCH   8  11
ENDBRANCH   5   8
TORSDOF 5
ENDMDL
MODEL      185
REMARK 921   NORMALIZED FREE ENERGY PREDICTED BY IDOCK:   -4.13 KCAL/MOL
REMARK 922        TOTAL FREE ENERGY PREDICTED BY IDOCK:   -6.12 KCAL/MOL
REMARK 923 INTER-LIGAND FREE ENERGY PREDICTED BY IDOCK:   -5.04 KCAL/MOL
REMARK 924 INTRA-LIGAND FREE ENERGY PREDICTED BY IDOCK:   -1.08 KCAL/MOL
REMARK 927      BINDING AFFINITY PREDICTED BY RF-SCORE:    0.00 PKD
ROOT
HETATM    1  C   UNL     1      -5.312  15.091  68.064  1.00  0.00    -0.131 C  
HETATM    2  C   UNL     1      -6.713  14.614  68.304  1.00  0.00    -0.115 A  
HETATM    3  C   UNL     1      -7.272  13.607  67.509  1.00  0.00    -0.169 A  
HETATM    4  C   UNL     1      -8.602  13.226  67.684  1.00  0.00    -0.196 A  
HETATM    5  C   UNL     1      -9.378  13.846  68.671  1.00  0.00    -0.106 A  
HETATM    6  C   UNL     1      -8.825  14.834  69.486  1.00  0.00     0.115 A  
HETATM    7  C   UNL     1      -7.495  15.215  69.302  1.00  0.00    -0.193 A  
ENDROOT
BRANCH   5   8
HETATM    8  S   UNL     1     -11.119  13.502  68.774  1.00  0.00    -0.274 S  
HETATM    9  O   UNL     1     -11.743  14.666  69.370  1.00  0.00    -0.281 OA 
HETATM   10  O   UNL     1     -11.291  12.183  69.337  1.00  0.00    -0.264 OA 
BRANCH   8  11
HETATM   11  N   UNL     1     -11.583  13.413  67.192  1.00  0.00    -0.338 N  
HETATM   12  H   UNL     1     -11.735  12.471  66.829  1.00  0.00     0.000 HD 
BRANCH  11  13
HETATM   13  C   UNL     1     -11.794  14.450  66.285  1.00  0.00    -0.379 C  
HETATM   14  O   UNL     1     -12.650  14.303  65.423  1.00  0.00    -0.460 OA 
BRANCH  13  15
HETATM   15  N   UNL     1     -11.034  15.580  66.480  1.00  0.00    -0.287 N  
HETATM   16  H   UNL     1     -10.965  15.954  67.426  1.00  0.00     0.000 HD 
BRANCH  15  17
HETATM   17  N   UNL     1     -10.347  16.252  65.451  1.00  0.00    -0.567 NA 
HETATM   18  C   UNL     1     -10.918  17.583  65.167  1.00  0.00     0.314 C  
HETATM   19  C   UNL     1     -10.115  18.625  65.958  1.00  0.00    -0.326 C  
HETATM   20  C   UNL     1     -10.871  19.274  67.113  1.00  0.00    -0.543 C  
HETATM   21  C   UNL     1     -10.718  18.306  68.271  1.00  0.00    -0.146 C  
HETATM   22  C   UNL     1      -9.305  17.759  68.104  1.00  0.00    -0.281 C  
HETATM   23  C   UNL     1      -8.968  17.846  66.606  1.00  0.00    -0.282 C  
HETATM   24  C   UNL     1      -8.952  16.522  65.846  1.00  0.00    -0.130 C  
ENDBRANCH  15  17
ENDBRANCH  13  15
ENDBRANCH  11  13
ENDBRANCH   8  11
ENDBRANCH   5   8
TORSDOF 5
ENDMDL
MODEL      186
REMARK 921   NORMALIZED FREE ENERGY PREDICTED BY IDOCK:   -4.13 KCAL/MOL
REMARK 922        TOTAL FREE ENERGY PREDICTED BY IDOCK:   -6.11 KCAL/MOL
REMARK 923 INTER-LIGAND FREE ENERGY PREDICTED BY IDOCK:   -4.95 KCAL/MOL
REMARK 924 INTRA-LIGAND FREE ENERGY PREDICTED BY IDOCK:   -1.16 KCAL/MOL
REMARK 927      BINDING AFFINITY PREDICTED BY RF-SCORE:    0.00 PKD
ROOT
HETATM    1  C   UNL     1     -12.644  14.311  65.899  1.00  0.00    -0.376 C  
HETATM    2  C   UNL     1     -11.668  13.280  65.415  1.00  0.00    -0.370 A  
HETATM    3  C   UNL     1     -12.037  12.353  64.433  1.00  0.00    -0.505 A  
HETATM    4  C   UNL     1     -11.153  11.345  64.047  1.00  0.00    -0.400 A  
HETATM    5  C   UNL     1      -9.885  11.270  64.636  1.00  0.00    -0.268 A  
HETATM    6  C   UNL     1      -9.497  12.204  65.598  1.00  0.00    -0.117 A  
HETATM    7  C   UNL     1     -10.388  13.206  65.984  1.00  0.00    -0.292 A  
ENDROOT
BRANCH   5   8
HETATM    8  S   UNL     1      -8.828   9.884  64.289  1.00  0.00    -0.243 S  
HETATM    9  O   UNL     1      -7.520  10.208  64.821  1.00  0.00    -0.141 OA 
HETATM   10  O   UNL     1      -9.009   9.508  62.906  1.00  0.00    -0.242 OA 
BRANCH   8  11
HETATM   11  N   UNL     1      -9.478   8.673  65.204  1.00  0.00    -0.355 N  
HETATM   12  H   UNL     1     -10.497   8.624  65.212  1.00  0.00     0.000 HD 
BRANCH  11  13
HETATM   13  C   UNL     1      -8.822   7.709  65.968  1.00  0.00    -0.155 C  
HETATM   14  O   UNL     1      -7.918   7.070  65.448  1.00  0.00    -0.114 OA 
BRANCH  13  15
HETATM   15  N   UNL     1      -9.236   7.599  67.276  1.00  0.00    -0.129 N  
HETATM   16  H   UNL     1     -10.219   7.395  67.452  1.00  0.00     0.000 HD 
BRANCH  15  17
HETATM   17  N   UNL     1      -8.382   7.752  68.385  1.00  0.00    -0.124 NA 
HETATM   18  C   UNL     1      -7.910   9.142  68.546  1.00  0.00    -0.101 C  
HETATM   19  C   UNL     1      -8.832   9.845  69.552  1.00  0.00    -0.208 C  
HETATM   20  C   UNL     1      -9.736  10.917  68.953  1.00  0.00    -0.198 C  
HETATM   21  C   UNL     1     -10.935  10.159  68.415  1.00  0.00    -0.293 C  
HETATM   22  C   UNL     1     -11.146   9.042  69.431  1.00  0.00    -0.000 C  
HETATM   23  C   UNL     1      -9.775   8.755  70.067  1.00  0.00    -0.182 C  
HETATM   24  C   UNL     1      -9.098   7.455  69.640  1.00  0.00    -0.140 C  
ENDBRANCH  15  17
ENDBRANCH  13  15
ENDBRANCH  11  13
ENDBRANCH   8  11
ENDBRANCH   5   8
TORSDOF 5
ENDMDL
MODEL      187
REMARK 921   NORMALIZED FREE ENERGY PREDICTED BY IDOCK:   -4.10 KCAL/MOL
REMARK 922        TOTAL FREE ENERGY PREDICTED BY IDOCK:   -6.08 KCAL/MOL
REMARK 923 INTER-LIGAND FREE ENERGY PREDICTED BY IDOCK:   -5.03 KCAL/MOL
REMARK 924 INTRA-LIGAND FREE ENERGY PREDICTED BY IDOCK:   -1.05 KCAL/MOL
REMARK 927      BINDING AFFINITY PREDICTED BY RF-SCORE:    0.00 PKD
ROOT
HETATM    1  C   UNL     1      -5.715  13.294  68.717  1.00  0.00    -0.074 C  
HETATM    2  C   UNL     1      -6.899  12.400  68.502  1.00  0.00    -0.082 A  
HETATM    3  C   UNL     1      -7.000  11.173  69.170  1.00  0.00    -0.108 A  
HETATM    4  C   UNL     1      -8.062  10.310  68.903  1.00  0.00    -0.123 A  
HETATM    5  C   UNL     1      -9.040  10.679  67.973  1.00  0.00    -0.147 A  
HETATM    6  C   UNL     1      -8.965  11.910  67.319  1.00  0.00    -0.176 A  
HETATM    7  C   UNL     1      -7.896  12.767  67.586  1.00  0.00    -0.165 A  
ENDROOT
BRANCH   5   8
HETATM    8  S   UNL     1     -10.289   9.510  67.490  1.00  0.00    -0.263 S  
HETATM    9  O   UNL     1     -10.241   9.415  66.045  1.00  0.00    -0.269 OA 
HETATM   10  O   UNL     1     -11.513   9.837  68.184  1.00  0.00    -0.002 OA 
BRANCH   8  11
HETATM   11  N   UNL     1      -9.742   8.087  68.125  1.00  0.00    -0.156 N  
HETATM   12  H   UNL     1      -8.733   8.024  68.263  1.00  0.00     0.000 HD 
BRANCH  11  13
HETATM   13  C   UNL     1     -10.473   6.960  68.499  1.00  0.00    -0.203 C  
HETATM   14  O   UNL     1     -11.197   6.433  67.664  1.00  0.00    -0.337 OA 
BRANCH  13  15
HETATM   15  N   UNL     1     -10.271   6.515  69.785  1.00  0.00    -0.181 N  
HETATM   16  H   UNL     1      -9.313   6.471  70.131  1.00  0.00     0.000 HD 
BRANCH  15  17
HETATM   17  N   UNL     1     -11.308   6.117  70.650  1.00  0.00    -0.324 NA 
HETATM   18  C   UNL     1     -10.820   5.808  72.009  1.00  0.00    -0.251 C  
HETATM   19  C   UNL     1     -10.999   7.062  72.876  1.00  0.00    -0.337 C  
HETATM   20  C   UNL     1      -9.700   7.752  73.280  1.00  0.00    -0.357 C  
HETATM   21  C   UNL     1      -9.351   8.641  72.101  1.00  0.00    -0.343 C  
HETATM   22  C   UNL     1     -10.704   9.137  71.604  1.00  0.00    -0.441 C  
HETATM   23  C   UNL     1     -11.738   8.066  71.989  1.00  0.00    -0.375 C  
HETATM   24  C   UNL     1     -12.276   7.213  70.843  1.00  0.00    -0.312 C  
ENDBRANCH  15  17
ENDBRANCH  13  15
ENDBRANCH  11  13
ENDBRANCH   8  11
ENDBRANCH   5   8
TORSDOF 5
ENDMDL
MODEL      188
REMARK 921   NORMALIZED FREE ENERGY PREDICTED BY IDOCK:   -4.10 KCAL/MOL
REMARK 922        TOTAL FREE ENERGY PREDICTED BY IDOCK:   -6.08 KCAL/MOL
REMARK 923 INTER-LIGAND FREE ENERGY PREDICTED BY IDOCK:   -5.34 KCAL/MOL
REMARK 924 INTRA-LIGAND FREE ENERGY PREDICTED BY IDOCK:   -0.74 KCAL/MOL
REMARK 927      BINDING AFFINITY PREDICTED BY RF-SCORE:    0.00 PKD
ROOT
HETATM    1  C   UNL     1     -13.398  12.983  72.216  1.00  0.00    -0.606 C  
HETATM    2  C   UNL     1     -12.837  11.783  71.512  1.00  0.00    -0.450 A  
HETATM    3  C   UNL     1     -12.947  10.506  72.075  1.00  0.00    -0.490 A  
HETATM    4  C   UNL     1     -12.352   9.408  71.456  1.00  0.00    -0.452 A  
HETATM    5  C   UNL     1     -11.652   9.582  70.256  1.00  0.00    -0.169 A  
HETATM    6  C   UNL     1     -11.557  10.846  69.671  1.00  0.00    -0.394 A  
HETATM    7  C   UNL     1     -12.150  11.942  70.299  1.00  0.00    -0.409 A  
ENDROOT
BRANCH   5   8
HETATM    8  S   UNL     1     -10.735   8.227  69.561  1.00  0.00    -0.120 S  
HETATM    9  O   UNL     1     -11.502   7.025  69.816  1.00  0.00    -0.217 OA 
HETATM   10  O   UNL     1      -9.358   8.347  69.980  1.00  0.00    -0.157 OA 
BRANCH   8  11
HETATM   11  N   UNL     1     -10.772   8.536  67.940  1.00  0.00    -0.461 N  
HETATM   12  H   UNL     1     -11.634   8.955  67.589  1.00  0.00     0.000 HD 
BRANCH  11  13
HETATM   13  C   UNL     1      -9.784   8.301  66.984  1.00  0.00    -0.211 C  
HETATM   14  O   UNL     1      -9.384   9.246  66.317  1.00  0.00    -0.168 OA 
BRANCH  13  15
HETATM   15  N   UNL     1      -9.314   7.010  66.914  1.00  0.00    -0.147 N  
HETATM   16  H   UNL     1      -9.904   6.309  66.466  1.00  0.00     0.000 HD 
BRANCH  15  17
HETATM   17  N   UNL     1      -8.068   6.599  67.424  1.00  0.00    -0.120 NA 
HETATM   18  C   UNL     1      -8.121   5.250  68.023  1.00  0.00    -0.099 C  
HETATM   19  C   UNL     1      -7.669   4.239  66.960  1.00  0.00    -0.092 C  
HETATM   20  C   UNL     1      -8.773   3.329  66.431  1.00  0.00    -0.129 C  
HETATM   21  C   UNL     1      -9.455   4.138  65.344  1.00  0.00    -0.173 C  
HETATM   22  C   UNL     1      -8.312   4.906  64.690  1.00  0.00    -0.134 C  
HETATM   23  C   UNL     1      -7.224   5.081  65.763  1.00  0.00    -0.072 C  
HETATM   24  C   UNL     1      -7.073   6.486  66.340  1.00  0.00    -0.068 C  
ENDBRANCH  15  17
ENDBRANCH  13  15
ENDBRANCH  11  13
ENDBRANCH   8  11
ENDBRANCH   5   8
TORSDOF 5
ENDMDL
MODEL      189
REMARK 921   NORMALIZED FREE ENERGY PREDICTED BY IDOCK:   -4.09 KCAL/MOL
REMARK 922        TOTAL FREE ENERGY PREDICTED BY IDOCK:   -6.07 KCAL/MOL
REMARK 923 INTER-LIGAND FREE ENERGY PREDICTED BY IDOCK:   -5.27 KCAL/MOL
REMARK 924 INTRA-LIGAND FREE ENERGY PREDICTED BY IDOCK:   -0.80 KCAL/MOL
REMARK 927      BINDING AFFINITY PREDICTED BY RF-SCORE:    0.00 PKD
ROOT
HETATM    1  C   UNL     1     -10.003   7.425  71.322  1.00  0.00    -0.194 C  
HETATM    2  C   UNL     1      -9.852   8.229  70.064  1.00  0.00    -0.182 A  
HETATM    3  C   UNL     1      -9.858   9.628  70.105  1.00  0.00    -0.310 A  
HETATM    4  C   UNL     1      -9.801  10.369  68.925  1.00  0.00    -0.206 A  
HETATM    5  C   UNL     1      -9.722   9.708  67.693  1.00  0.00    -0.149 A  
HETATM    6  C   UNL     1      -9.690   8.314  67.641  1.00  0.00    -0.201 A  
HETATM    7  C   UNL     1      -9.754   7.578  68.826  1.00  0.00    -0.151 A  
ENDROOT
BRANCH   5   8
HETATM    8  S   UNL     1      -9.838  10.636  66.182  1.00  0.00    -0.227 S  
HETATM    9  O   UNL     1     -10.952  11.550  66.333  1.00  0.00    -0.282 OA 
HETATM   10  O   UNL     1      -9.766   9.712  65.073  1.00  0.00    -0.289 OA 
BRANCH   8  11
HETATM   11  N   UNL     1      -8.440  11.514  66.167  1.00  0.00    -0.343 N  
HETATM   12  H   UNL     1      -7.769  11.263  65.440  1.00  0.00     0.000 HD 
BRANCH  11  13
HETATM   13  C   UNL     1      -8.053  12.552  67.012  1.00  0.00    -0.105 C  
HETATM   14  O   UNL     1      -6.902  12.564  67.429  1.00  0.00    -0.137 OA 
BRANCH  13  15
HETATM   15  N   UNL     1      -9.010  13.507  67.266  1.00  0.00    -0.212 N  
HETATM   16  H   UNL     1      -9.537  13.437  68.137  1.00  0.00     0.000 HD 
BRANCH  15  17
HETATM   17  N   UNL     1      -9.306  14.573  66.396  1.00  0.00    -0.287 NA 
HETATM   18  C   UNL     1     -10.715  15.005  66.492  1.00  0.00    -0.312 C  
HETATM   19  C   UNL     1     -10.785  16.189  67.466  1.00  0.00    -0.304 C  
HETATM   20  C   UNL     1     -11.474  15.888  68.793  1.00  0.00    -0.393 C  
HETATM   21  C   UNL     1     -10.394  15.266  69.659  1.00  0.00    -0.271 C  
HETATM   22  C   UNL     1      -9.132  16.026  69.269  1.00  0.00    -0.235 C  
HETATM   23  C   UNL     1      -9.331  16.507  67.822  1.00  0.00    -0.210 C  
HETATM   24  C   UNL     1      -8.525  15.771  66.755  1.00  0.00    -0.269 C  
ENDBRANCH  15  17
ENDBRANCH  13  15
ENDBRANCH  11  13
ENDBRANCH   8  11
ENDBRANCH   5   8
TORSDOF 5
ENDMDL
MODEL      190
REMARK 921   NORMALIZED FREE ENERGY PREDICTED BY IDOCK:   -4.09 KCAL/MOL
REMARK 922        TOTAL FREE ENERGY PREDICTED BY IDOCK:   -6.06 KCAL/MOL
REMARK 923 INTER-LIGAND FREE ENERGY PREDICTED BY IDOCK:   -5.36 KCAL/MOL
REMARK 924 INTRA-LIGAND FREE ENERGY PREDICTED BY IDOCK:   -0.70 KCAL/MOL
REMARK 927      BINDING AFFINITY PREDICTED BY RF-SCORE:    0.00 PKD
ROOT
HETATM    1  C   UNL     1      -7.295   3.316  64.237  1.00  0.00    -0.063 C  
HETATM    2  C   UNL     1      -7.786   3.867  65.543  1.00  0.00    -0.085 A  
HETATM    3  C   UNL     1      -9.001   3.438  66.088  1.00  0.00    -0.145 A  
HETATM    4  C   UNL     1      -9.491   4.014  67.260  1.00  0.00    -0.229 A  
HETATM    5  C   UNL     1      -8.755   5.017  67.902  1.00  0.00    -0.103 A  
HETATM    6  C   UNL     1      -7.529   5.435  67.381  1.00  0.00    -0.084 A  
HETATM    7  C   UNL     1      -7.047   4.859  66.205  1.00  0.00    -0.072 A  
ENDROOT
BRANCH   5   8
HETATM    8  S   UNL     1      -9.457   5.884  69.284  1.00  0.00    -0.131 S  
HETATM    9  O   UNL     1      -8.357   6.497  70.001  1.00  0.00    -0.130 OA 
HETATM   10  O   UNL     1     -10.393   5.005  69.947  1.00  0.00    -0.279 OA 
BRANCH   8  11
HETATM   11  N   UNL     1     -10.345   7.080  68.571  1.00  0.00    -0.180 N  
HETATM   12  H   UNL     1     -11.043   6.768  67.895  1.00  0.00     0.000 HD 
BRANCH  11  13
HETATM   13  C   UNL     1     -10.271   8.458  68.768  1.00  0.00    -0.207 C  
HETATM   14  O   UNL     1      -9.311   9.060  68.307  1.00  0.00    -0.139 OA 
BRANCH  13  15
HETATM   15  N   UNL     1     -11.331   9.025  69.438  1.00  0.00    -0.423 N  
HETATM   16  H   UNL     1     -12.273   8.814  69.110  1.00  0.00     0.000 HD 
BRANCH  15  17
HETATM   17  N   UNL     1     -11.191   9.878  70.549  1.00  0.00    -0.305 NA 
HETATM   18  C   UNL     1     -12.493  10.287  71.112  1.00  0.00    -0.391 C  
HETATM   19  C   UNL     1     -12.828   9.341  72.274  1.00  0.00    -0.459 C  
HETATM   20  C   UNL     1     -13.987   8.386  72.008  1.00  0.00    -0.468 C  
HETATM   21  C   UNL     1     -13.366   7.219  71.263  1.00  0.00    -0.338 C  
HETATM   22  C   UNL     1     -11.993   7.065  71.907  1.00  0.00    -0.355 C  
HETATM   23  C   UNL     1     -11.594   8.452  72.441  1.00  0.00    -0.450 C  
HETATM   24  C   UNL     1     -10.508   9.184  71.657  1.00  0.00    -0.332 C  
ENDBRANCH  15  17
ENDBRANCH  13  15
ENDBRANCH  11  13
ENDBRANCH   8  11
ENDBRANCH   5   8
TORSDOF 5
ENDMDL
MODEL      191
REMARK 921   NORMALIZED FREE ENERGY PREDICTED BY IDOCK:   -4.09 KCAL/MOL
REMARK 922        TOTAL FREE ENERGY PREDICTED BY IDOCK:   -6.06 KCAL/MOL
REMARK 923 INTER-LIGAND FREE ENERGY PREDICTED BY IDOCK:   -5.55 KCAL/MOL
REMARK 924 INTRA-LIGAND FREE ENERGY PREDICTED BY IDOCK:   -0.51 KCAL/MOL
REMARK 927      BINDING AFFINITY PREDICTED BY RF-SCORE:    0.00 PKD
ROOT
HETATM    1  C   UNL     1     -11.150   5.599  73.173  1.00  0.00    -0.315 C  
HETATM    2  C   UNL     1     -10.519   6.514  72.167  1.00  0.00    -0.229 A  
HETATM    3  C   UNL     1      -9.805   7.646  72.578  1.00  0.00    -0.250 A  
HETATM    4  C   UNL     1      -9.292   8.537  71.636  1.00  0.00    -0.311 A  
HETATM    5  C   UNL     1      -9.481   8.290  70.271  1.00  0.00    -0.164 A  
HETATM    6  C   UNL     1     -10.170   7.153  69.848  1.00  0.00    -0.215 A  
HETATM    7  C   UNL     1     -10.686   6.268  70.796  1.00  0.00    -0.312 A  
ENDROOT
BRANCH   5   8
HETATM    8  S   UNL     1      -8.996   9.513  69.075  1.00  0.00    -0.150 S  
HETATM    9  O   UNL     1      -9.581   9.118  67.810  1.00  0.00    -0.142 OA 
HETATM   10  O   UNL     1      -7.577   9.746  69.210  1.00  0.00    -0.083 OA 
BRANCH   8  11
HETATM   11  N   UNL     1      -9.759  10.880  69.600  1.00  0.00    -0.403 N  
HETATM   12  H   UNL     1      -9.409  11.273  70.474  1.00  0.00     0.000 HD 
BRANCH  11  13
HETATM   13  C   UNL     1     -10.817  11.570  69.009  1.00  0.00    -0.212 C  
HETATM   14  O   UNL     1     -11.927  11.055  69.022  1.00  0.00    -0.337 OA 
BRANCH  13  15
HETATM   15  N   UNL     1     -10.511  12.810  68.498  1.00  0.00    -0.244 N  
HETATM   16  H   UNL     1     -10.146  13.516  69.138  1.00  0.00     0.000 HD 
BRANCH  15  17
HETATM   17  N   UNL     1     -10.672  13.163  67.144  1.00  0.00    -0.254 NA 
HETATM   18  C   UNL     1     -11.555  14.333  66.968  1.00  0.00    -0.386 C  
HETATM   19  C   UNL     1     -10.673  15.585  66.868  1.00  0.00    -0.317 C  
HETATM   20  C   UNL     1     -10.759  16.528  68.064  1.00  0.00    -0.343 C  
HETATM   21  C   UNL     1      -9.792  15.953  69.082  1.00  0.00    -0.247 C  
HETATM   22  C   UNL     1      -8.643  15.421  68.234  1.00  0.00    -0.158 C  
HETATM   23  C   UNL     1      -9.233  15.067  66.858  1.00  0.00    -0.265 C  
HETATM   24  C   UNL     1      -9.383  13.578  66.558  1.00  0.00    -0.215 C  
ENDBRANCH  15  17
ENDBRANCH  13  15
ENDBRANCH  11  13
ENDBRANCH   8  11
ENDBRANCH   5   8
TORSDOF 5
ENDMDL
MODEL      192
REMARK 921   NORMALIZED FREE ENERGY PREDICTED BY IDOCK:   -4.08 KCAL/MOL
REMARK 922        TOTAL FREE ENERGY PREDICTED BY IDOCK:   -6.05 KCAL/MOL
REMARK 923 INTER-LIGAND FREE ENERGY PREDICTED BY IDOCK:   -5.22 KCAL/MOL
REMARK 924 INTRA-LIGAND FREE ENERGY PREDICTED BY IDOCK:   -0.83 KCAL/MOL
REMARK 927      BINDING AFFINITY PREDICTED BY RF-SCORE:    0.00 PKD
ROOT
HETATM    1  C   UNL     1      -8.255   8.348  63.284  1.00  0.00    -0.119 C  
HETATM    2  C   UNL     1      -8.219   8.963  64.652  1.00  0.00    -0.163 A  
HETATM    3  C   UNL     1      -9.026   8.464  65.681  1.00  0.00    -0.183 A  
HETATM    4  C   UNL     1      -9.049   9.091  66.926  1.00  0.00    -0.161 A  
HETATM    5  C   UNL     1      -8.249  10.218  67.152  1.00  0.00    -0.121 A  
HETATM    6  C   UNL     1      -7.422  10.709  66.141  1.00  0.00    -0.138 A  
HETATM    7  C   UNL     1      -7.408  10.081  64.895  1.00  0.00    -0.140 A  
ENDROOT
BRANCH   5   8
HETATM    8  S   UNL     1      -8.413  11.131  68.667  1.00  0.00    -0.134 S  
HETATM    9  O   UNL     1      -7.894  12.460  68.416  1.00  0.00    -0.138 OA 
HETATM   10  O   UNL     1      -7.909  10.316  69.748  1.00  0.00    -0.162 OA 
BRANCH   8  11
HETATM   11  N   UNL     1     -10.048  11.240  68.870  1.00  0.00    -0.297 N  
HETATM   12  H   UNL     1     -10.441  10.652  69.606  1.00  0.00     0.000 HD 
BRANCH  11  13
HETATM   13  C   UNL     1     -10.964  12.025  68.172  1.00  0.00    -0.230 C  
HETATM   14  O   UNL     1     -11.973  11.491  67.733  1.00  0.00    -0.623 OA 
BRANCH  13  15
HETATM   15  N   UNL     1     -10.658  13.364  68.082  1.00  0.00    -0.238 N  
HETATM   16  H   UNL     1      -9.703  13.653  68.295  1.00  0.00     0.000 HD 
BRANCH  15  17
HETATM   17  N   UNL     1     -11.584  14.358  67.712  1.00  0.00    -0.338 NA 
HETATM   18  C   UNL     1     -11.486  15.563  68.561  1.00  0.00    -0.361 C  
HETATM   19  C   UNL     1     -10.583  16.577  67.845  1.00  0.00    -0.329 C  
HETATM   20  C   UNL     1      -9.227  16.806  68.506  1.00  0.00    -0.243 C  
HETATM   21  C   UNL     1      -8.348  15.685  67.984  1.00  0.00    -0.146 C  
HETATM   22  C   UNL     1      -8.806  15.502  66.542  1.00  0.00    -0.348 C  
HETATM   23  C   UNL     1     -10.275  15.954  66.482  1.00  0.00    -0.297 C  
HETATM   24  C   UNL     1     -11.312  14.842  66.346  1.00  0.00    -0.308 C  
ENDBRANCH  15  17
ENDBRANCH  13  15
ENDBRANCH  11  13
ENDBRANCH   8  11
ENDBRANCH   5   8
TORSDOF 5
ENDMDL
MODEL      193
REMARK 921   NORMALIZED FREE ENERGY PREDICTED BY IDOCK:   -4.06 KCAL/MOL
REMARK 922        TOTAL FREE ENERGY PREDICTED BY IDOCK:   -6.03 KCAL/MOL
REMARK 923 INTER-LIGAND FREE ENERGY PREDICTED BY IDOCK:   -5.67 KCAL/MOL
REMARK 924 INTRA-LIGAND FREE ENERGY PREDICTED BY IDOCK:   -0.36 KCAL/MOL
REMARK 927      BINDING AFFINITY PREDICTED BY RF-SCORE:    0.00 PKD
ROOT
HETATM    1  C   UNL     1     -12.246  13.018  63.446  1.00  0.00    -0.552 C  
HETATM    2  C   UNL     1     -11.427  12.190  64.391  1.00  0.00    -0.417 A  
HETATM    3  C   UNL     1     -10.406  11.360  63.914  1.00  0.00    -0.434 A  
HETATM    4  C   UNL     1      -9.704  10.530  64.788  1.00  0.00    -0.365 A  
HETATM    5  C   UNL     1     -10.013  10.540  66.153  1.00  0.00    -0.229 A  
HETATM    6  C   UNL     1     -11.012  11.382  66.645  1.00  0.00    -0.341 A  
HETATM    7  C   UNL     1     -11.716  12.205  65.763  1.00  0.00    -0.391 A  
ENDROOT
BRANCH   5   8
HETATM    8  S   UNL     1      -9.257   9.356  67.241  1.00  0.00    -0.131 S  
HETATM    9  O   UNL     1      -8.680  10.102  68.341  1.00  0.00    -0.118 OA 
HETATM   10  O   UNL     1      -8.462   8.449  66.446  1.00  0.00    -0.114 OA 
BRANCH   8  11
HETATM   11  N   UNL     1     -10.542   8.492  67.814  1.00  0.00    -0.414 N  
HETATM   12  H   UNL     1     -11.448   8.959  67.759  1.00  0.00     0.000 HD 
BRANCH  11  13
HETATM   13  C   UNL     1     -10.557   7.211  68.363  1.00  0.00    -0.186 C  
HETATM   14  O   UNL     1     -10.506   6.252  67.605  1.00  0.00    -0.170 OA 
BRANCH  13  15
HETATM   15  N   UNL     1     -10.583   7.149  69.738  1.00  0.00    -0.228 N  
HETATM   16  H   UNL     1     -10.255   7.962  70.260  1.00  0.00     0.000 HD 
BRANCH  15  17
HETATM   17  N   UNL     1     -11.035   6.032  70.465  1.00  0.00    -0.311 NA 
HETATM   18  C   UNL     1     -10.014   4.968  70.556  1.00  0.00    -0.242 C  
HETATM   19  C   UNL     1      -9.264   5.140  71.885  1.00  0.00    -0.160 C  
HETATM   20  C   UNL     1      -7.818   5.605  71.749  1.00  0.00    -0.109 C  
HETATM   21  C   UNL     1      -7.906   7.115  71.627  1.00  0.00    -0.097 C  
HETATM   22  C   UNL     1      -9.056   7.489  72.554  1.00  0.00    -0.189 C  
HETATM   23  C   UNL     1      -9.991   6.269  72.617  1.00  0.00    -0.183 C  
HETATM   24  C   UNL     1     -11.313   6.400  71.866  1.00  0.00    -0.293 C  
ENDBRANCH  15  17
ENDBRANCH  13  15
ENDBRANCH  11  13
ENDBRANCH   8  11
ENDBRANCH   5   8
TORSDOF 5
ENDMDL
MODEL      194
REMARK 921   NORMALIZED FREE ENERGY PREDICTED BY IDOCK:   -4.05 KCAL/MOL
REMARK 922        TOTAL FREE ENERGY PREDICTED BY IDOCK:   -6.02 KCAL/MOL
REMARK 923 INTER-LIGAND FREE ENERGY PREDICTED BY IDOCK:   -5.31 KCAL/MOL
REMARK 924 INTRA-LIGAND FREE ENERGY PREDICTED BY IDOCK:   -0.70 KCAL/MOL
REMARK 927      BINDING AFFINITY PREDICTED BY RF-SCORE:    0.00 PKD
ROOT
HETATM    1  C   UNL     1      -5.522  20.553  71.585  1.00  0.00    -0.276 C  
HETATM    2  C   UNL     1      -5.845  19.570  70.499  1.00  0.00    -0.260 A  
HETATM    3  C   UNL     1      -6.872  19.826  69.584  1.00  0.00    -0.310 A  
HETATM    4  C   UNL     1      -7.221  18.871  68.629  1.00  0.00    -0.333 A  
HETATM    5  C   UNL     1      -6.530  17.655  68.577  1.00  0.00    -0.196 A  
HETATM    6  C   UNL     1      -5.487  17.398  69.468  1.00  0.00    -0.193 A  
HETATM    7  C   UNL     1      -5.146  18.356  70.426  1.00  0.00    -0.238 A  
ENDROOT
BRANCH   5   8
HETATM    8  S   UNL     1      -7.089  16.364  67.493  1.00  0.00    -0.159 S  
HETATM    9  O   UNL     1      -5.919  15.852  66.808  1.00  0.00    -0.223 OA 
HETATM   10  O   UNL     1      -8.239  16.847  66.763  1.00  0.00    -0.197 OA 
BRANCH   8  11
HETATM   11  N   UNL     1      -7.634  15.204  68.533  1.00  0.00    -0.115 N  
HETATM   12  H   UNL     1      -7.371  15.329  69.512  1.00  0.00     0.000 HD 
BRANCH  11  13
HETATM   13  C   UNL     1      -8.405  14.076  68.257  1.00  0.00    -0.162 C  
HETATM   14  O   UNL     1      -7.953  13.235  67.491  1.00  0.00    -0.161 OA 
BRANCH  13  15
HETATM   15  N   UNL     1      -9.607  13.994  68.922  1.00  0.00    -0.399 N  
HETATM   16  H   UNL     1      -9.694  13.309  69.672  1.00  0.00     0.000 HD 
BRANCH  15  17
HETATM   17  N   UNL     1     -10.723  14.802  68.629  1.00  0.00    -0.245 NA 
HETATM   18  C   UNL     1     -10.975  14.909  67.178  1.00  0.00    -0.323 C  
HETATM   19  C   UNL     1     -12.026  13.858  66.797  1.00  0.00    -0.472 C  
HETATM   20  C   UNL     1     -11.499  12.702  65.952  1.00  0.00    -0.407 C  
HETATM   21  C   UNL     1     -10.914  11.725  66.953  1.00  0.00    -0.333 C  
HETATM   22  C   UNL     1     -11.854  11.820  68.149  1.00  0.00    -0.324 C  
HETATM   23  C   UNL     1     -12.469  13.230  68.120  1.00  0.00     0.365 C  
HETATM   24  C   UNL     1     -11.956  14.205  69.177  1.00  0.00    -0.349 C  
ENDBRANCH  15  17
ENDBRANCH  13  15
ENDBRANCH  11  13
ENDBRANCH   8  11
ENDBRANCH   5   8
TORSDOF 5
ENDMDL
MODEL      195
REMARK 921   NORMALIZED FREE ENERGY PREDICTED BY IDOCK:   -4.05 KCAL/MOL
REMARK 922        TOTAL FREE ENERGY PREDICTED BY IDOCK:   -6.01 KCAL/MOL
REMARK 923 INTER-LIGAND FREE ENERGY PREDICTED BY IDOCK:   -5.21 KCAL/MOL
REMARK 924 INTRA-LIGAND FREE ENERGY PREDICTED BY IDOCK:   -0.80 KCAL/MOL
REMARK 927      BINDING AFFINITY PREDICTED BY RF-SCORE:    0.00 PKD
ROOT
HETATM    1  C   UNL     1      -5.672   8.897  62.944  1.00  0.00    -0.081 C  
HETATM    2  C   UNL     1      -6.958   9.552  63.353  1.00  0.00    -0.101 A  
HETATM    3  C   UNL     1      -7.970   9.786  62.415  1.00  0.00    -0.130 A  
HETATM    4  C   UNL     1      -9.129  10.469  62.784  1.00  0.00    -0.299 A  
HETATM    5  C   UNL     1      -9.286  10.910  64.103  1.00  0.00    -0.234 A  
HETATM    6  C   UNL     1      -8.295  10.660  65.053  1.00  0.00    -0.106 A  
HETATM    7  C   UNL     1      -7.134   9.981  64.677  1.00  0.00    -0.140 A  
ENDROOT
BRANCH   5   8
HETATM    8  S   UNL     1     -10.668  11.940  64.535  1.00  0.00    -0.334 S  
HETATM    9  O   UNL     1     -11.862  11.251  64.091  1.00  0.00    -0.009 OA 
HETATM   10  O   UNL     1     -10.377  13.292  64.115  1.00  0.00    -0.407 OA 
BRANCH   8  11
HETATM   11  N   UNL     1     -10.645  11.935  66.185  1.00  0.00    -0.249 N  
HETATM   12  H   UNL     1     -10.090  11.195  66.617  1.00  0.00     0.000 HD 
BRANCH  11  13
HETATM   13  C   UNL     1     -11.281  12.805  67.070  1.00  0.00    -0.292 C  
HETATM   14  O   UNL     1     -12.155  12.355  67.800  1.00  0.00    -0.447 OA 
BRANCH  13  15
HETATM   15  N   UNL     1     -10.824  14.102  67.067  1.00  0.00    -0.292 N  
HETATM   16  H   UNL     1     -11.511  14.853  67.143  1.00  0.00     0.000 HD 
BRANCH  15  17
HETATM   17  N   UNL     1      -9.465  14.456  66.965  1.00  0.00    -0.238 NA 
HETATM   18  C   UNL     1      -9.275  15.897  66.704  1.00  0.00    -0.252 C  
HETATM   19  C   UNL     1      -9.035  16.597  68.048  1.00  0.00    -0.211 C  
HETATM   20  C   UNL     1     -10.172  17.503  68.511  1.00  0.00    -0.378 C  
HETATM   21  C   UNL     1     -11.156  16.572  69.194  1.00  0.00    -0.270 C  
HETATM   22  C   UNL     1     -10.267  15.548  69.891  1.00  0.00    -0.305 C  
HETATM   23  C   UNL     1      -8.960  15.472  69.083  1.00  0.00    -0.256 C  
HETATM   24  C   UNL     1      -8.766  14.214  68.241  1.00  0.00    -0.181 C  
ENDBRANCH  15  17
ENDBRANCH  13  15
ENDBRANCH  11  13
ENDBRANCH   8  11
ENDBRANCH   5   8
TORSDOF 5
ENDMDL
MODEL      196
REMARK 921   NORMALIZED FREE ENERGY PREDICTED BY IDOCK:   -4.05 KCAL/MOL
REMARK 922        TOTAL FREE ENERGY PREDICTED BY IDOCK:   -6.01 KCAL/MOL
REMARK 923 INTER-LIGAND FREE ENERGY PREDICTED BY IDOCK:   -5.02 KCAL/MOL
REMARK 924 INTRA-LIGAND FREE ENERGY PREDICTED BY IDOCK:   -0.99 KCAL/MOL
REMARK 927      BINDING AFFINITY PREDICTED BY RF-SCORE:    0.00 PKD
ROOT
HETATM    1  C   UNL     1      -6.963  15.977  68.430  1.00  0.00    -0.121 C  
HETATM    2  C   UNL     1      -7.858  14.953  67.798  1.00  0.00    -0.164 A  
HETATM    3  C   UNL     1      -7.570  13.587  67.905  1.00  0.00    -0.151 A  
HETATM    4  C   UNL     1      -8.360  12.646  67.245  1.00  0.00    -0.189 A  
HETATM    5  C   UNL     1      -9.456  13.069  66.485  1.00  0.00    -0.245 A  
HETATM    6  C   UNL     1      -9.768  14.426  66.391  1.00  0.00    -0.320 A  
HETATM    7  C   UNL     1      -8.970  15.364  67.049  1.00  0.00    -0.253 A  
ENDROOT
BRANCH   5   8
HETATM    8  S   UNL     1     -10.351  11.897  65.493  1.00  0.00    -0.275 S  
HETATM    9  O   UNL     1      -9.492  10.741  65.330  1.00  0.00    -0.193 OA 
HETATM   10  O   UNL     1     -10.904  12.592  64.353  1.00  0.00    -0.312 OA 
BRANCH   8  11
HETATM   11  N   UNL     1     -11.620  11.473  66.459  1.00  0.00    -0.116 N  
HETATM   12  H   UNL     1     -12.545  11.721  66.107  1.00  0.00     0.000 HD 
BRANCH  11  13
HETATM   13  C   UNL     1     -11.599  10.821  67.691  1.00  0.00     0.000 C  
HETATM   14  O   UNL     1     -12.358  11.211  68.569  1.00  0.00    -0.561 OA 
BRANCH  13  15
HETATM   15  N   UNL     1     -10.740   9.750  67.787  1.00  0.00    -0.299 N  
HETATM   16  H   UNL     1     -10.744   9.063  67.033  1.00  0.00     0.000 HD 
BRANCH  15  17
HETATM   17  N   UNL     1      -9.856   9.547  68.864  1.00  0.00    -0.169 NA 
HETATM   18  C   UNL     1     -10.393   8.601  69.863  1.00  0.00    -0.209 C  
HETATM   19  C   UNL     1      -9.835   7.207  69.547  1.00  0.00    -0.162 C  
HETATM   20  C   UNL     1     -10.863   6.210  69.020  1.00  0.00    -0.416 C  
HETATM   21  C   UNL     1     -10.949   6.491  67.532  1.00  0.00    -0.444 C  
HETATM   22  C   UNL     1      -9.517   6.841  67.144  1.00  0.00    -0.167 C  
HETATM   23  C   UNL     1      -8.844   7.417  68.401  1.00  0.00    -0.121 C  
HETATM   24  C   UNL     1      -8.603   8.924  68.399  1.00  0.00    -0.134 C  
ENDBRANCH  15  17
ENDBRANCH  13  15
ENDBRANCH  11  13
ENDBRANCH   8  11
ENDBRANCH   5   8
TORSDOF 5
ENDMDL
MODEL      197
REMARK 921   NORMALIZED FREE ENERGY PREDICTED BY IDOCK:   -4.03 KCAL/MOL
REMARK 922        TOTAL FREE ENERGY PREDICTED BY IDOCK:   -5.99 KCAL/MOL
REMARK 923 INTER-LIGAND FREE ENERGY PREDICTED BY IDOCK:   -5.18 KCAL/MOL
REMARK 924 INTRA-LIGAND FREE ENERGY PREDICTED BY IDOCK:   -0.81 KCAL/MOL
REMARK 927      BINDING AFFINITY PREDICTED BY RF-SCORE:    0.00 PKD
ROOT
HETATM    1  C   UNL     1     -10.096   7.574  73.319  1.00  0.00    -0.386 C  
HETATM    2  C   UNL     1      -9.866   7.446  71.842  1.00  0.00    -0.187 A  
HETATM    3  C   UNL     1      -8.568   7.438  71.318  1.00  0.00    -0.118 A  
HETATM    4  C   UNL     1      -8.364   7.403  69.939  1.00  0.00    -0.134 A  
HETATM    5  C   UNL     1      -9.464   7.360  69.075  1.00  0.00    -0.148 A  
HETATM    6  C   UNL     1     -10.763   7.342  69.586  1.00  0.00    -0.249 A  
HETATM    7  C   UNL     1     -10.961   7.384  70.967  1.00  0.00    -0.268 A  
ENDROOT
BRANCH   5   8
HETATM    8  S   UNL     1      -9.219   7.504  67.321  1.00  0.00    -0.135 S  
HETATM    9  O   UNL     1     -10.504   7.842  66.742  1.00  0.00    -0.321 OA 
HETATM   10  O   UNL     1      -8.467   6.356  66.869  1.00  0.00    -0.109 OA 
BRANCH   8  11
HETATM   11  N   UNL     1      -8.224   8.814  67.183  1.00  0.00    -0.104 N  
HETATM   12  H   UNL     1      -7.632   9.006  67.992  1.00  0.00     0.000 HD 
BRANCH  11  13
HETATM   13  C   UNL     1      -8.083   9.694  66.111  1.00  0.00    -0.108 C  
HETATM   14  O   UNL     1      -7.147   9.527  65.340  1.00  0.00    -0.089 OA 
BRANCH  13  15
HETATM   15  N   UNL     1      -9.057  10.660  65.997  1.00  0.00    -0.173 N  
HETATM   16  H   UNL     1      -9.390  10.896  65.063  1.00  0.00     0.000 HD 
BRANCH  15  17
HETATM   17  N   UNL     1      -9.620  11.341  67.094  1.00  0.00    -0.176 NA 
HETATM   18  C   UNL     1      -9.397  12.799  67.026  1.00  0.00    -0.229 C  
HETATM   19  C   UNL     1     -10.636  13.441  66.389  1.00  0.00    -0.285 C  
HETATM   20  C   UNL     1     -10.415  14.008  64.989  1.00  0.00    -0.440 C  
HETATM   21  C   UNL     1     -10.578  12.820  64.060  1.00  0.00    -0.446 C  
HETATM   22  C   UNL     1     -11.687  11.999  64.707  1.00  0.00    -0.342 C  
HETATM   23  C   UNL     1     -11.641  12.300  66.215  1.00  0.00    -0.446 C  
HETATM   24  C   UNL     1     -11.087  11.189  67.103  1.00  0.00    -0.287 C  
ENDBRANCH  15  17
ENDBRANCH  13  15
ENDBRANCH  11  13
ENDBRANCH   8  11
ENDBRANCH   5   8
TORSDOF 5
ENDMDL
MODEL      198
REMARK 921   NORMALIZED FREE ENERGY PREDICTED BY IDOCK:   -4.02 KCAL/MOL
REMARK 922        TOTAL FREE ENERGY PREDICTED BY IDOCK:   -5.98 KCAL/MOL
REMARK 923 INTER-LIGAND FREE ENERGY PREDICTED BY IDOCK:   -4.36 KCAL/MOL
REMARK 924 INTRA-LIGAND FREE ENERGY PREDICTED BY IDOCK:   -1.62 KCAL/MOL
REMARK 927      BINDING AFFINITY PREDICTED BY RF-SCORE:    0.00 PKD
ROOT
HETATM    1  C   UNL     1      -9.381   7.044  73.824  1.00  0.00    -0.244 C  
HETATM    2  C   UNL     1      -9.494   6.548  72.413  1.00  0.00    -0.147 A  
HETATM    3  C   UNL     1      -8.380   6.546  71.564  1.00  0.00    -0.121 A  
HETATM    4  C   UNL     1      -8.511   6.162  70.230  1.00  0.00    -0.126 A  
HETATM    5  C   UNL     1      -9.760   5.762  69.741  1.00  0.00    -0.162 A  
HETATM    6  C   UNL     1     -10.873   5.737  70.584  1.00  0.00    -0.337 A  
HETATM    7  C   UNL     1     -10.737   6.128  71.917  1.00  0.00    -0.277 A  
ENDROOT
BRANCH   5   8
HETATM    8  S   UNL     1      -9.974   5.454  68.004  1.00  0.00    -0.154 S  
HETATM    9  O   UNL     1     -11.277   5.972  67.641  1.00  0.00    -0.234 OA 
HETATM   10  O   UNL     1      -9.606   4.082  67.736  1.00  0.00    -0.177 OA 
BRANCH   8  11
HETATM   11  N   UNL     1      -8.821   6.405  67.305  1.00  0.00    -0.109 N  
HETATM   12  H   UNL     1      -7.857   6.090  67.422  1.00  0.00     0.000 HD 
BRANCH  11  13
HETATM   13  C   UNL     1      -8.985   7.582  66.575  1.00  0.00    -0.162 C  
HETATM   14  O   UNL     1      -8.484   7.651  65.461  1.00  0.00    -0.137 OA 
BRANCH  13  15
HETATM   15  N   UNL     1      -9.749   8.556  67.175  1.00  0.00    -0.175 N  
HETATM   16  H   UNL     1     -10.467   8.262  67.837  1.00  0.00     0.000 HD 
BRANCH  15  17
HETATM   17  N   UNL     1      -9.599   9.934  66.929  1.00  0.00    -0.172 NA 
HETATM   18  C   UNL     1     -10.851  10.686  67.149  1.00  0.00    -0.270 C  
HETATM   19  C   UNL     1     -10.822  11.253  68.575  1.00  0.00    -0.245 C  
HETATM   20  C   UNL     1     -11.812  10.610  69.541  1.00  0.00    -0.345 C  
HETATM   21  C   UNL     1     -11.109   9.364  70.045  1.00  0.00    -0.248 C  
HETATM   22  C   UNL     1      -9.648   9.786  70.150  1.00  0.00    -0.287 C  
HETATM   23  C   UNL     1      -9.434  10.909  69.120  1.00  0.00    -0.107 C  
HETATM   24  C   UNL     1      -8.637  10.530  67.875  1.00  0.00    -0.123 C  
ENDBRANCH  15  17
ENDBRANCH  13  15
ENDBRANCH  11  13
ENDBRANCH   8  11
ENDBRANCH   5   8
TORSDOF 5
ENDMDL
MODEL      199
REMARK 921   NORMALIZED FREE ENERGY PREDICTED BY IDOCK:   -4.02 KCAL/MOL
REMARK 922        TOTAL FREE ENERGY PREDICTED BY IDOCK:   -5.98 KCAL/MOL
REMARK 923 INTER-LIGAND FREE ENERGY PREDICTED BY IDOCK:   -5.53 KCAL/MOL
REMARK 924 INTRA-LIGAND FREE ENERGY PREDICTED BY IDOCK:   -0.45 KCAL/MOL
REMARK 927      BINDING AFFINITY PREDICTED BY RF-SCORE:    0.00 PKD
ROOT
HETATM    1  C   UNL     1      -8.014  18.422  67.993  1.00  0.00    -0.289 C  
HETATM    2  C   UNL     1      -8.784  17.142  68.127  1.00  0.00    -0.232 A  
HETATM    3  C   UNL     1      -9.903  16.893  67.323  1.00  0.00    -0.265 A  
HETATM    4  C   UNL     1     -10.663  15.738  67.510  1.00  0.00    -0.317 A  
HETATM    5  C   UNL     1     -10.296  14.817  68.497  1.00  0.00    -0.237 A  
HETATM    6  C   UNL     1      -9.168  15.042  69.288  1.00  0.00    -0.159 A  
HETATM    7  C   UNL     1      -8.415  16.202  69.100  1.00  0.00    -0.239 A  
ENDROOT
BRANCH   5   8
HETATM    8  S   UNL     1     -11.361  13.443  68.866  1.00  0.00    -0.305 S  
HETATM    9  O   UNL     1     -11.975  13.039  67.618  1.00  0.00    -0.353 OA 
HETATM   10  O   UNL     1     -12.157  13.782  70.024  1.00  0.00    -0.313 OA 
BRANCH   8  11
HETATM   11  N   UNL     1     -10.308  12.262  69.337  1.00  0.00    -0.304 N  
HETATM   12  H   UNL     1      -9.875  12.396  70.252  1.00  0.00     0.000 HD 
BRANCH  11  13
HETATM   13  C   UNL     1      -9.930  11.107  68.655  1.00  0.00    -0.205 C  
HETATM   14  O   UNL     1      -9.480  11.221  67.522  1.00  0.00    -0.167 OA 
BRANCH  13  15
HETATM   15  N   UNL     1     -10.061   9.929  69.353  1.00  0.00    -0.198 N  
HETATM   16  H   UNL     1     -10.985   9.683  69.709  1.00  0.00     0.000 HD 
BRANCH  15  17
HETATM   17  N   UNL     1      -8.996   9.043  69.606  1.00  0.00    -0.147 NA 
HETATM   18  C   UNL     1      -8.643   8.981  71.038  1.00  0.00    -0.210 C  
HETATM   19  C   UNL     1      -9.376   7.784  71.658  1.00  0.00    -0.174 C  
HETATM   20  C   UNL     1     -10.496   8.150  72.627  1.00  0.00    -0.401 C  
HETATM   21  C   UNL     1     -11.703   8.407  71.745  1.00  0.00    -0.371 C  
HETATM   22  C   UNL     1     -11.564   7.381  70.627  1.00  0.00    -0.295 C  
HETATM   23  C   UNL     1     -10.062   7.077  70.487  1.00  0.00    -0.202 C  
HETATM   24  C   UNL     1      -9.374   7.661  69.256  1.00  0.00    -0.148 C  
ENDBRANCH  15  17
ENDBRANCH  13  15
ENDBRANCH  11  13
ENDBRANCH   8  11
ENDBRANCH   5   8
TORSDOF 5
ENDMDL
MODEL      200
REMARK 921   NORMALIZED FREE ENERGY PREDICTED BY IDOCK:   -4.01 KCAL/MOL
REMARK 922        TOTAL FREE ENERGY PREDICTED BY IDOCK:   -5.96 KCAL/MOL
REMARK 923 INTER-LIGAND FREE ENERGY PREDICTED BY IDOCK:   -5.11 KCAL/MOL
REMARK 924 INTRA-LIGAND FREE ENERGY PREDICTED BY IDOCK:   -0.85 KCAL/MOL
REMARK 927      BINDING AFFINITY PREDICTED BY RF-SCORE:    0.00 PKD
ROOT
HETATM    1  C   UNL     1      -9.177  17.951  66.391  1.00  0.00    -0.258 C  
HETATM    2  C   UNL     1      -9.424  16.491  66.154  1.00  0.00    -0.347 A  
HETATM    3  C   UNL     1     -10.415  16.069  65.260  1.00  0.00    -0.384 A  
HETATM    4  C   UNL     1     -10.696  14.712  65.107  1.00  0.00    -0.430 A  
HETATM    5  C   UNL     1      -9.971  13.765  65.841  1.00  0.00    -0.293 A  
HETATM    6  C   UNL     1      -8.964  14.172  66.717  1.00  0.00    -0.229 A  
HETATM    7  C   UNL     1      -8.692  15.533  66.870  1.00  0.00    -0.281 A  
ENDROOT
BRANCH   5   8
HETATM    8  S   UNL     1     -10.448  12.054  65.793  1.00  0.00    -0.265 S  
HETATM    9  O   UNL     1     -11.441  11.922  64.747  1.00  0.00    -0.313 OA 
HETATM   10  O   UNL     1     -10.713  11.616  67.144  1.00  0.00    -0.225 OA 
BRANCH   8  11
HETATM   11  N   UNL     1      -9.069  11.290  65.303  1.00  0.00    -0.344 N  
HETATM   12  H   UNL     1      -8.877  11.324  64.301  1.00  0.00     0.000 HD 
BRANCH  11  13
HETATM   13  C   UNL     1      -8.131  10.604  66.073  1.00  0.00    -0.159 C  
HETATM   14  O   UNL     1      -6.990  11.044  66.129  1.00  0.00    -0.125 OA 
BRANCH  13  15
HETATM   15  N   UNL     1      -8.601   9.499  66.745  1.00  0.00    -0.127 N  
HETATM   16  H   UNL     1      -8.417   9.433  67.746  1.00  0.00     0.000 HD 
BRANCH  15  17
HETATM   17  N   UNL     1      -9.320   8.454  66.133  1.00  0.00    -0.209 NA 
HETATM   18  C   UNL     1      -8.587   7.172  66.165  1.00  0.00    -0.146 C  
HETATM   19  C   UNL     1      -9.074   6.376  67.383  1.00  0.00    -0.111 C  
HETATM   20  C   UNL     1      -8.051   6.232  68.505  1.00  0.00    -0.109 C  
HETATM   21  C   UNL     1      -8.180   7.509  69.314  1.00  0.00    -0.130 C  
HETATM   22  C   UNL     1      -9.672   7.817  69.274  1.00  0.00    -0.165 C  
HETATM   23  C   UNL     1     -10.219   7.200  67.975  1.00  0.00    -0.223 C  
HETATM   24  C   UNL     1     -10.572   8.185  66.864  1.00  0.00    -0.241 C  
ENDBRANCH  15  17
ENDBRANCH  13  15
ENDBRANCH  11  13
ENDBRANCH   8  11
ENDBRANCH   5   8
TORSDOF 5
ENDMDL
MODEL      201
REMARK 921   NORMALIZED FREE ENERGY PREDICTED BY IDOCK:   -4.00 KCAL/MOL
REMARK 922        TOTAL FREE ENERGY PREDICTED BY IDOCK:   -5.95 KCAL/MOL
REMARK 923 INTER-LIGAND FREE ENERGY PREDICTED BY IDOCK:   -5.29 KCAL/MOL
REMARK 924 INTRA-LIGAND FREE ENERGY PREDICTED BY IDOCK:   -0.66 KCAL/MOL
REMARK 927      BINDING AFFINITY PREDICTED BY RF-SCORE:    0.00 PKD
ROOT
HETATM    1  C   UNL     1      -5.278  20.306  63.813  1.00  0.00    -0.225 C  
HETATM    2  C   UNL     1      -6.247  19.725  64.800  1.00  0.00    -0.321 A  
HETATM    3  C   UNL     1      -7.410  20.419  65.154  1.00  0.00     0.059 A  
HETATM    4  C   UNL     1      -8.265  19.912  66.133  1.00  0.00    -0.346 A  
HETATM    5  C   UNL     1      -7.964  18.694  66.754  1.00  0.00    -0.255 A  
HETATM    6  C   UNL     1      -6.820  17.980  66.392  1.00  0.00    -0.270 A  
HETATM    7  C   UNL     1      -5.966  18.496  65.416  1.00  0.00    -0.284 A  
ENDROOT
BRANCH   5   8
HETATM    8  S   UNL     1      -8.942  18.136  68.129  1.00  0.00    -0.296 S  
HETATM    9  O   UNL     1      -9.375  19.319  68.845  1.00  0.00    -0.375 OA 
HETATM   10  O   UNL     1      -8.228  17.071  68.794  1.00  0.00    -0.253 OA 
BRANCH   8  11
HETATM   11  N   UNL     1     -10.259  17.453  67.405  1.00  0.00    -0.316 N  
HETATM   12  H   UNL     1     -10.561  17.890  66.534  1.00  0.00     0.000 HD 
BRANCH  11  13
HETATM   13  C   UNL     1     -11.015  16.359  67.823  1.00  0.00    -0.261 C  
HETATM   14  O   UNL     1     -12.022  16.567  68.487  1.00  0.00     0.057 OA 
BRANCH  13  15
HETATM   15  N   UNL     1     -10.570  15.127  67.401  1.00  0.00    -0.266 N  
HETATM   16  H   UNL     1      -9.762  14.721  67.873  1.00  0.00     0.000 HD 
BRANCH  15  17
HETATM   17  N   UNL     1     -11.163  14.394  66.355  1.00  0.00    -0.337 NA 
HETATM   18  C   UNL     1     -10.165  13.835  65.422  1.00  0.00    -0.326 C  
HETATM   19  C   UNL     1      -9.869  12.391  65.849  1.00  0.00    -0.265 C  
HETATM   20  C   UNL     1      -8.477  12.168  66.433  1.00  0.00     0.051 C  
HETATM   21  C   UNL     1      -8.603  12.554  67.895  1.00  0.00    -0.179 C  
HETATM   22  C   UNL     1     -10.001  12.081  68.278  1.00  0.00    -0.203 C  
HETATM   23  C   UNL     1     -10.844  12.098  66.992  1.00  0.00    -0.289 C  
HETATM   24  C   UNL     1     -11.877  13.217  66.885  1.00  0.00    -0.386 C  
ENDBRANCH  15  17
ENDBRANCH  13  15
ENDBRANCH  11  13
ENDBRANCH   8  11
ENDBRANCH   5   8
TORSDOF 5
ENDMDL
MODEL      202
REMARK 921   NORMALIZED FREE ENERGY PREDICTED BY IDOCK:   -4.00 KCAL/MOL
REMARK 922        TOTAL FREE ENERGY PREDICTED BY IDOCK:   -5.94 KCAL/MOL
REMARK 923 INTER-LIGAND FREE ENERGY PREDICTED BY IDOCK:   -5.17 KCAL/MOL
REMARK 924 INTRA-LIGAND FREE ENERGY PREDICTED BY IDOCK:   -0.77 KCAL/MOL
REMARK 927      BINDING AFFINITY PREDICTED BY RF-SCORE:    0.00 PKD
ROOT
HETATM    1  C   UNL     1      -9.084   4.023  68.529  1.00  0.00    -0.189 C  
HETATM    2  C   UNL     1      -9.087   5.440  68.036  1.00  0.00    -0.114 A  
HETATM    3  C   UNL     1     -10.292   6.101  67.770  1.00  0.00    -0.247 A  
HETATM    4  C   UNL     1     -10.286   7.389  67.234  1.00  0.00    -0.356 A  
HETATM    5  C   UNL     1      -9.068   8.027  66.973  1.00  0.00    -0.144 A  
HETATM    6  C   UNL     1      -7.861   7.388  67.258  1.00  0.00    -0.114 A  
HETATM    7  C   UNL     1      -7.873   6.097  67.789  1.00  0.00    -0.105 A  
ENDROOT
BRANCH   5   8
HETATM    8  S   UNL     1      -9.050   9.585  66.119  1.00  0.00    -0.179 S  
HETATM    9  O   UNL     1      -9.329   9.304  64.725  1.00  0.00    -0.183 OA 
HETATM   10  O   UNL     1      -7.868  10.312  66.520  1.00  0.00    -0.109 OA 
BRANCH   8  11
HETATM   11  N   UNL     1     -10.345  10.384  66.759  1.00  0.00    -0.232 N  
HETATM   12  H   UNL     1     -11.247  10.182  66.327  1.00  0.00     0.000 HD 
BRANCH  11  13
HETATM   13  C   UNL     1     -10.373  11.299  67.810  1.00  0.00    -0.182 C  
HETATM   14  O   UNL     1     -10.650  10.890  68.930  1.00  0.00    -0.188 OA 
BRANCH  13  15
HETATM   15  N   UNL     1     -10.036  12.593  67.487  1.00  0.00    -0.203 N  
HETATM   16  H   UNL     1      -9.357  12.739  66.740  1.00  0.00     0.000 HD 
BRANCH  15  17
HETATM   17  N   UNL     1     -10.571  13.728  68.126  1.00  0.00    -0.247 NA 
HETATM   18  C   UNL     1     -10.032  14.989  67.580  1.00  0.00    -0.225 C  
HETATM   19  C   UNL     1     -11.014  15.508  66.521  1.00  0.00    -0.243 C  
HETATM   20  C   UNL     1     -10.504  15.436  65.085  1.00  0.00    -0.439 C  
HETATM   21  C   UNL     1     -10.801  14.017  64.637  1.00  0.00    -0.416 C  
HETATM   22  C   UNL     1     -12.133  13.696  65.305  1.00  0.00    -0.429 C  
HETATM   23  C   UNL     1     -12.212  14.556  66.578  1.00  0.00    -0.268 C  
HETATM   24  C   UNL     1     -12.026  13.815  67.899  1.00  0.00    -0.356 C  
ENDBRANCH  15  17
ENDBRANCH  13  15
ENDBRANCH  11  13
ENDBRANCH   8  11
ENDBRANCH   5   8
TORSDOF 5
ENDMDL
MODEL      203
REMARK 921   NORMALIZED FREE ENERGY PREDICTED BY IDOCK:   -3.97 KCAL/MOL
REMARK 922        TOTAL FREE ENERGY PREDICTED BY IDOCK:   -5.91 KCAL/MOL
REMARK 923 INTER-LIGAND FREE ENERGY PREDICTED BY IDOCK:   -5.14 KCAL/MOL
REMARK 924 INTRA-LIGAND FREE ENERGY PREDICTED BY IDOCK:   -0.77 KCAL/MOL
REMARK 927      BINDING AFFINITY PREDICTED BY RF-SCORE:    0.00 PKD
ROOT
HETATM    1  C   UNL     1      -5.317  12.826  70.607  1.00  0.00    -0.157 C  
HETATM    2  C   UNL     1      -6.341  12.117  69.771  1.00  0.00    -0.102 A  
HETATM    3  C   UNL     1      -6.589  10.751  69.951  1.00  0.00    -0.149 A  
HETATM    4  C   UNL     1      -7.481  10.080  69.115  1.00  0.00    -0.092 A  
HETATM    5  C   UNL     1      -8.143  10.781  68.100  1.00  0.00    -0.117 A  
HETATM    6  C   UNL     1      -7.922  12.148  67.926  1.00  0.00    -0.150 A  
HETATM    7  C   UNL     1      -7.023  12.813  68.762  1.00  0.00    -0.096 A  
ENDROOT
BRANCH   5   8
HETATM    8  S   UNL     1      -9.133   9.899  66.916  1.00  0.00    -0.143 S  
HETATM    9  O   UNL     1      -8.324   9.741  65.725  1.00  0.00    -0.124 OA 
HETATM   10  O   UNL     1     -10.439  10.516  66.864  1.00  0.00    -0.231 OA 
BRANCH   8  11
HETATM   11  N   UNL     1      -9.330   8.417  67.615  1.00  0.00    -0.136 N  
HETATM   12  H   UNL     1      -8.469   7.934  67.876  1.00  0.00     0.000 HD 
BRANCH  11  13
HETATM   13  C   UNL     1     -10.512   7.735  67.896  1.00  0.00    -0.201 C  
HETATM   14  O   UNL     1     -10.988   7.012  67.030  1.00  0.00    -0.375 OA 
BRANCH  13  15
HETATM   15  N   UNL     1     -11.017   7.910  69.164  1.00  0.00    -0.428 N  
HETATM   16  H   UNL     1     -11.940   7.527  69.370  1.00  0.00     0.000 HD 
BRANCH  15  17
HETATM   17  N   UNL     1     -10.336   8.587  70.194  1.00  0.00    -0.202 NA 
HETATM   18  C   UNL     1     -11.172   9.619  70.839  1.00  0.00    -0.352 C  
HETATM   19  C   UNL     1     -11.811   9.002  72.090  1.00  0.00    -0.384 C  
HETATM   20  C   UNL     1     -13.317   8.779  71.997  1.00  0.00    -0.455 C  
HETATM   21  C   UNL     1     -13.469   7.447  71.287  1.00  0.00    -0.339 C  
HETATM   22  C   UNL     1     -12.307   6.617  71.817  1.00  0.00    -0.385 C  
HETATM   23  C   UNL     1     -11.197   7.606  72.212  1.00  0.00    -0.343 C  
HETATM   24  C   UNL     1      -9.986   7.658  71.285  1.00  0.00    -0.179 C  
ENDBRANCH  15  17
ENDBRANCH  13  15
ENDBRANCH  11  13
ENDBRANCH   8  11
ENDBRANCH   5   8
TORSDOF 5
ENDMDL
MODEL      204
REMARK 921   NORMALIZED FREE ENERGY PREDICTED BY IDOCK:   -3.96 KCAL/MOL
REMARK 922        TOTAL FREE ENERGY PREDICTED BY IDOCK:   -5.90 KCAL/MOL
REMARK 923 INTER-LIGAND FREE ENERGY PREDICTED BY IDOCK:   -4.54 KCAL/MOL
REMARK 924 INTRA-LIGAND FREE ENERGY PREDICTED BY IDOCK:   -1.37 KCAL/MOL
REMARK 927      BINDING AFFINITY PREDICTED BY RF-SCORE:    0.00 PKD
ROOT
HETATM    1  C   UNL     1      -8.718   9.820  62.550  1.00  0.00    -0.234 C  
HETATM    2  C   UNL     1      -8.715  10.010  64.037  1.00  0.00    -0.222 A  
HETATM    3  C   UNL     1      -9.888  10.361  64.716  1.00  0.00    -0.406 A  
HETATM    4  C   UNL     1      -9.860  10.616  66.087  1.00  0.00    -0.268 A  
HETATM    5  C   UNL     1      -8.655  10.507  66.790  1.00  0.00    -0.126 A  
HETATM    6  C   UNL     1      -7.484  10.133  66.129  1.00  0.00    -0.115 A  
HETATM    7  C   UNL     1      -7.517   9.884  64.756  1.00  0.00    -0.136 A  
ENDROOT
BRANCH   5   8
HETATM    8  S   UNL     1      -8.573  11.011  68.492  1.00  0.00    -0.162 S  
HETATM    9  O   UNL     1      -9.917  11.385  68.885  1.00  0.00    -0.198 OA 
HETATM   10  O   UNL     1      -7.462  11.922  68.645  1.00  0.00    -0.112 OA 
BRANCH   8  11
HETATM   11  N   UNL     1      -8.166   9.620  69.281  1.00  0.00    -0.113 N  
HETATM   12  H   UNL     1      -7.267   9.212  69.022  1.00  0.00     0.000 HD 
BRANCH  11  13
HETATM   13  C   UNL     1      -8.884   8.927  70.254  1.00  0.00    -0.175 C  
HETATM   14  O   UNL     1      -8.562   9.068  71.426  1.00  0.00    -0.269 OA 
BRANCH  13  15
HETATM   15  N   UNL     1      -9.937   8.168  69.795  1.00  0.00    -0.188 N  
HETATM   16  H   UNL     1     -10.588   8.600  69.140  1.00  0.00     0.000 HD 
BRANCH  15  17
HETATM   17  N   UNL     1     -10.167   6.832  70.175  1.00  0.00    -0.192 NA 
HETATM   18  C   UNL     1     -11.218   6.188  69.361  1.00  0.00    -0.396 C  
HETATM   19  C   UNL     1     -10.534   5.420  68.222  1.00  0.00    -0.191 C  
HETATM   20  C   UNL     1     -10.745   6.013  66.832  1.00  0.00    -0.407 C  
HETATM   21  C   UNL     1      -9.689   7.096  66.709  1.00  0.00    -0.252 C  
HETATM   22  C   UNL     1      -8.485   6.516  67.442  1.00  0.00    -0.119 C  
HETATM   23  C   UNL     1      -9.033   5.539  68.496  1.00  0.00    -0.114 C  
HETATM   24  C   UNL     1      -8.964   6.011  69.946  1.00  0.00    -0.141 C  
ENDBRANCH  15  17
ENDBRANCH  13  15
ENDBRANCH  11  13
ENDBRANCH   8  11
ENDBRANCH   5   8
TORSDOF 5
ENDMDL
MODEL      205
REMARK 921   NORMALIZED FREE ENERGY PREDICTED BY IDOCK:   -3.96 KCAL/MOL
REMARK 922        TOTAL FREE ENERGY PREDICTED BY IDOCK:   -5.90 KCAL/MOL
REMARK 923 INTER-LIGAND FREE ENERGY PREDICTED BY IDOCK:   -4.93 KCAL/MOL
REMARK 924 INTRA-LIGAND FREE ENERGY PREDICTED BY IDOCK:   -0.96 KCAL/MOL
REMARK 927      BINDING AFFINITY PREDICTED BY RF-SCORE:    0.00 PKD
ROOT
HETATM    1  C   UNL     1      -7.616  18.066  67.192  1.00  0.00    -0.226 C  
HETATM    2  C   UNL     1      -8.591  16.950  67.423  1.00  0.00    -0.214 A  
HETATM    3  C   UNL     1      -9.790  16.887  66.703  1.00  0.00    -0.295 A  
HETATM    4  C   UNL     1     -10.728  15.893  66.981  1.00  0.00    -0.292 A  
HETATM    5  C   UNL     1     -10.461  14.944  67.975  1.00  0.00    -0.246 A  
HETATM    6  C   UNL     1      -9.258  14.981  68.682  1.00  0.00    -0.198 A  
HETATM    7  C   UNL     1      -8.326  15.982  68.403  1.00  0.00    -0.178 A  
ENDROOT
BRANCH   5   8
HETATM    8  S   UNL     1     -11.725  13.794  68.464  1.00  0.00    -0.374 S  
HETATM    9  O   UNL     1     -12.226  13.179  67.251  1.00  0.00    -0.317 OA 
HETATM   10  O   UNL     1     -12.610  14.457  69.394  1.00  0.00    -0.180 OA 
BRANCH   8  11
HETATM   11  N   UNL     1     -10.892  12.657  69.322  1.00  0.00    -0.440 N  
HETATM   12  H   UNL     1     -10.278  13.017  70.053  1.00  0.00     0.000 HD 
BRANCH  11  13
HETATM   13  C   UNL     1     -10.913  11.270  69.182  1.00  0.00    -0.240 C  
HETATM   14  O   UNL     1     -11.679  10.626  69.887  1.00  0.00    -0.267 OA 
BRANCH  13  15
HETATM   15  N   UNL     1     -10.085  10.753  68.212  1.00  0.00    -0.165 N  
HETATM   16  H   UNL     1     -10.319   9.841  67.819  1.00  0.00     0.000 HD 
BRANCH  15  17
HETATM   17  N   UNL     1      -8.935  11.407  67.731  1.00  0.00    -0.143 NA 
HETATM   18  C   UNL     1      -7.718  10.584  67.871  1.00  0.00    -0.092 C  
HETATM   19  C   UNL     1      -7.480   9.855  66.542  1.00  0.00    -0.100 C  
HETATM   20  C   UNL     1      -7.709   8.347  66.588  1.00  0.00    -0.090 C  
HETATM   21  C   UNL     1      -9.204   8.176  66.391  1.00  0.00    -0.250 C  
HETATM   22  C   UNL     1      -9.569   9.273  65.398  1.00  0.00    -0.237 C  
HETATM   23  C   UNL     1      -8.541  10.402  65.584  1.00  0.00    -0.175 C  
HETATM   24  C   UNL     1      -9.048  11.661  66.282  1.00  0.00    -0.214 C  
ENDBRANCH  15  17
ENDBRANCH  13  15
ENDBRANCH  11  13
ENDBRANCH   8  11
ENDBRANCH   5   8
TORSDOF 5
ENDMDL
MODEL      206
REMARK 921   NORMALIZED FREE ENERGY PREDICTED BY IDOCK:   -3.94 KCAL/MOL
REMARK 922        TOTAL FREE ENERGY PREDICTED BY IDOCK:   -5.87 KCAL/MOL
REMARK 923 INTER-LIGAND FREE ENERGY PREDICTED BY IDOCK:   -5.18 KCAL/MOL
REMARK 924 INTRA-LIGAND FREE ENERGY PREDICTED BY IDOCK:   -0.69 KCAL/MOL
REMARK 927      BINDING AFFINITY PREDICTED BY RF-SCORE:    0.00 PKD
ROOT
HETATM    1  C   UNL     1      -9.773   2.631  70.917  1.00  0.00    -0.131 C  
HETATM    2  C   UNL     1      -9.494   4.105  70.890  1.00  0.00    -0.232 A  
HETATM    3  C   UNL     1      -8.638   4.689  71.831  1.00  0.00    -0.128 A  
HETATM    4  C   UNL     1      -8.449   6.071  71.851  1.00  0.00    -0.133 A  
HETATM    5  C   UNL     1      -9.108   6.876  70.914  1.00  0.00    -0.153 A  
HETATM    6  C   UNL     1      -9.944   6.303  69.955  1.00  0.00    -0.208 A  
HETATM    7  C   UNL     1     -10.135   4.920  69.944  1.00  0.00    -0.332 A  
ENDROOT
BRANCH   5   8
HETATM    8  S   UNL     1      -9.021   8.645  71.051  1.00  0.00    -0.216 S  
HETATM    9  O   UNL     1      -8.519   9.141  69.785  1.00  0.00    -0.119 OA 
HETATM   10  O   UNL     1      -8.373   8.975  72.300  1.00  0.00    -0.354 OA 
BRANCH   8  11
HETATM   11  N   UNL     1     -10.603   9.093  71.197  1.00  0.00    -0.281 N  
HETATM   12  H   UNL     1     -11.188   8.470  71.755  1.00  0.00     0.000 HD 
BRANCH  11  13
HETATM   13  C   UNL     1     -11.248  10.207  70.662  1.00  0.00    -0.340 C  
HETATM   14  O   UNL     1     -12.144  10.728  71.311  1.00  0.00    -0.330 OA 
BRANCH  13  15
HETATM   15  N   UNL     1     -10.772  10.648  69.449  1.00  0.00    -0.230 N  
HETATM   16  H   UNL     1      -9.761  10.695  69.318  1.00  0.00     0.000 HD 
BRANCH  15  17
HETATM   17  N   UNL     1     -11.597  11.040  68.377  1.00  0.00    -0.420 NA 
HETATM   18  C   UNL     1     -11.693  12.508  68.247  1.00  0.00    -0.340 C  
HETATM   19  C   UNL     1     -10.658  12.963  67.209  1.00  0.00    -0.243 C  
HETATM   20  C   UNL     1      -9.483  13.751  67.780  1.00  0.00    -0.216 C  
HETATM   21  C   UNL     1      -8.506  12.695  68.262  1.00  0.00    -0.163 C  
HETATM   22  C   UNL     1      -8.632  11.582  67.229  1.00  0.00    -0.150 C  
HETATM   23  C   UNL     1     -10.054  11.674  66.647  1.00  0.00    -0.238 C  
HETATM   24  C   UNL     1     -11.031  10.589  67.092  1.00  0.00    -0.228 C  
ENDBRANCH  15  17
ENDBRANCH  13  15
ENDBRANCH  11  13
ENDBRANCH   8  11
ENDBRANCH   5   8
TORSDOF 5
ENDMDL
MODEL      207
REMARK 921   NORMALIZED FREE ENERGY PREDICTED BY IDOCK:   -3.92 KCAL/MOL
REMARK 922        TOTAL FREE ENERGY PREDICTED BY IDOCK:   -5.85 KCAL/MOL
REMARK 923 INTER-LIGAND FREE ENERGY PREDICTED BY IDOCK:   -5.00 KCAL/MOL
REMARK 924 INTRA-LIGAND FREE ENERGY PREDICTED BY IDOCK:   -0.85 KCAL/MOL
REMARK 927      BINDING AFFINITY PREDICTED BY RF-SCORE:    0.00 PKD
ROOT
HETATM    1  C   UNL     1      -6.255  10.570  62.336  1.00  0.00    -0.153 C  
HETATM    2  C   UNL     1      -6.987  10.154  63.577  1.00  0.00    -0.116 A  
HETATM    3  C   UNL     1      -8.338   9.791  63.523  1.00  0.00    -0.168 A  
HETATM    4  C   UNL     1      -9.033   9.485  64.693  1.00  0.00    -0.266 A  
HETATM    5  C   UNL     1      -8.371   9.527  65.926  1.00  0.00    -0.120 A  
HETATM    6  C   UNL     1      -7.018   9.862  65.989  1.00  0.00    -0.104 A  
HETATM    7  C   UNL     1      -6.329  10.174  64.816  1.00  0.00    -0.131 A  
ENDROOT
BRANCH   5   8
HETATM    8  S   UNL     1      -9.292   9.323  67.432  1.00  0.00    -0.128 S  
HETATM    9  O   UNL     1     -10.544  10.032  67.260  1.00  0.00    -0.244 OA 
HETATM   10  O   UNL     1      -8.413   9.603  68.545  1.00  0.00    -0.116 OA 
BRANCH   8  11
HETATM   11  N   UNL     1      -9.610   7.704  67.467  1.00  0.00    -0.139 N  
HETATM   12  H   UNL     1      -8.971   7.117  66.930  1.00  0.00     0.000 HD 
BRANCH  11  13
HETATM   13  C   UNL     1     -10.634   7.030  68.130  1.00  0.00    -0.204 C  
HETATM   14  O   UNL     1     -11.063   5.995  67.638  1.00  0.00    -0.297 OA 
BRANCH  13  15
HETATM   15  N   UNL     1     -11.041   7.583  69.323  1.00  0.00    -0.442 N  
HETATM   16  H   UNL     1     -11.926   8.087  69.340  1.00  0.00     0.000 HD 
BRANCH  15  17
HETATM   17  N   UNL     1     -10.306   7.493  70.521  1.00  0.00    -0.212 NA 
HETATM   18  C   UNL     1     -10.370   8.736  71.315  1.00  0.00    -0.261 C  
HETATM   19  C   UNL     1     -11.489   8.581  72.354  1.00  0.00    -0.419 C  
HETATM   20  C   UNL     1     -12.716   9.454  72.109  1.00  0.00    -0.460 C  
HETATM   21  C   UNL     1     -13.556   8.673  71.116  1.00  0.00    -0.073 C  
HETATM   22  C   UNL     1     -13.356   7.220  71.532  1.00  0.00    -0.435 C  
HETATM   23  C   UNL     1     -11.978   7.138  72.211  1.00  0.00    -0.256 C  
HETATM   24  C   UNL     1     -10.875   6.457  71.404  1.00  0.00    -0.253 C  
ENDBRANCH  15  17
ENDBRANCH  13  15
ENDBRANCH  11  13
ENDBRANCH   8  11
ENDBRANCH   5   8
TORSDOF 5
ENDMDL
MODEL      208
REMARK 921   NORMALIZED FREE ENERGY PREDICTED BY IDOCK:   -3.91 KCAL/MOL
REMARK 922        TOTAL FREE ENERGY PREDICTED BY IDOCK:   -5.83 KCAL/MOL
REMARK 923 INTER-LIGAND FREE ENERGY PREDICTED BY IDOCK:   -4.48 KCAL/MOL
REMARK 924 INTRA-LIGAND FREE ENERGY PREDICTED BY IDOCK:   -1.36 KCAL/MOL
REMARK 927      BINDING AFFINITY PREDICTED BY RF-SCORE:    0.00 PKD
ROOT
HETATM    1  C   UNL     1      -9.183   2.600  70.286  1.00  0.00    -0.202 C  
HETATM    2  C   UNL     1      -9.095   3.947  70.939  1.00  0.00    -0.179 A  
HETATM    3  C   UNL     1     -10.254   4.670  71.246  1.00  0.00    -0.205 A  
HETATM    4  C   UNL     1     -10.164   5.957  71.776  1.00  0.00    -0.248 A  
HETATM    5  C   UNL     1      -8.906   6.522  72.017  1.00  0.00    -0.133 A  
HETATM    6  C   UNL     1      -7.743   5.801  71.739  1.00  0.00    -0.101 A  
HETATM    7  C   UNL     1      -7.841   4.516  71.202  1.00  0.00    -0.077 A  
ENDROOT
BRANCH   5   8
HETATM    8  S   UNL     1      -8.780   8.224  72.513  1.00  0.00    -0.214 S  
HETATM    9  O   UNL     1      -7.687   8.803  71.759  1.00  0.00    -0.233 OA 
HETATM   10  O   UNL     1      -8.815   8.282  73.957  1.00  0.00    -0.192 OA 
BRANCH   8  11
HETATM   11  N   UNL     1     -10.194   8.882  71.973  1.00  0.00    -0.334 N  
HETATM   12  H   UNL     1     -10.999   8.767  72.589  1.00  0.00     0.000 HD 
BRANCH  11  13
HETATM   13  C   UNL     1     -10.437   9.575  70.788  1.00  0.00    -0.314 C  
HETATM   14  O   UNL     1     -11.242  10.496  70.807  1.00  0.00    -0.300 OA 
BRANCH  13  15
HETATM   15  N   UNL     1      -9.698   9.175  69.698  1.00  0.00    -0.170 N  
HETATM   16  H   UNL     1      -9.177   8.301  69.767  1.00  0.00     0.000 HD 
BRANCH  15  17
HETATM   17  N   UNL     1      -9.620   9.899  68.493  1.00  0.00    -0.151 NA 
HETATM   18  C   UNL     1      -8.403   9.580  67.721  1.00  0.00    -0.118 C  
HETATM   19  C   UNL     1      -8.762   8.503  66.688  1.00  0.00    -0.139 C  
HETATM   20  C   UNL     1      -8.156   7.129  66.957  1.00  0.00    -0.117 C  
HETATM   21  C   UNL     1      -9.105   6.473  67.942  1.00  0.00    -0.113 C  
HETATM   22  C   UNL     1     -10.482   6.955  67.499  1.00  0.00    -0.314 C  
HETATM   23  C   UNL     1     -10.276   8.315  66.810  1.00  0.00    -0.375 C  
HETATM   24  C   UNL     1     -10.734   9.540  67.596  1.00  0.00    -0.250 C  
ENDBRANCH  15  17
ENDBRANCH  13  15
ENDBRANCH  11  13
ENDBRANCH   8  11
ENDBRANCH   5   8
TORSDOF 5
ENDMDL
MODEL      209
REMARK 921   NORMALIZED FREE ENERGY PREDICTED BY IDOCK:   -3.91 KCAL/MOL
REMARK 922        TOTAL FREE ENERGY PREDICTED BY IDOCK:   -5.83 KCAL/MOL
REMARK 923 INTER-LIGAND FREE ENERGY PREDICTED BY IDOCK:   -4.82 KCAL/MOL
REMARK 924 INTRA-LIGAND FREE ENERGY PREDICTED BY IDOCK:   -1.01 KCAL/MOL
REMARK 927      BINDING AFFINITY PREDICTED BY RF-SCORE:    0.00 PKD
ROOT
HETATM    1  C   UNL     1     -12.452   9.526  71.880  1.00  0.00    -0.465 C  
HETATM    2  C   UNL     1     -12.008  10.212  70.623  1.00  0.00    -0.423 A  
HETATM    3  C   UNL     1     -12.354  11.546  70.376  1.00  0.00    -0.390 A  
HETATM    4  C   UNL     1     -12.008  12.152  69.168  1.00  0.00    -0.311 A  
HETATM    5  C   UNL     1     -11.299  11.426  68.204  1.00  0.00    -0.304 A  
HETATM    6  C   UNL     1     -10.926  10.104  68.450  1.00  0.00    -0.293 A  
HETATM    7  C   UNL     1     -11.280   9.501  69.658  1.00  0.00    -0.138 A  
ENDROOT
BRANCH   5   8
HETATM    8  S   UNL     1     -11.020  12.128  66.595  1.00  0.00    -0.297 S  
HETATM    9  O   UNL     1      -9.748  12.819  66.651  1.00  0.00    -0.238 OA 
HETATM   10  O   UNL     1     -12.228  12.802  66.176  1.00  0.00    -0.521 OA 
BRANCH   8  11
HETATM   11  N   UNL     1     -10.851  10.801  65.627  1.00  0.00    -0.070 N  
HETATM   12  H   UNL     1     -11.665  10.187  65.573  1.00  0.00     0.000 HD 
BRANCH  11  13
HETATM   13  C   UNL     1      -9.747  10.406  64.874  1.00  0.00    -0.309 C  
HETATM   14  O   UNL     1      -9.833  10.443  63.653  1.00  0.00    -0.310 OA 
BRANCH  13  15
HETATM   15  N   UNL     1      -8.629  10.048  65.592  1.00  0.00    -0.149 N  
HETATM   16  H   UNL     1      -8.726   9.316  66.295  1.00  0.00     0.000 HD 
BRANCH  15  17
HETATM   17  N   UNL     1      -7.361  10.631  65.412  1.00  0.00    -0.076 NA 
HETATM   18  C   UNL     1      -6.665  10.871  66.693  1.00  0.00    -0.127 C  
HETATM   19  C   UNL     1      -5.735   9.680  66.960  1.00  0.00    -0.051 C  
HETATM   20  C   UNL     1      -6.162   8.782  68.117  1.00  0.00    -0.051 C  
HETATM   21  C   UNL     1      -7.177   7.829  67.515  1.00  0.00    -0.091 C  
HETATM   22  C   UNL     1      -6.643   7.566  66.112  1.00  0.00    -0.046 C  
HETATM   23  C   UNL     1      -5.826   8.805  65.708  1.00  0.00    -0.051 C  
HETATM   24  C   UNL     1      -6.469   9.721  64.670  1.00  0.00    -0.111 C  
ENDBRANCH  15  17
ENDBRANCH  13  15
ENDBRANCH  11  13
ENDBRANCH   8  11
ENDBRANCH   5   8
TORSDOF 5
ENDMDL
MODEL      210
REMARK 921   NORMALIZED FREE ENERGY PREDICTED BY IDOCK:   -3.87 KCAL/MOL
REMARK 922        TOTAL FREE ENERGY PREDICTED BY IDOCK:   -5.78 KCAL/MOL
REMARK 923 INTER-LIGAND FREE ENERGY PREDICTED BY IDOCK:   -4.84 KCAL/MOL
REMARK 924 INTRA-LIGAND FREE ENERGY PREDICTED BY IDOCK:   -0.94 KCAL/MOL
REMARK 927      BINDING AFFINITY PREDICTED BY RF-SCORE:    0.00 PKD
ROOT
HETATM    1  C   UNL     1      -9.132   4.617  64.896  1.00  0.00    -0.154 C  
HETATM    2  C   UNL     1      -9.378   5.181  66.264  1.00  0.00    -0.155 A  
HETATM    3  C   UNL     1     -10.663   5.579  66.652  1.00  0.00    -0.332 A  
HETATM    4  C   UNL     1     -10.870   6.178  67.895  1.00  0.00    -0.406 A  
HETATM    5  C   UNL     1      -9.789   6.368  68.763  1.00  0.00    -0.139 A  
HETATM    6  C   UNL     1      -8.508   5.953  68.397  1.00  0.00    -0.111 A  
HETATM    7  C   UNL     1      -8.306   5.360  67.150  1.00  0.00    -0.107 A  
ENDROOT
BRANCH   5   8
HETATM    8  S   UNL     1     -10.011   7.297  70.262  1.00  0.00    -0.188 S  
HETATM    9  O   UNL     1      -8.766   7.995  70.513  1.00  0.00    -0.132 OA 
HETATM   10  O   UNL     1     -10.601   6.428  71.254  1.00  0.00    -0.218 OA 
BRANCH   8  11
HETATM   11  N   UNL     1     -11.160   8.410  69.853  1.00  0.00    -0.421 N  
HETATM   12  H   UNL     1     -12.100   8.041  69.710  1.00  0.00     0.000 HD 
BRANCH  11  13
HETATM   13  C   UNL     1     -11.019   9.785  69.676  1.00  0.00    -0.241 C  
HETATM   14  O   UNL     1     -11.521  10.533  70.505  1.00  0.00    -0.313 OA 
BRANCH  13  15
HETATM   15  N   UNL     1     -10.273  10.176  68.588  1.00  0.00    -0.168 N  
HETATM   16  H   UNL     1     -10.502   9.771  67.680  1.00  0.00     0.000 HD 
BRANCH  15  17
HETATM   17  N   UNL     1      -9.214  11.101  68.652  1.00  0.00    -0.178 NA 
HETATM   18  C   UNL     1      -8.062  10.697  67.821  1.00  0.00    -0.111 C  
HETATM   19  C   UNL     1      -8.184  11.403  66.463  1.00  0.00    -0.152 C  
HETATM   20  C   UNL     1      -8.511  10.485  65.290  1.00  0.00    -0.175 C  
HETATM   21  C   UNL     1     -10.021  10.334  65.325  1.00  0.00    -0.387 C  
HETATM   22  C   UNL     1     -10.514  11.708  65.764  1.00  0.00    -0.308 C  
HETATM   23  C   UNL     1      -9.387  12.339  66.600  1.00  0.00    -0.228 C  
HETATM   24  C   UNL     1      -9.628  12.406  68.105  1.00  0.00    -0.218 C  
ENDBRANCH  15  17
ENDBRANCH  13  15
ENDBRANCH  11  13
ENDBRANCH   8  11
ENDBRANCH   5   8
TORSDOF 5
ENDMDL
MODEL      211
REMARK 921   NORMALIZED FREE ENERGY PREDICTED BY IDOCK:   -3.83 KCAL/MOL
REMARK 922        TOTAL FREE ENERGY PREDICTED BY IDOCK:   -5.73 KCAL/MOL
REMARK 923 INTER-LIGAND FREE ENERGY PREDICTED BY IDOCK:   -4.90 KCAL/MOL
REMARK 924 INTRA-LIGAND FREE ENERGY PREDICTED BY IDOCK:   -0.82 KCAL/MOL
REMARK 927      BINDING AFFINITY PREDICTED BY RF-SCORE:    0.00 PKD
ROOT
HETATM    1  C   UNL     1     -10.072  17.769  66.934  1.00  0.00    -0.342 C  
HETATM    2  C   UNL     1     -10.564  16.446  66.428  1.00  0.00    -0.236 A  
HETATM    3  C   UNL     1     -10.659  15.343  67.285  1.00  0.00    -0.294 A  
HETATM    4  C   UNL     1     -11.039  14.096  66.790  1.00  0.00    -0.314 A  
HETATM    5  C   UNL     1     -11.340  13.950  65.431  1.00  0.00    -0.309 A  
HETATM    6  C   UNL     1     -11.274  15.048  64.572  1.00  0.00    -0.276 A  
HETATM    7  C   UNL     1     -10.887  16.293  65.072  1.00  0.00    -0.337 A  
ENDROOT
BRANCH   5   8
HETATM    8  S   UNL     1     -11.640  12.333  64.759  1.00  0.00    -0.328 S  
HETATM    9  O   UNL     1     -11.982  12.514  63.362  1.00  0.00    -0.497 OA 
HETATM   10  O   UNL     1     -12.512  11.618  65.662  1.00  0.00     0.242 OA 
BRANCH   8  11
HETATM   11  N   UNL     1     -10.161  11.606  64.844  1.00  0.00    -0.251 N  
HETATM   12  H   UNL     1      -9.370  12.232  65.000  1.00  0.00     0.000 HD 
BRANCH  11  13
HETATM   13  C   UNL     1      -9.845  10.253  64.731  1.00  0.00    -0.334 C  
HETATM   14  O   UNL     1      -9.491   9.827  63.640  1.00  0.00    -0.217 OA 
BRANCH  13  15
HETATM   15  N   UNL     1      -9.922   9.521  65.894  1.00  0.00    -0.294 N  
HETATM   16  H   UNL     1     -10.680   9.731  66.543  1.00  0.00     0.000 HD 
BRANCH  15  17
HETATM   17  N   UNL     1      -9.015   8.502  66.241  1.00  0.00    -0.157 NA 
HETATM   18  C   UNL     1      -7.720   9.035  66.711  1.00  0.00    -0.093 C  
HETATM   19  C   UNL     1      -7.758   9.096  68.244  1.00  0.00    -0.091 C  
HETATM   20  C   UNL     1      -7.801  10.504  68.828  1.00  0.00    -0.116 C  
HETATM   21  C   UNL     1      -9.267  10.893  68.797  1.00  0.00    -0.187 C  
HETATM   22  C   UNL     1      -9.996   9.592  69.113  1.00  0.00    -0.189 C  
HETATM   23  C   UNL     1      -9.084   8.446  68.643  1.00  0.00    -0.140 C  
HETATM   24  C   UNL     1      -9.527   7.715  67.379  1.00  0.00    -0.143 C  
ENDBRANCH  15  17
ENDBRANCH  13  15
ENDBRANCH  11  13
ENDBRANCH   8  11
ENDBRANCH   5   8
TORSDOF 5
ENDMDL
MODEL      212
REMARK 921   NORMALIZED FREE ENERGY PREDICTED BY IDOCK:   -3.83 KCAL/MOL
REMARK 922        TOTAL FREE ENERGY PREDICTED BY IDOCK:   -5.72 KCAL/MOL
REMARK 923 INTER-LIGAND FREE ENERGY PREDICTED BY IDOCK:   -4.87 KCAL/MOL
REMARK 924 INTRA-LIGAND FREE ENERGY PREDICTED BY IDOCK:   -0.85 KCAL/MOL
REMARK 927      BINDING AFFINITY PREDICTED BY RF-SCORE:    0.00 PKD
ROOT
HETATM    1  C   UNL     1      -8.796   8.666  62.381  1.00  0.00    -0.033 C  
HETATM    2  C   UNL     1      -9.071   9.641  63.487  1.00  0.00    -0.211 A  
HETATM    3  C   UNL     1     -10.030  10.648  63.330  1.00  0.00    -0.314 A  
HETATM    4  C   UNL     1     -10.222  11.602  64.330  1.00  0.00    -0.357 A  
HETATM    5  C   UNL     1      -9.462  11.541  65.503  1.00  0.00    -0.212 A  
HETATM    6  C   UNL     1      -8.521  10.526  65.682  1.00  0.00    -0.179 A  
HETATM    7  C   UNL     1      -8.328   9.578  64.675  1.00  0.00    -0.161 A  
ENDROOT
BRANCH   5   8
HETATM    8  S   UNL     1      -9.566  12.854  66.695  1.00  0.00    -0.259 S  
HETATM    9  O   UNL     1      -8.690  13.912  66.234  1.00  0.00     0.092 OA 
HETATM   10  O   UNL     1      -9.430  12.284  68.016  1.00  0.00    -0.193 OA 
BRANCH   8  11
HETATM   11  N   UNL     1     -11.128  13.371  66.555  1.00  0.00    -0.294 N  
HETATM   12  H   UNL     1     -11.844  12.679  66.778  1.00  0.00     0.000 HD 
BRANCH  11  13
HETATM   13  C   UNL     1     -11.601  14.625  66.172  1.00  0.00    -0.332 C  
HETATM   14  O   UNL     1     -12.615  14.682  65.490  1.00  0.00    -0.247 OA 
BRANCH  13  15
HETATM   15  N   UNL     1     -10.890  15.704  66.648  1.00  0.00    -0.299 N  
HETATM   16  H   UNL     1     -10.282  16.201  65.997  1.00  0.00     0.000 HD 
BRANCH  15  17
HETATM   17  N   UNL     1     -10.953  16.161  67.978  1.00  0.00    -0.342 NA 
HETATM   18  C   UNL     1      -9.688  15.942  68.709  1.00  0.00    -0.216 C  
HETATM   19  C   UNL     1      -8.864  17.235  68.632  1.00  0.00    -0.261 C  
HETATM   20  C   UNL     1      -7.612  17.145  67.765  1.00  0.00    -0.185 C  
HETATM   21  C   UNL     1      -8.100  17.396  66.350  1.00  0.00    -0.315 C  
HETATM   22  C   UNL     1      -9.196  18.441  66.523  1.00  0.00    -0.300 C  
HETATM   23  C   UNL     1      -9.771  18.253  67.937  1.00  0.00    -0.314 C  
HETATM   24  C   UNL     1     -11.158  17.621  68.018  1.00  0.00     0.059 C  
ENDBRANCH  15  17
ENDBRANCH  13  15
ENDBRANCH  11  13
ENDBRANCH   8  11
ENDBRANCH   5   8
TORSDOF 5
ENDMDL
MODEL      213
REMARK 921   NORMALIZED FREE ENERGY PREDICTED BY IDOCK:   -3.81 KCAL/MOL
REMARK 922        TOTAL FREE ENERGY PREDICTED BY IDOCK:   -5.70 KCAL/MOL
REMARK 923 INTER-LIGAND FREE ENERGY PREDICTED BY IDOCK:   -4.94 KCAL/MOL
REMARK 924 INTRA-LIGAND FREE ENERGY PREDICTED BY IDOCK:   -0.76 KCAL/MOL
REMARK 927      BINDING AFFINITY PREDICTED BY RF-SCORE:    0.00 PKD
ROOT
HETATM    1  C   UNL     1      -5.247  14.814  69.742  1.00  0.00    -0.093 C  
HETATM    2  C   UNL     1      -6.564  14.747  69.027  1.00  0.00    -0.100 A  
HETATM    3  C   UNL     1      -6.734  13.908  67.919  1.00  0.00    -0.165 A  
HETATM    4  C   UNL     1      -7.935  13.912  67.209  1.00  0.00    -0.147 A  
HETATM    5  C   UNL     1      -8.980  14.749  67.617  1.00  0.00    -0.182 A  
HETATM    6  C   UNL     1      -8.831  15.571  68.734  1.00  0.00    -0.203 A  
HETATM    7  C   UNL     1      -7.625  15.568  69.437  1.00  0.00    -0.225 A  
ENDROOT
BRANCH   5   8
HETATM    8  S   UNL     1     -10.438  14.898  66.611  1.00  0.00    -0.299 S  
HETATM    9  O   UNL     1     -10.151  15.893  65.598  1.00  0.00    -0.327 OA 
HETATM   10  O   UNL     1     -11.583  15.019  67.484  1.00  0.00    -0.344 OA 
BRANCH   8  11
HETATM   11  N   UNL     1     -10.546  13.423  65.879  1.00  0.00    -0.279 N  
HETATM   12  H   UNL     1      -9.881  13.255  65.123  1.00  0.00     0.000 HD 
BRANCH  11  13
HETATM   13  C   UNL     1     -11.424  12.375  66.152  1.00  0.00    -0.379 C  
HETATM   14  O   UNL     1     -12.552  12.422  65.679  1.00  0.00    -0.575 OA 
BRANCH  13  15
HETATM   15  N   UNL     1     -10.911  11.346  66.909  1.00  0.00    -0.288 N  
HETATM   16  H   UNL     1     -11.286  11.209  67.847  1.00  0.00     0.000 HD 
BRANCH  15  17
HETATM   17  N   UNL     1      -9.901  10.472  66.463  1.00  0.00    -0.199 NA 
HETATM   18  C   UNL     1      -8.711  10.496  67.337  1.00  0.00    -0.125 C  
HETATM   19  C   UNL     1      -8.834   9.342  68.342  1.00  0.00    -0.128 C  
HETATM   20  C   UNL     1      -9.087   9.772  69.783  1.00  0.00    -0.246 C  
HETATM   21  C   UNL     1     -10.587   9.980  69.869  1.00  0.00    -0.324 C  
HETATM   22  C   UNL     1     -11.159   8.887  68.974  1.00  0.00     0.141 C  
HETATM   23  C   UNL     1     -10.086   8.569  67.919  1.00  0.00    -0.258 C  
HETATM   24  C   UNL     1     -10.366   9.073  66.506  1.00  0.00    -0.193 C  
ENDBRANCH  15  17
ENDBRANCH  13  15
ENDBRANCH  11  13
ENDBRANCH   8  11
ENDBRANCH   5   8
TORSDOF 5
ENDMDL
MODEL      214
REMARK 921   NORMALIZED FREE ENERGY PREDICTED BY IDOCK:   -3.80 KCAL/MOL
REMARK 922        TOTAL FREE ENERGY PREDICTED BY IDOCK:   -5.69 KCAL/MOL
REMARK 923 INTER-LIGAND FREE ENERGY PREDICTED BY IDOCK:   -5.15 KCAL/MOL
REMARK 924 INTRA-LIGAND FREE ENERGY PREDICTED BY IDOCK:   -0.55 KCAL/MOL
REMARK 927      BINDING AFFINITY PREDICTED BY RF-SCORE:    0.00 PKD
ROOT
HETATM    1  C   UNL     1      -8.033  17.011  66.946  1.00  0.00    -0.256 C  
HETATM    2  C   UNL     1      -8.755  15.742  67.288  1.00  0.00    -0.210 A  
HETATM    3  C   UNL     1      -9.851  15.316  66.528  1.00  0.00    -0.283 A  
HETATM    4  C   UNL     1     -10.569  14.180  66.900  1.00  0.00    -0.280 A  
HETATM    5  C   UNL     1     -10.182  13.453  68.032  1.00  0.00    -0.243 A  
HETATM    6  C   UNL     1      -9.076  13.854  68.784  1.00  0.00    -0.002 A  
HETATM    7  C   UNL     1      -8.365  14.996  68.409  1.00  0.00    -0.154 A  
ENDROOT
BRANCH   5   8
HETATM    8  S   UNL     1     -11.200  12.120  68.619  1.00  0.00    -0.293 S  
HETATM    9  O   UNL     1     -11.992  11.668  67.494  1.00  0.00    -0.622 OA 
HETATM   10  O   UNL     1     -11.817  12.529  69.860  1.00  0.00    -0.325 OA 
BRANCH   8  11
HETATM   11  N   UNL     1     -10.104  10.943  68.993  1.00  0.00    -0.232 N  
HETATM   12  H   UNL     1      -9.758  10.951  69.953  1.00  0.00     0.000 HD 
BRANCH  11  13
HETATM   13  C   UNL     1      -9.588   9.940  68.175  1.00  0.00    -0.139 C  
HETATM   14  O   UNL     1      -8.970  10.268  67.171  1.00  0.00    -0.135 OA 
BRANCH  13  15
HETATM   15  N   UNL     1      -9.790   8.650  68.609  1.00  0.00    -0.165 N  
HETATM   16  H   UNL     1     -10.075   8.509  69.578  1.00  0.00     0.000 HD 
BRANCH  15  17
HETATM   17  N   UNL     1      -9.626   7.512  67.795  1.00  0.00    -0.140 NA 
HETATM   18  C   UNL     1      -8.549   6.625  68.278  1.00  0.00    -0.119 C  
HETATM   19  C   UNL     1      -9.187   5.530  69.144  1.00  0.00    -0.142 C  
HETATM   20  C   UNL     1      -8.874   5.627  70.634  1.00  0.00    -0.145 C  
HETATM   21  C   UNL     1      -9.885   6.619  71.178  1.00  0.00    -0.195 C  
HETATM   22  C   UNL     1     -11.149   6.327  70.379  1.00  0.00    -0.416 C  
HETATM   23  C   UNL     1     -10.697   5.748  69.027  1.00  0.00    -0.354 C  
HETATM   24  C   UNL     1     -10.839   6.674  67.822  1.00  0.00    -0.294 C  
ENDBRANCH  15  17
ENDBRANCH  13  15
ENDBRANCH  11  13
ENDBRANCH   8  11
ENDBRANCH   5   8
TORSDOF 5
ENDMDL
MODEL      215
REMARK 921   NORMALIZED FREE ENERGY PREDICTED BY IDOCK:   -3.80 KCAL/MOL
REMARK 922        TOTAL FREE ENERGY PREDICTED BY IDOCK:   -5.69 KCAL/MOL
REMARK 923 INTER-LIGAND FREE ENERGY PREDICTED BY IDOCK:   -5.10 KCAL/MOL
REMARK 924 INTRA-LIGAND FREE ENERGY PREDICTED BY IDOCK:   -0.59 KCAL/MOL
REMARK 927      BINDING AFFINITY PREDICTED BY RF-SCORE:    0.00 PKD
ROOT
HETATM    1  C   UNL     1      -7.925   5.303  65.980  1.00  0.00    -0.104 C  
HETATM    2  C   UNL     1      -8.562   6.661  65.944  1.00  0.00    -0.153 A  
HETATM    3  C   UNL     1      -8.208   7.591  64.960  1.00  0.00    -0.105 A  
HETATM    4  C   UNL     1      -8.742   8.879  64.982  1.00  0.00    -0.200 A  
HETATM    5  C   UNL     1      -9.649   9.238  65.986  1.00  0.00    -0.270 A  
HETATM    6  C   UNL     1     -10.029   8.312  66.958  1.00  0.00    -0.325 A  
HETATM    7  C   UNL     1      -9.486   7.026  66.934  1.00  0.00    -0.199 A  
ENDROOT
BRANCH   5   8
HETATM    8  S   UNL     1     -10.187  10.926  66.131  1.00  0.00    -0.250 S  
HETATM    9  O   UNL     1     -11.187  10.960  67.179  1.00  0.00    -0.316 OA 
HETATM   10  O   UNL     1     -10.465  11.432  64.806  1.00  0.00    -0.276 OA 
BRANCH   8  11
HETATM   11  N   UNL     1      -8.838  11.709  66.670  1.00  0.00    -0.184 N  
HETATM   12  H   UNL     1      -7.966  11.463  66.200  1.00  0.00     0.000 HD 
BRANCH  11  13
HETATM   13  C   UNL     1      -8.728  12.662  67.682  1.00  0.00    -0.179 C  
HETATM   14  O   UNL     1      -8.436  12.284  68.809  1.00  0.00    -0.037 OA 
BRANCH  13  15
HETATM   15  N   UNL     1      -8.918  13.969  67.296  1.00  0.00    -0.207 N  
HETATM   16  H   UNL     1      -8.228  14.661  67.589  1.00  0.00     0.000 HD 
BRANCH  15  17
HETATM   17  N   UNL     1     -10.008  14.409  66.520  1.00  0.00    -0.273 NA 
HETATM   18  C   UNL     1     -11.293  14.292  67.238  1.00  0.00    -0.334 C  
HETATM   19  C   UNL     1     -11.604  15.650  67.882  1.00  0.00    -0.195 C  
HETATM   20  C   UNL     1     -11.510  15.674  69.405  1.00  0.00    -0.354 C  
HETATM   21  C   UNL     1     -10.038  15.894  69.699  1.00  0.00    -0.271 C  
HETATM   22  C   UNL     1      -9.583  16.841  68.595  1.00  0.00    -0.255 C  
HETATM   23  C   UNL     1     -10.505  16.594  67.389  1.00  0.00    -0.314 C  
HETATM   24  C   UNL     1      -9.883  15.846  66.213  1.00  0.00    -0.302 C  
ENDBRANCH  15  17
ENDBRANCH  13  15
ENDBRANCH  11  13
ENDBRANCH   8  11
ENDBRANCH   5   8
TORSDOF 5
ENDMDL
MODEL      216
REMARK 921   NORMALIZED FREE ENERGY PREDICTED BY IDOCK:   -3.79 KCAL/MOL
REMARK 922        TOTAL FREE ENERGY PREDICTED BY IDOCK:   -5.67 KCAL/MOL
REMARK 923 INTER-LIGAND FREE ENERGY PREDICTED BY IDOCK:   -4.71 KCAL/MOL
REMARK 924 INTRA-LIGAND FREE ENERGY PREDICTED BY IDOCK:   -0.96 KCAL/MOL
REMARK 927      BINDING AFFINITY PREDICTED BY RF-SCORE:    0.00 PKD
ROOT
HETATM    1  C   UNL     1     -13.509   9.456  72.530  1.00  0.00    -0.437 C  
HETATM    2  C   UNL     1     -12.861  10.317  71.487  1.00  0.00    -0.557 A  
HETATM    3  C   UNL     1     -12.842  11.711  71.621  1.00  0.00    -0.454 A  
HETATM    4  C   UNL     1     -12.311  12.510  70.608  1.00  0.00    -0.369 A  
HETATM    5  C   UNL     1     -11.782  11.913  69.458  1.00  0.00    -0.345 A  
HETATM    6  C   UNL     1     -11.773  10.524  69.324  1.00  0.00    -0.281 A  
HETATM    7  C   UNL     1     -12.311   9.730  70.338  1.00  0.00    -0.079 A  
ENDROOT
BRANCH   5   8
HETATM    8  S   UNL     1     -11.278  12.925  68.087  1.00  0.00    -0.292 S  
HETATM    9  O   UNL     1     -10.056  13.594  68.484  1.00  0.00    -0.231 OA 
HETATM   10  O   UNL     1     -12.427  13.667  67.621  1.00  0.00    -0.140 OA 
BRANCH   8  11
HETATM   11  N   UNL     1     -10.911  11.822  66.915  1.00  0.00    -0.270 N  
HETATM   12  H   UNL     1     -11.703  11.471  66.375  1.00  0.00     0.000 HD 
BRANCH  11  13
HETATM   13  C   UNL     1      -9.666  11.304  66.563  1.00  0.00    -0.202 C  
HETATM   14  O   UNL     1      -9.404  11.175  65.374  1.00  0.00    -0.212 OA 
BRANCH  13  15
HETATM   15  N   UNL     1      -8.817  11.023  67.609  1.00  0.00    -0.130 N  
HETATM   16  H   UNL     1      -9.202  10.545  68.424  1.00  0.00     0.000 HD 
BRANCH  15  17
HETATM   17  N   UNL     1      -7.449  11.355  67.621  1.00  0.00    -0.098 NA 
HETATM   18  C   UNL     1      -6.944  11.615  68.984  1.00  0.00    -0.111 C  
HETATM   19  C   UNL     1      -6.315  10.320  69.514  1.00  0.00    -0.055 C  
HETATM   20  C   UNL     1      -7.091   9.646  70.641  1.00  0.00    -0.117 C  
HETATM   21  C   UNL     1      -8.153   8.819  69.941  1.00  0.00    -0.109 C  
HETATM   22  C   UNL     1      -7.452   8.312  68.686  1.00  0.00    -0.097 C  
HETATM   23  C   UNL     1      -6.359   9.338  68.341  1.00  0.00    -0.053 C  
HETATM   24  C   UNL     1      -6.634  10.227  67.132  1.00  0.00    -0.073 C  
ENDBRANCH  15  17
ENDBRANCH  13  15
ENDBRANCH  11  13
ENDBRANCH   8  11
ENDBRANCH   5   8
TORSDOF 5
ENDMDL
MODEL      217
REMARK 921   NORMALIZED FREE ENERGY PREDICTED BY IDOCK:   -3.77 KCAL/MOL
REMARK 922        TOTAL FREE ENERGY PREDICTED BY IDOCK:   -5.65 KCAL/MOL
REMARK 923 INTER-LIGAND FREE ENERGY PREDICTED BY IDOCK:   -5.11 KCAL/MOL
REMARK 924 INTRA-LIGAND FREE ENERGY PREDICTED BY IDOCK:   -0.54 KCAL/MOL
REMARK 927      BINDING AFFINITY PREDICTED BY RF-SCORE:    0.00 PKD
ROOT
HETATM    1  C   UNL     1      -9.643  16.106  65.837  1.00  0.00    -0.359 C  
HETATM    2  C   UNL     1     -10.180  14.948  66.624  1.00  0.00    -0.264 A  
HETATM    3  C   UNL     1     -11.526  14.905  67.006  1.00  0.00    -0.333 A  
HETATM    4  C   UNL     1     -11.999  13.867  67.809  1.00  0.00    -0.390 A  
HETATM    5  C   UNL     1     -11.125  12.855  68.222  1.00  0.00    -0.264 A  
HETATM    6  C   UNL     1      -9.787  12.873  67.827  1.00  0.00    -0.221 A  
HETATM    7  C   UNL     1      -9.318  13.918  67.029  1.00  0.00    -0.255 A  
ENDROOT
BRANCH   5   8
HETATM    8  S   UNL     1     -11.673  11.636  69.394  1.00  0.00    -0.360 S  
HETATM    9  O   UNL     1     -12.631  10.793  68.708  1.00  0.00    -0.257 OA 
HETATM   10  O   UNL     1     -12.007  12.308  70.629  1.00  0.00    -0.318 OA 
BRANCH   8  11
HETATM   11  N   UNL     1     -10.311  10.749  69.684  1.00  0.00    -0.424 N  
HETATM   12  H   UNL     1      -9.445  11.132  69.302  1.00  0.00     0.000 HD 
BRANCH  11  13
HETATM   13  C   UNL     1     -10.183   9.548  70.380  1.00  0.00    -0.279 C  
HETATM   14  O   UNL     1     -10.737   9.444  71.466  1.00  0.00    -0.346 OA 
BRANCH  13  15
HETATM   15  N   UNL     1      -9.468   8.560  69.743  1.00  0.00    -0.165 N  
HETATM   16  H   UNL     1      -9.457   8.558  68.723  1.00  0.00     0.000 HD 
BRANCH  15  17
HETATM   17  N   UNL     1      -8.751   7.552  70.415  1.00  0.00    -0.143 NA 
HETATM   18  C   UNL     1      -9.113   6.198  69.952  1.00  0.00    -0.143 C  
HETATM   19  C   UNL     1      -8.099   5.774  68.881  1.00  0.00    -0.102 C  
HETATM   20  C   UNL     1      -8.658   5.693  67.464  1.00  0.00    -0.108 C  
HETATM   21  C   UNL     1      -8.588   7.114  66.938  1.00  0.00    -0.124 C  
HETATM   22  C   UNL     1      -7.299   7.662  67.538  1.00  0.00    -0.095 C  
HETATM   23  C   UNL     1      -7.054   6.892  68.847  1.00  0.00    -0.089 C  
HETATM   24  C   UNL     1      -7.307   7.667  70.137  1.00  0.00    -0.076 C  
ENDBRANCH  15  17
ENDBRANCH  13  15
ENDBRANCH  11  13
ENDBRANCH   8  11
ENDBRANCH   5   8
TORSDOF 5
ENDMDL
MODEL      218
REMARK 921   NORMALIZED FREE ENERGY PREDICTED BY IDOCK:   -3.77 KCAL/MOL
REMARK 922        TOTAL FREE ENERGY PREDICTED BY IDOCK:   -5.65 KCAL/MOL
REMARK 923 INTER-LIGAND FREE ENERGY PREDICTED BY IDOCK:   -4.28 KCAL/MOL
REMARK 924 INTRA-LIGAND FREE ENERGY PREDICTED BY IDOCK:   -1.37 KCAL/MOL
REMARK 927      BINDING AFFINITY PREDICTED BY RF-SCORE:    0.00 PKD
ROOT
HETATM    1  C   UNL     1      -9.651   8.543  66.496  1.00  0.00    -0.303 C  
HETATM    2  C   UNL     1     -10.326   8.224  67.797  1.00  0.00    -0.296 A  
HETATM    3  C   UNL     1     -10.500   9.212  68.773  1.00  0.00    -0.236 A  
HETATM    4  C   UNL     1     -11.053   8.890  70.012  1.00  0.00    -0.180 A  
HETATM    5  C   UNL     1     -11.450   7.573  70.274  1.00  0.00    -0.152 A  
HETATM    6  C   UNL     1     -11.305   6.585  69.300  1.00  0.00    -0.359 A  
HETATM    7  C   UNL     1     -10.744   6.912  68.064  1.00  0.00    -0.276 A  
ENDROOT
BRANCH   5   8
HETATM    8  S   UNL     1     -11.979   7.116  71.908  1.00  0.00    -0.312 S  
HETATM    9  O   UNL     1     -13.381   6.763  71.814  1.00  0.00    -0.296 OA 
HETATM   10  O   UNL     1     -11.515   8.123  72.836  1.00  0.00    -0.389 OA 
BRANCH   8  11
HETATM   11  N   UNL     1     -11.115   5.744  72.217  1.00  0.00    -0.265 N  
HETATM   12  H   UNL     1     -11.149   5.028  71.491  1.00  0.00     0.000 HD 
BRANCH  11  13
HETATM   13  C   UNL     1     -10.344   5.432  73.336  1.00  0.00    -0.216 C  
HETATM   14  O   UNL     1     -10.908   4.977  74.323  1.00  0.00    -0.320 OA 
BRANCH  13  15
HETATM   15  N   UNL     1      -8.989   5.627  73.204  1.00  0.00    -0.122 N  
HETATM   16  H   UNL     1      -8.624   6.568  73.350  1.00  0.00     0.000 HD 
BRANCH  15  17
HETATM   17  N   UNL     1      -8.076   4.606  72.877  1.00  0.00    -0.099 NA 
HETATM   18  C   UNL     1      -8.115   4.252  71.444  1.00  0.00    -0.082 C  
HETATM   19  C   UNL     1      -7.011   5.041  70.728  1.00  0.00    -0.048 C  
HETATM   20  C   UNL     1      -7.510   6.139  69.794  1.00  0.00    -0.081 C  
HETATM   21  C   UNL     1      -7.752   7.335  70.696  1.00  0.00    -0.093 C  
HETATM   22  C   UNL     1      -6.631   7.249  71.725  1.00  0.00    -0.047 C  
HETATM   23  C   UNL     1      -6.244   5.764  71.838  1.00  0.00    -0.044 C  
HETATM   24  C   UNL     1      -6.690   5.052  73.112  1.00  0.00    -0.068 C  
ENDBRANCH  15  17
ENDBRANCH  13  15
ENDBRANCH  11  13
ENDBRANCH   8  11
ENDBRANCH   5   8
TORSDOF 5
ENDMDL
MODEL      219
REMARK 921   NORMALIZED FREE ENERGY PREDICTED BY IDOCK:   -3.74 KCAL/MOL
REMARK 922        TOTAL FREE ENERGY PREDICTED BY IDOCK:   -5.62 KCAL/MOL
REMARK 923 INTER-LIGAND FREE ENERGY PREDICTED BY IDOCK:   -4.72 KCAL/MOL
REMARK 924 INTRA-LIGAND FREE ENERGY PREDICTED BY IDOCK:   -0.90 KCAL/MOL
REMARK 927      BINDING AFFINITY PREDICTED BY RF-SCORE:    0.00 PKD
ROOT
HETATM    1  C   UNL     1     -11.916  14.388  67.639  1.00  0.00    -0.378 C  
HETATM    2  C   UNL     1     -11.602  12.921  67.677  1.00  0.00    -0.406 A  
HETATM    3  C   UNL     1     -11.812  12.176  68.843  1.00  0.00    -0.358 A  
HETATM    4  C   UNL     1     -11.441  10.832  68.898  1.00  0.00    -0.362 A  
HETATM    5  C   UNL     1     -10.869  10.223  67.775  1.00  0.00    -0.292 A  
HETATM    6  C   UNL     1     -10.678  10.950  66.599  1.00  0.00    -0.289 A  
HETATM    7  C   UNL     1     -11.046  12.296  66.552  1.00  0.00    -0.343 A  
ENDROOT
BRANCH   5   8
HETATM    8  S   UNL     1     -10.223   8.572  67.895  1.00  0.00    -0.223 S  
HETATM    9  O   UNL     1     -11.159   7.703  67.212  1.00  0.00    -0.157 OA 
HETATM   10  O   UNL     1      -9.835   8.333  69.267  1.00  0.00    -0.178 OA 
BRANCH   8  11
HETATM   11  N   UNL     1      -8.833   8.643  67.008  1.00  0.00    -0.130 N  
HETATM   12  H   UNL     1      -8.011   8.993  67.502  1.00  0.00     0.000 HD 
BRANCH  11  13
HETATM   13  C   UNL     1      -8.629   8.289  65.676  1.00  0.00    -0.166 C  
HETATM   14  O   UNL     1      -8.145   9.121  64.920  1.00  0.00    -0.119 OA 
BRANCH  13  15
HETATM   15  N   UNL     1      -8.958   6.995  65.343  1.00  0.00    -0.369 N  
HETATM   16  H   UNL     1      -9.902   6.671  65.553  1.00  0.00     0.000 HD 
BRANCH  15  17
HETATM   17  N   UNL     1      -8.070   6.091  64.729  1.00  0.00    -0.130 NA 
HETATM   18  C   UNL     1      -6.924   5.751  65.596  1.00  0.00    -0.068 C  
HETATM   19  C   UNL     1      -7.253   4.445  66.331  1.00  0.00    -0.076 C  
HETATM   20  C   UNL     1      -7.497   4.596  67.829  1.00  0.00    -0.077 C  
HETATM   21  C   UNL     1      -8.952   5.006  67.947  1.00  0.00    -0.116 C  
HETATM   22  C   UNL     1      -9.643   4.224  66.836  1.00  0.00    -0.225 C  
HETATM   23  C   UNL     1      -8.587   3.975  65.745  1.00  0.00    -0.110 C  
HETATM   24  C   UNL     1      -8.735   4.801  64.469  1.00  0.00    -0.153 C  
ENDBRANCH  15  17
ENDBRANCH  13  15
ENDBRANCH  11  13
ENDBRANCH   8  11
ENDBRANCH   5   8
TORSDOF 5
ENDMDL
MODEL      220
REMARK 921   NORMALIZED FREE ENERGY PREDICTED BY IDOCK:   -3.74 KCAL/MOL
REMARK 922        TOTAL FREE ENERGY PREDICTED BY IDOCK:   -5.61 KCAL/MOL
REMARK 923 INTER-LIGAND FREE ENERGY PREDICTED BY IDOCK:   -5.14 KCAL/MOL
REMARK 924 INTRA-LIGAND FREE ENERGY PREDICTED BY IDOCK:   -0.47 KCAL/MOL
REMARK 927      BINDING AFFINITY PREDICTED BY RF-SCORE:    0.00 PKD
ROOT
HETATM    1  C   UNL     1      -9.268  10.029  62.379  1.00  0.00    -0.319 C  
HETATM    2  C   UNL     1      -9.276  10.275  63.859  1.00  0.00    -0.312 A  
HETATM    3  C   UNL     1     -10.409  10.802  64.490  1.00  0.00    -0.401 A  
HETATM    4  C   UNL     1     -10.381  11.106  65.851  1.00  0.00    -0.314 A  
HETATM    5  C   UNL     1      -9.217  10.869  66.592  1.00  0.00    -0.168 A  
HETATM    6  C   UNL     1      -8.089  10.321  65.979  1.00  0.00    -0.139 A  
HETATM    7  C   UNL     1      -8.122  10.025  64.615  1.00  0.00    -0.155 A  
ENDROOT
BRANCH   5   8
HETATM    8  S   UNL     1      -9.111  11.426  68.276  1.00  0.00    -0.183 S  
HETATM    9  O   UNL     1     -10.423  11.245  68.863  1.00  0.00    -0.201 OA 
HETATM   10  O   UNL     1      -8.449  12.710  68.291  1.00  0.00    -0.169 OA 
BRANCH   8  11
HETATM   11  N   UNL     1      -8.075  10.344  68.969  1.00  0.00    -0.128 N  
HETATM   12  H   UNL     1      -7.132  10.323  68.579  1.00  0.00     0.000 HD 
BRANCH  11  13
HETATM   13  C   UNL     1      -8.313   9.455  70.016  1.00  0.00    -0.180 C  
HETATM   14  O   UNL     1      -7.709   9.620  71.068  1.00  0.00    -0.323 OA 
BRANCH  13  15
HETATM   15  N   UNL     1      -9.258   8.485  69.774  1.00  0.00    -0.155 N  
HETATM   16  H   UNL     1      -8.950   7.613  69.343  1.00  0.00     0.000 HD 
BRANCH  15  17
HETATM   17  N   UNL     1     -10.624   8.623  70.087  1.00  0.00    -0.220 NA 
HETATM   18  C   UNL     1     -11.359   7.348  69.976  1.00  0.00    -0.127 C  
HETATM   19  C   UNL     1     -11.424   6.712  71.371  1.00  0.00    -0.349 C  
HETATM   20  C   UNL     1     -10.582   5.452  71.541  1.00  0.00    -0.285 C  
HETATM   21  C   UNL     1      -9.187   5.957  71.858  1.00  0.00    -0.155 C  
HETATM   22  C   UNL     1      -9.432   7.191  72.719  1.00  0.00    -0.176 C  
HETATM   23  C   UNL     1     -10.809   7.747  72.317  1.00  0.00    -0.339 C  
HETATM   24  C   UNL     1     -10.798   9.032  71.493  1.00  0.00    -0.346 C  
ENDBRANCH  15  17
ENDBRANCH  13  15
ENDBRANCH  11  13
ENDBRANCH   8  11
ENDBRANCH   5   8
TORSDOF 5
ENDMDL
MODEL      221
REMARK 921   NORMALIZED FREE ENERGY PREDICTED BY IDOCK:   -3.74 KCAL/MOL
REMARK 922        TOTAL FREE ENERGY PREDICTED BY IDOCK:   -5.61 KCAL/MOL
REMARK 923 INTER-LIGAND FREE ENERGY PREDICTED BY IDOCK:   -4.88 KCAL/MOL
REMARK 924 INTRA-LIGAND FREE ENERGY PREDICTED BY IDOCK:   -0.73 KCAL/MOL
REMARK 927      BINDING AFFINITY PREDICTED BY RF-SCORE:    0.00 PKD
ROOT
HETATM    1  C   UNL     1      -6.616  10.319  62.406  1.00  0.00    -0.137 C  
HETATM    2  C   UNL     1      -7.299   9.788  63.632  1.00  0.00    -0.121 A  
HETATM    3  C   UNL     1      -8.694   9.700  63.692  1.00  0.00    -0.240 A  
HETATM    4  C   UNL     1      -9.325   9.284  64.865  1.00  0.00    -0.142 A  
HETATM    5  C   UNL     1      -8.557   8.940  65.983  1.00  0.00    -0.145 A  
HETATM    6  C   UNL     1      -7.163   9.000  65.927  1.00  0.00    -0.093 A  
HETATM    7  C   UNL     1      -6.538   9.423  64.753  1.00  0.00    -0.079 A  
ENDROOT
BRANCH   5   8
HETATM    8  S   UNL     1      -9.354   8.592  67.532  1.00  0.00    -0.139 S  
HETATM    9  O   UNL     1      -8.451   9.029  68.578  1.00  0.00    -0.126 OA 
HETATM   10  O   UNL     1      -9.862   7.241  67.491  1.00  0.00    -0.141 OA 
BRANCH   8  11
HETATM   11  N   UNL     1     -10.663   9.598  67.520  1.00  0.00    -0.319 N  
HETATM   12  H   UNL     1     -11.108   9.732  66.611  1.00  0.00     0.000 HD 
BRANCH  11  13
HETATM   13  C   UNL     1     -11.243  10.289  68.582  1.00  0.00    -0.208 C  
HETATM   14  O   UNL     1     -11.350  11.505  68.496  1.00  0.00    -0.227 OA 
BRANCH  13  15
HETATM   15  N   UNL     1     -11.688   9.515  69.629  1.00  0.00    -0.430 N  
HETATM   16  H   UNL     1     -12.249   8.692  69.410  1.00  0.00     0.000 HD 
BRANCH  15  17
HETATM   17  N   UNL     1     -11.416   9.791  70.982  1.00  0.00    -0.352 NA 
HETATM   18  C   UNL     1     -12.452   9.254  71.887  1.00  0.00    -0.382 C  
HETATM   19  C   UNL     1     -11.979   7.885  72.393  1.00  0.00    -0.373 C  
HETATM   20  C   UNL     1     -12.768   6.695  71.855  1.00  0.00    -0.260 C  
HETATM   21  C   UNL     1     -12.139   6.391  70.508  1.00  0.00    -0.094 C  
HETATM   22  C   UNL     1     -10.657   6.668  70.726  1.00  0.00    -0.265 C  
HETATM   23  C   UNL     1     -10.560   7.718  71.846  1.00  0.00    -0.270 C  
HETATM   24  C   UNL     1     -10.170   9.127  71.409  1.00  0.00    -0.332 C  
ENDBRANCH  15  17
ENDBRANCH  13  15
ENDBRANCH  11  13
ENDBRANCH   8  11
ENDBRANCH   5   8
TORSDOF 5
ENDMDL
MODEL      222
REMARK 921   NORMALIZED FREE ENERGY PREDICTED BY IDOCK:   -3.72 KCAL/MOL
REMARK 922        TOTAL FREE ENERGY PREDICTED BY IDOCK:   -5.59 KCAL/MOL
REMARK 923 INTER-LIGAND FREE ENERGY PREDICTED BY IDOCK:   -4.78 KCAL/MOL
REMARK 924 INTRA-LIGAND FREE ENERGY PREDICTED BY IDOCK:   -0.81 KCAL/MOL
REMARK 927      BINDING AFFINITY PREDICTED BY RF-SCORE:    0.00 PKD
ROOT
HETATM    1  C   UNL     1      -8.417   8.607  68.002  1.00  0.00    -0.127 C  
HETATM    2  C   UNL     1      -8.429  10.069  67.669  1.00  0.00    -0.114 A  
HETATM    3  C   UNL     1      -7.257  10.830  67.750  1.00  0.00    -0.088 A  
HETATM    4  C   UNL     1      -7.291  12.206  67.519  1.00  0.00    -0.135 A  
HETATM    5  C   UNL     1      -8.503  12.825  67.191  1.00  0.00    -0.181 A  
HETATM    6  C   UNL     1      -9.674  12.072  67.083  1.00  0.00    -0.203 A  
HETATM    7  C   UNL     1      -9.634  10.697  67.321  1.00  0.00    -0.186 A  
ENDROOT
BRANCH   5   8
HETATM    8  S   UNL     1      -8.591  14.596  67.082  1.00  0.00    -0.223 S  
HETATM    9  O   UNL     1      -9.505  14.907  66.001  1.00  0.00    -0.296 OA 
HETATM   10  O   UNL     1      -7.246  15.122  67.107  1.00  0.00    -0.187 OA 
BRANCH   8  11
HETATM   11  N   UNL     1      -9.303  15.030  68.507  1.00  0.00    -0.190 N  
HETATM   12  H   UNL     1      -9.389  14.287  69.202  1.00  0.00     0.000 HD 
BRANCH  11  13
HETATM   13  C   UNL     1      -9.802  16.273  68.890  1.00  0.00    -0.246 C  
HETATM   14  O   UNL     1     -10.631  16.315  69.790  1.00  0.00    -0.308 OA 
BRANCH  13  15
HETATM   15  N   UNL     1      -9.270  17.360  68.236  1.00  0.00    -0.263 N  
HETATM   16  H   UNL     1      -9.734  17.683  67.387  1.00  0.00     0.000 HD 
BRANCH  15  17
HETATM   17  N   UNL     1      -8.122  18.052  68.667  1.00  0.00    -0.303 NA 
HETATM   18  C   UNL     1      -7.207  18.375  67.554  1.00  0.00    -0.209 C  
HETATM   19  C   UNL     1      -7.513  19.805  67.087  1.00  0.00    -0.280 C  
HETATM   20  C   UNL     1      -8.163  19.904  65.710  1.00  0.00    -0.116 C  
HETATM   21  C   UNL     1      -9.644  19.692  65.965  1.00  0.00    -0.389 C  
HETATM   22  C   UNL     1      -9.886  20.381  67.303  1.00  0.00    -0.597 C  
HETATM   23  C   UNL     1      -8.555  20.340  68.072  1.00  0.00    -0.138 C  
HETATM   24  C   UNL     1      -8.487  19.361  69.241  1.00  0.00    -0.002 C  
ENDBRANCH  15  17
ENDBRANCH  13  15
ENDBRANCH  11  13
ENDBRANCH   8  11
ENDBRANCH   5   8
TORSDOF 5
ENDMDL
MODEL      223
REMARK 921   NORMALIZED FREE ENERGY PREDICTED BY IDOCK:   -3.67 KCAL/MOL
REMARK 922        TOTAL FREE ENERGY PREDICTED BY IDOCK:   -5.52 KCAL/MOL
REMARK 923 INTER-LIGAND FREE ENERGY PREDICTED BY IDOCK:   -4.78 KCAL/MOL
REMARK 924 INTRA-LIGAND FREE ENERGY PREDICTED BY IDOCK:   -0.73 KCAL/MOL
REMARK 927      BINDING AFFINITY PREDICTED BY RF-SCORE:    0.00 PKD
ROOT
HETATM    1  C   UNL     1      -6.129   9.924  63.480  1.00  0.00    -0.121 C  
HETATM    2  C   UNL     1      -7.093  10.004  64.627  1.00  0.00    -0.140 A  
HETATM    3  C   UNL     1      -8.418   9.577  64.478  1.00  0.00    -0.191 A  
HETATM    4  C   UNL     1      -9.329   9.730  65.523  1.00  0.00    -0.299 A  
HETATM    5  C   UNL     1      -8.912  10.301  66.731  1.00  0.00    -0.132 A  
HETATM    6  C   UNL     1      -7.588  10.707  66.900  1.00  0.00    -0.115 A  
HETATM    7  C   UNL     1      -6.681  10.557  65.848  1.00  0.00    -0.130 A  
ENDROOT
BRANCH   5   8
HETATM    8  S   UNL     1     -10.106  10.671  67.994  1.00  0.00    -0.163 S  
HETATM    9  O   UNL     1     -11.003   9.536  68.072  1.00  0.00    -0.203 OA 
HETATM   10  O   UNL     1     -10.602  12.011  67.774  1.00  0.00    -0.199 OA 
BRANCH   8  11
HETATM   11  N   UNL     1      -9.199  10.715  69.373  1.00  0.00    -0.395 N  
HETATM   12  H   UNL     1      -9.137  11.625  69.831  1.00  0.00     0.000 HD 
BRANCH  11  13
HETATM   13  C   UNL     1      -8.507   9.678  69.995  1.00  0.00    -0.204 C  
HETATM   14  O   UNL     1      -7.507   9.954  70.645  1.00  0.00    -0.284 OA 
BRANCH  13  15
HETATM   15  N   UNL     1      -9.053   8.423  69.852  1.00  0.00    -0.145 N  
HETATM   16  H   UNL     1     -10.022   8.355  69.542  1.00  0.00     0.000 HD 
BRANCH  15  17
HETATM   17  N   UNL     1      -8.352   7.228  70.106  1.00  0.00    -0.135 NA 
HETATM   18  C   UNL     1      -8.539   6.751  71.491  1.00  0.00    -0.120 C  
HETATM   19  C   UNL     1      -9.675   5.719  71.490  1.00  0.00    -0.193 C  
HETATM   20  C   UNL     1     -10.958   6.179  72.176  1.00  0.00    -0.307 C  
HETATM   21  C   UNL     1     -11.702   6.970  71.117  1.00  0.00    -0.366 C  
HETATM   22  C   UNL     1     -11.403   6.221  69.824  1.00  0.00    -0.506 C  
HETATM   23  C   UNL     1     -10.045   5.524  70.018  1.00  0.00    -0.311 C  
HETATM   24  C   UNL     1      -8.867   6.133  69.263  1.00  0.00    -0.124 C  
ENDBRANCH  15  17
ENDBRANCH  13  15
ENDBRANCH  11  13
ENDBRANCH   8  11
ENDBRANCH   5   8
TORSDOF 5
ENDMDL
MODEL      224
REMARK 921   NORMALIZED FREE ENERGY PREDICTED BY IDOCK:   -3.62 KCAL/MOL
REMARK 922        TOTAL FREE ENERGY PREDICTED BY IDOCK:   -5.46 KCAL/MOL
REMARK 923 INTER-LIGAND FREE ENERGY PREDICTED BY IDOCK:   -4.00 KCAL/MOL
REMARK 924 INTRA-LIGAND FREE ENERGY PREDICTED BY IDOCK:   -1.46 KCAL/MOL
REMARK 927      BINDING AFFINITY PREDICTED BY RF-SCORE:    0.00 PKD
ROOT
HETATM    1  C   UNL     1      -9.970   8.857  66.269  1.00  0.00    -0.337 C  
HETATM    2  C   UNL     1     -10.399   8.492  67.659  1.00  0.00    -0.317 A  
HETATM    3  C   UNL     1     -10.541   9.476  68.645  1.00  0.00    -0.239 A  
HETATM    4  C   UNL     1     -10.859   9.120  69.956  1.00  0.00    -0.256 A  
HETATM    5  C   UNL     1     -11.053   7.773  70.283  1.00  0.00    -0.234 A  
HETATM    6  C   UNL     1     -10.939   6.786  69.303  1.00  0.00    -0.303 A  
HETATM    7  C   UNL     1     -10.613   7.147  67.994  1.00  0.00    -0.251 A  
ENDROOT
BRANCH   5   8
HETATM    8  S   UNL     1     -11.272   7.296  71.980  1.00  0.00    -0.260 S  
HETATM    9  O   UNL     1     -12.033   6.063  71.977  1.00  0.00    -0.294 OA 
HETATM   10  O   UNL     1     -11.713   8.453  72.726  1.00  0.00    -0.367 OA 
BRANCH   8  11
HETATM   11  N   UNL     1      -9.735   6.960  72.482  1.00  0.00    -0.153 N  
HETATM   12  H   UNL     1      -9.588   6.021  72.854  1.00  0.00     0.000 HD 
BRANCH  11  13
HETATM   13  C   UNL     1      -8.612   7.785  72.466  1.00  0.00    -0.136 C  
HETATM   14  O   UNL     1      -8.461   8.580  73.383  1.00  0.00    -0.367 OA 
BRANCH  13  15
HETATM   15  N   UNL     1      -7.740   7.589  71.419  1.00  0.00    -0.084 N  
HETATM   16  H   UNL     1      -7.594   8.360  70.767  1.00  0.00     0.000 HD 
BRANCH  15  17
HETATM   17  N   UNL     1      -7.040   6.389  71.194  1.00  0.00    -0.075 NA 
HETATM   18  C   UNL     1      -7.394   5.763  69.904  1.00  0.00    -0.070 C  
HETATM   19  C   UNL     1      -6.356   6.200  68.862  1.00  0.00    -0.041 C  
HETATM   20  C   UNL     1      -6.884   7.152  67.793  1.00  0.00    -0.074 C  
HETATM   21  C   UNL     1      -6.800   8.529  68.424  1.00  0.00    -0.065 C  
HETATM   22  C   UNL     1      -5.524   8.473  69.255  1.00  0.00    -0.035 C  
HETATM   23  C   UNL     1      -5.310   6.999  69.642  1.00  0.00    -0.015 C  
HETATM   24  C   UNL     1      -5.590   6.642  71.099  1.00  0.00    -0.027 C  
ENDBRANCH  15  17
ENDBRANCH  13  15
ENDBRANCH  11  13
ENDBRANCH   8  11
ENDBRANCH   5   8
TORSDOF 5
ENDMDL
MODEL      225
REMARK 921   NORMALIZED FREE ENERGY PREDICTED BY IDOCK:   -3.61 KCAL/MOL
REMARK 922        TOTAL FREE ENERGY PREDICTED BY IDOCK:   -5.45 KCAL/MOL
REMARK 923 INTER-LIGAND FREE ENERGY PREDICTED BY IDOCK:   -4.80 KCAL/MOL
REMARK 924 INTRA-LIGAND FREE ENERGY PREDICTED BY IDOCK:   -0.64 KCAL/MOL
REMARK 927      BINDING AFFINITY PREDICTED BY RF-SCORE:    0.00 PKD
ROOT
HETATM    1  C   UNL     1     -10.239  13.766  67.429  1.00  0.00    -0.252 C  
HETATM    2  C   UNL     1     -10.209  12.274  67.573  1.00  0.00    -0.212 A  
HETATM    3  C   UNL     1     -11.394  11.548  67.744  1.00  0.00    -0.364 A  
HETATM    4  C   UNL     1     -11.352  10.170  67.960  1.00  0.00    -0.152 A  
HETATM    5  C   UNL     1     -10.119   9.509  67.991  1.00  0.00    -0.188 A  
HETATM    6  C   UNL     1      -8.933  10.218  67.797  1.00  0.00    -0.135 A  
HETATM    7  C   UNL     1      -8.981  11.597  67.587  1.00  0.00    -0.166 A  
ENDROOT
BRANCH   5   8
HETATM    8  S   UNL     1     -10.045   7.794  68.451  1.00  0.00    -0.196 S  
HETATM    9  O   UNL     1      -8.807   7.606  69.179  1.00  0.00    -0.138 OA 
HETATM   10  O   UNL     1     -10.366   6.996  67.290  1.00  0.00    -0.202 OA 
BRANCH   8  11
HETATM   11  N   UNL     1     -11.302   7.630  69.508  1.00  0.00    -0.445 N  
HETATM   12  H   UNL     1     -12.221   7.498  69.085  1.00  0.00     0.000 HD 
BRANCH  11  13
HETATM   13  C   UNL     1     -11.278   7.648  70.902  1.00  0.00    -0.268 C  
HETATM   14  O   UNL     1     -11.393   8.725  71.472  1.00  0.00    -0.261 OA 
BRANCH  13  15
HETATM   15  N   UNL     1     -11.171   6.421  71.515  1.00  0.00    -0.272 N  
HETATM   16  H   UNL     1     -11.276   5.586  70.938  1.00  0.00     0.000 HD 
BRANCH  15  17
HETATM   17  N   UNL     1     -10.925   6.249  72.890  1.00  0.00    -0.253 NA 
HETATM   18  C   UNL     1     -11.373   4.931  73.382  1.00  0.00    -0.298 C  
HETATM   19  C   UNL     1     -10.168   3.981  73.365  1.00  0.00    -0.215 C  
HETATM   20  C   UNL     1     -10.236   2.877  72.315  1.00  0.00    -0.180 C  
HETATM   21  C   UNL     1      -9.722   3.521  71.041  1.00  0.00    -0.225 C  
HETATM   22  C   UNL     1      -8.619   4.456  71.525  1.00  0.00    -0.128 C  
HETATM   23  C   UNL     1      -8.972   4.850  72.969  1.00  0.00    -0.113 C  
HETATM   24  C   UNL     1      -9.477   6.277  73.168  1.00  0.00    -0.138 C  
ENDBRANCH  15  17
ENDBRANCH  13  15
ENDBRANCH  11  13
ENDBRANCH   8  11
ENDBRANCH   5   8
TORSDOF 5
ENDMDL
MODEL      226
REMARK 921   NORMALIZED FREE ENERGY PREDICTED BY IDOCK:   -3.60 KCAL/MOL
REMARK 922        TOTAL FREE ENERGY PREDICTED BY IDOCK:   -5.43 KCAL/MOL
REMARK 923 INTER-LIGAND FREE ENERGY PREDICTED BY IDOCK:   -4.54 KCAL/MOL
REMARK 924 INTRA-LIGAND FREE ENERGY PREDICTED BY IDOCK:   -0.89 KCAL/MOL
REMARK 927      BINDING AFFINITY PREDICTED BY RF-SCORE:    0.00 PKD
ROOT
HETATM    1  C   UNL     1     -14.392   8.260  71.587  1.00  0.00    -0.561 C  
HETATM    2  C   UNL     1     -12.993   7.804  71.879  1.00  0.00    -0.309 A  
HETATM    3  C   UNL     1     -12.102   8.628  72.575  1.00  0.00    -0.368 A  
HETATM    4  C   UNL     1     -10.779   8.232  72.770  1.00  0.00    -0.313 A  
HETATM    5  C   UNL     1     -10.345   6.995  72.279  1.00  0.00    -0.193 A  
HETATM    6  C   UNL     1     -11.231   6.153  71.605  1.00  0.00    -0.342 A  
HETATM    7  C   UNL     1     -12.552   6.558  71.407  1.00  0.00    -0.131 A  
ENDROOT
BRANCH   5   8
HETATM    8  S   UNL     1      -8.623   6.566  72.358  1.00  0.00    -0.117 S  
HETATM    9  O   UNL     1      -8.554   5.164  72.715  1.00  0.00    -0.119 OA 
HETATM   10  O   UNL     1      -7.936   7.576  73.130  1.00  0.00    -0.099 OA 
BRANCH   8  11
HETATM   11  N   UNL     1      -8.118   6.732  70.795  1.00  0.00    -0.117 N  
HETATM   12  H   UNL     1      -8.180   5.892  70.219  1.00  0.00     0.000 HD 
BRANCH  11  13
HETATM   13  C   UNL     1      -7.619   7.865  70.154  1.00  0.00    -0.083 C  
HETATM   14  O   UNL     1      -6.491   8.245  70.439  1.00  0.00    -0.035 OA 
BRANCH  13  15
HETATM   15  N   UNL     1      -8.446   8.433  69.211  1.00  0.00    -0.124 N  
HETATM   16  H   UNL     1      -8.326   8.151  68.238  1.00  0.00     0.000 HD 
BRANCH  15  17
HETATM   17  N   UNL     1      -9.445   9.379  69.510  1.00  0.00    -0.170 NA 
HETATM   18  C   UNL     1      -9.117  10.725  68.999  1.00  0.00    -0.143 C  
HETATM   19  C   UNL     1      -9.800  10.895  67.635  1.00  0.00    -0.192 C  
HETATM   20  C   UNL     1      -8.849  10.931  66.443  1.00  0.00    -0.178 C  
HETATM   21  C   UNL     1      -8.590   9.474  66.108  1.00  0.00    -0.143 C  
HETATM   22  C   UNL     1      -9.929   8.796  66.375  1.00  0.00    -0.346 C  
HETATM   23  C   UNL     1     -10.648   9.636  67.445  1.00  0.00    -0.333 C  
HETATM   24  C   UNL     1     -10.712   9.026  68.843  1.00  0.00    -0.123 C  
ENDBRANCH  15  17
ENDBRANCH  13  15
ENDBRANCH  11  13
ENDBRANCH   8  11
ENDBRANCH   5   8
TORSDOF 5
ENDMDL
MODEL      227
REMARK 921   NORMALIZED FREE ENERGY PREDICTED BY IDOCK:   -3.56 KCAL/MOL
REMARK 922        TOTAL FREE ENERGY PREDICTED BY IDOCK:   -5.38 KCAL/MOL
REMARK 923 INTER-LIGAND FREE ENERGY PREDICTED BY IDOCK:   -4.36 KCAL/MOL
REMARK 924 INTRA-LIGAND FREE ENERGY PREDICTED BY IDOCK:   -1.02 KCAL/MOL
REMARK 927      BINDING AFFINITY PREDICTED BY RF-SCORE:    0.00 PKD
ROOT
HETATM    1  C   UNL     1     -14.394   7.988  71.973  1.00  0.00    -0.511 C  
HETATM    2  C   UNL     1     -12.935   7.998  71.623  1.00  0.00    -0.351 A  
HETATM    3  C   UNL     1     -12.259   6.806  71.340  1.00  0.00    -0.413 A  
HETATM    4  C   UNL     1     -10.885   6.814  71.097  1.00  0.00    -0.275 A  
HETATM    5  C   UNL     1     -10.183   8.025  71.123  1.00  0.00    -0.193 A  
HETATM    6  C   UNL     1     -10.851   9.223  71.379  1.00  0.00    -0.434 A  
HETATM    7  C   UNL     1     -12.224   9.207  71.627  1.00  0.00    -0.433 A  
ENDROOT
BRANCH   5   8
HETATM    8  S   UNL     1      -8.410   8.022  71.002  1.00  0.00    -0.122 S  
HETATM    9  O   UNL     1      -7.932   6.945  71.845  1.00  0.00    -0.099 OA 
HETATM   10  O   UNL     1      -7.939   9.378  71.171  1.00  0.00    -0.322 OA 
BRANCH   8  11
HETATM   11  N   UNL     1      -8.137   7.613  69.426  1.00  0.00    -0.125 N  
HETATM   12  H   UNL     1      -8.606   8.195  68.731  1.00  0.00     0.000 HD 
BRANCH  11  13
HETATM   13  C   UNL     1      -7.353   6.579  68.916  1.00  0.00    -0.093 C  
HETATM   14  O   UNL     1      -6.379   6.870  68.234  1.00  0.00    -0.032 OA 
BRANCH  13  15
HETATM   15  N   UNL     1      -7.733   5.306  69.275  1.00  0.00    -0.083 N  
HETATM   16  H   UNL     1      -7.907   5.118  70.262  1.00  0.00     0.000 HD 
BRANCH  15  17
HETATM   17  N   UNL     1      -7.895   4.248  68.360  1.00  0.00    -0.074 NA 
HETATM   18  C   UNL     1      -7.084   3.067  68.715  1.00  0.00    -0.048 C  
HETATM   19  C   UNL     1      -7.970   2.101  69.513  1.00  0.00    -0.053 C  
HETATM   20  C   UNL     1      -7.610   1.972  70.989  1.00  0.00    -0.032 C  
HETATM   21  C   UNL     1      -8.309   3.138  71.663  1.00  0.00    -0.075 C  
HETATM   22  C   UNL     1      -9.622   3.266  70.901  1.00  0.00    -0.234 C  
HETATM   23  C   UNL     1      -9.370   2.720  69.485  1.00  0.00    -0.191 C  
HETATM   24  C   UNL     1      -9.287   3.760  68.371  1.00  0.00    -0.166 C  
ENDBRANCH  15  17
ENDBRANCH  13  15
ENDBRANCH  11  13
ENDBRANCH   8  11
ENDBRANCH   5   8
TORSDOF 5
ENDMDL
MODEL      228
REMARK 921   NORMALIZED FREE ENERGY PREDICTED BY IDOCK:   -3.56 KCAL/MOL
REMARK 922        TOTAL FREE ENERGY PREDICTED BY IDOCK:   -5.38 KCAL/MOL
REMARK 923 INTER-LIGAND FREE ENERGY PREDICTED BY IDOCK:   -4.63 KCAL/MOL
REMARK 924 INTRA-LIGAND FREE ENERGY PREDICTED BY IDOCK:   -0.76 KCAL/MOL
REMARK 927      BINDING AFFINITY PREDICTED BY RF-SCORE:    0.00 PKD
ROOT
HETATM    1  C   UNL     1     -13.604  12.723  71.777  1.00  0.00    -0.214 C  
HETATM    2  C   UNL     1     -12.932  11.470  71.298  1.00  0.00    -0.397 A  
HETATM    3  C   UNL     1     -13.179  10.242  71.924  1.00  0.00    -0.550 A  
HETATM    4  C   UNL     1     -12.489   9.097  71.528  1.00  0.00    -0.418 A  
HETATM    5  C   UNL     1     -11.555   9.173  70.488  1.00  0.00    -0.197 A  
HETATM    6  C   UNL     1     -11.318  10.387  69.840  1.00  0.00    -0.370 A  
HETATM    7  C   UNL     1     -12.007  11.531  70.246  1.00  0.00    -0.455 A  
ENDROOT
BRANCH   5   8
HETATM    8  S   UNL     1     -10.539   7.766  70.105  1.00  0.00    -0.239 S  
HETATM    9  O   UNL     1      -9.448   8.246  69.282  1.00  0.00    -0.154 OA 
HETATM   10  O   UNL     1     -11.398   6.690  69.667  1.00  0.00    -0.335 OA 
BRANCH   8  11
HETATM   11  N   UNL     1      -9.930   7.327  71.575  1.00  0.00    -0.182 N  
HETATM   12  H   UNL     1      -9.314   8.008  72.020  1.00  0.00     0.000 HD 
BRANCH  11  13
HETATM   13  C   UNL     1     -10.143   6.150  72.291  1.00  0.00    -0.179 C  
HETATM   14  O   UNL     1     -10.851   6.195  73.288  1.00  0.00    -0.255 OA 
BRANCH  13  15
HETATM   15  N   UNL     1      -9.559   5.018  71.770  1.00  0.00    -0.149 N  
HETATM   16  H   UNL     1      -8.542   4.993  71.698  1.00  0.00     0.000 HD 
BRANCH  15  17
HETATM   17  N   UNL     1     -10.282   3.892  71.331  1.00  0.00    -0.046 NA 
HETATM   18  C   UNL     1      -9.569   3.141  70.278  1.00  0.00    -0.110 C  
HETATM   19  C   UNL     1      -8.798   1.997  70.948  1.00  0.00    -0.126 C  
HETATM   20  C   UNL     1      -7.280   2.156  70.940  1.00  0.00    -0.033 C  
HETATM   21  C   UNL     1      -6.976   3.035  72.138  1.00  0.00    -0.033 C  
HETATM   22  C   UNL     1      -7.989   2.588  73.186  1.00  0.00    -0.051 C  
HETATM   23  C   UNL     1      -9.207   2.040  72.422  1.00  0.00    -0.121 C  
HETATM   24  C   UNL     1     -10.452   2.922  72.429  1.00  0.00    -0.013 C  
ENDBRANCH  15  17
ENDBRANCH  13  15
ENDBRANCH  11  13
ENDBRANCH   8  11
ENDBRANCH   5   8
TORSDOF 5
ENDMDL
MODEL      229
REMARK 921   NORMALIZED FREE ENERGY PREDICTED BY IDOCK:   -3.55 KCAL/MOL
REMARK 922        TOTAL FREE ENERGY PREDICTED BY IDOCK:   -5.37 KCAL/MOL
REMARK 923 INTER-LIGAND FREE ENERGY PREDICTED BY IDOCK:   -5.08 KCAL/MOL
REMARK 924 INTRA-LIGAND FREE ENERGY PREDICTED BY IDOCK:   -0.29 KCAL/MOL
REMARK 927      BINDING AFFINITY PREDICTED BY RF-SCORE:    0.00 PKD
ROOT
HETATM    1  C   UNL     1      -5.151  13.061  70.653  1.00  0.00    -0.116 C  
HETATM    2  C   UNL     1      -6.279  13.442  69.740  1.00  0.00    -0.113 A  
HETATM    3  C   UNL     1      -6.527  12.717  68.569  1.00  0.00    -0.074 A  
HETATM    4  C   UNL     1      -7.524  13.126  67.684  1.00  0.00    -0.164 A  
HETATM    5  C   UNL     1      -8.290  14.261  67.977  1.00  0.00    -0.157 A  
HETATM    6  C   UNL     1      -8.069  14.977  69.154  1.00  0.00    -0.192 A  
HETATM    7  C   UNL     1      -7.065  14.566  70.033  1.00  0.00     0.047 A  
ENDROOT
BRANCH   5   8
HETATM    8  S   UNL     1      -9.429  14.896  66.770  1.00  0.00    -0.267 S  
HETATM    9  O   UNL     1     -10.638  15.260  67.482  1.00  0.00    -0.262 OA 
HETATM   10  O   UNL     1      -9.460  13.985  65.648  1.00  0.00    -0.118 OA 
BRANCH   8  11
HETATM   11  N   UNL     1      -8.696  16.279  66.246  1.00  0.00    -0.317 N  
HETATM   12  H   UNL     1      -9.192  16.793  65.517  1.00  0.00     0.000 HD 
BRANCH  11  13
HETATM   13  C   UNL     1      -7.489  16.839  66.663  1.00  0.00    -0.273 C  
HETATM   14  O   UNL     1      -6.447  16.359  66.238  1.00  0.00    -0.049 OA 
BRANCH  13  15
HETATM   15  N   UNL     1      -7.592  17.929  67.497  1.00  0.00    -0.208 N  
HETATM   16  H   UNL     1      -7.880  17.768  68.462  1.00  0.00     0.000 HD 
BRANCH  15  17
HETATM   17  N   UNL     1      -7.324  19.252  67.097  1.00  0.00    -0.208 NA 
HETATM   18  C   UNL     1      -8.045  19.624  65.863  1.00  0.00    -0.233 C  
HETATM   19  C   UNL     1      -9.342  20.339  66.266  1.00  0.00    -0.350 C  
HETATM   20  C   UNL     1     -10.619  19.552  65.989  1.00  0.00    -0.589 C  
HETATM   21  C   UNL     1     -10.777  18.634  67.187  1.00  0.00    -0.433 C  
HETATM   22  C   UNL     1     -10.284  19.475  68.359  1.00  0.00    -0.536 C  
HETATM   23  C   UNL     1      -9.270  20.481  67.788  1.00  0.00    -0.304 C  
HETATM   24  C   UNL     1      -7.803  20.210  68.111  1.00  0.00    -0.165 C  
ENDBRANCH  15  17
ENDBRANCH  13  15
ENDBRANCH  11  13
ENDBRANCH   8  11
ENDBRANCH   5   8
TORSDOF 5
ENDMDL
MODEL      230
REMARK 921   NORMALIZED FREE ENERGY PREDICTED BY IDOCK:   -3.52 KCAL/MOL
REMARK 922        TOTAL FREE ENERGY PREDICTED BY IDOCK:   -5.33 KCAL/MOL
REMARK 923 INTER-LIGAND FREE ENERGY PREDICTED BY IDOCK:   -4.76 KCAL/MOL
REMARK 924 INTRA-LIGAND FREE ENERGY PREDICTED BY IDOCK:   -0.58 KCAL/MOL
REMARK 927      BINDING AFFINITY PREDICTED BY RF-SCORE:    0.00 PKD
ROOT
HETATM    1  C   UNL     1      -8.368  17.498  66.383  1.00  0.00    -0.297 C  
HETATM    2  C   UNL     1      -8.961  16.130  66.216  1.00  0.00    -0.379 A  
HETATM    3  C   UNL     1     -10.081  15.931  65.400  1.00  0.00    -0.296 A  
HETATM    4  C   UNL     1     -10.677  14.672  65.315  1.00  0.00    -0.396 A  
HETATM    5  C   UNL     1     -10.143  13.600  66.039  1.00  0.00    -0.312 A  
HETATM    6  C   UNL     1      -9.011  13.781  66.836  1.00  0.00    -0.234 A  
HETATM    7  C   UNL     1      -8.423  15.044  66.922  1.00  0.00    -0.269 A  
ENDROOT
BRANCH   5   8
HETATM    8  S   UNL     1     -11.003  12.046  66.084  1.00  0.00    -0.313 S  
HETATM    9  O   UNL     1     -11.130  11.595  64.713  1.00  0.00    -0.304 OA 
HETATM   10  O   UNL     1     -12.158  12.189  66.941  1.00  0.00    -0.600 OA 
BRANCH   8  11
HETATM   11  N   UNL     1      -9.945  11.049  66.867  1.00  0.00    -0.191 N  
HETATM   12  H   UNL     1      -9.482  11.450  67.683  1.00  0.00     0.000 HD 
BRANCH  11  13
HETATM   13  C   UNL     1      -9.598   9.734  66.562  1.00  0.00    -0.194 C  
HETATM   14  O   UNL     1     -10.158   8.829  67.168  1.00  0.00    -0.205 OA 
BRANCH  13  15
HETATM   15  N   UNL     1      -8.672   9.576  65.557  1.00  0.00    -0.145 N  
HETATM   16  H   UNL     1      -8.765   8.766  64.943  1.00  0.00     0.000 HD 
BRANCH  15  17
HETATM   17  N   UNL     1      -7.606  10.465  65.324  1.00  0.00    -0.141 NA 
HETATM   18  C   UNL     1      -6.966  10.917  66.576  1.00  0.00    -0.139 C  
HETATM   19  C   UNL     1      -5.750  10.018  66.841  1.00  0.00    -0.050 C  
HETATM   20  C   UNL     1      -5.898   9.075  68.031  1.00  0.00    -0.039 C  
HETATM   21  C   UNL     1      -6.642   7.872  67.482  1.00  0.00    -0.057 C  
HETATM   22  C   UNL     1      -6.093   7.717  66.069  1.00  0.00    -0.038 C  
HETATM   23  C   UNL     1      -5.639   9.114  65.612  1.00  0.00    -0.045 C  
HETATM   24  C   UNL     1      -6.525   9.798  64.574  1.00  0.00    -0.112 C  
ENDBRANCH  15  17
ENDBRANCH  13  15
ENDBRANCH  11  13
ENDBRANCH   8  11
ENDBRANCH   5   8
TORSDOF 5
ENDMDL
MODEL      231
REMARK 921   NORMALIZED FREE ENERGY PREDICTED BY IDOCK:   -3.50 KCAL/MOL
REMARK 922        TOTAL FREE ENERGY PREDICTED BY IDOCK:   -5.31 KCAL/MOL
REMARK 923 INTER-LIGAND FREE ENERGY PREDICTED BY IDOCK:   -4.55 KCAL/MOL
REMARK 924 INTRA-LIGAND FREE ENERGY PREDICTED BY IDOCK:   -0.76 KCAL/MOL
REMARK 927      BINDING AFFINITY PREDICTED BY RF-SCORE:    0.00 PKD
ROOT
HETATM    1  C   UNL     1     -13.478  12.898  71.928  1.00  0.00    -0.478 C  
HETATM    2  C   UNL     1     -13.027  11.512  71.573  1.00  0.00    -0.485 A  
HETATM    3  C   UNL     1     -13.557  10.397  72.233  1.00  0.00    -0.109 A  
HETATM    4  C   UNL     1     -13.074   9.118  71.956  1.00  0.00    -0.497 A  
HETATM    5  C   UNL     1     -12.064   8.949  71.003  1.00  0.00    -0.233 A  
HETATM    6  C   UNL     1     -11.545  10.050  70.320  1.00  0.00    -0.354 A  
HETATM    7  C   UNL     1     -12.028  11.328  70.606  1.00  0.00    -0.435 A  
ENDROOT
BRANCH   5   8
HETATM    8  S   UNL     1     -11.314   7.353  70.781  1.00  0.00    -0.283 S  
HETATM    9  O   UNL     1     -12.343   6.472  70.265  1.00  0.00    -0.178 OA 
HETATM   10  O   UNL     1     -10.573   7.027  71.978  1.00  0.00    -0.208 OA 
BRANCH   8  11
HETATM   11  N   UNL     1     -10.205   7.616  69.587  1.00  0.00    -0.199 N  
HETATM   12  H   UNL     1     -10.586   7.920  68.690  1.00  0.00     0.000 HD 
BRANCH  11  13
HETATM   13  C   UNL     1      -8.819   7.481  69.638  1.00  0.00    -0.141 C  
HETATM   14  O   UNL     1      -8.130   8.473  69.444  1.00  0.00    -0.108 OA 
BRANCH  13  15
HETATM   15  N   UNL     1      -8.351   6.226  69.954  1.00  0.00    -0.127 N  
HETATM   16  H   UNL     1      -8.769   5.745  70.750  1.00  0.00     0.000 HD 
BRANCH  15  17
HETATM   17  N   UNL     1      -7.331   5.566  69.242  1.00  0.00    -0.068 NA 
HETATM   18  C   UNL     1      -6.420   4.815  70.130  1.00  0.00    -0.035 C  
HETATM   19  C   UNL     1      -6.899   3.358  70.180  1.00  0.00    -0.034 C  
HETATM   20  C   UNL     1      -7.495   2.924  71.516  1.00  0.00    -0.040 C  
HETATM   21  C   UNL     1      -8.942   3.377  71.461  1.00  0.00    -0.156 C  
HETATM   22  C   UNL     1      -9.337   3.160  70.005  1.00  0.00    -0.226 C  
HETATM   23  C   UNL     1      -8.048   3.274  69.173  1.00  0.00    -0.072 C  
HETATM   24  C   UNL     1      -7.899   4.545  68.342  1.00  0.00    -0.079 C  
ENDBRANCH  15  17
ENDBRANCH  13  15
ENDBRANCH  11  13
ENDBRANCH   8  11
ENDBRANCH   5   8
TORSDOF 5
ENDMDL
MODEL      232
REMARK 921   NORMALIZED FREE ENERGY PREDICTED BY IDOCK:   -3.48 KCAL/MOL
REMARK 922        TOTAL FREE ENERGY PREDICTED BY IDOCK:   -5.28 KCAL/MOL
REMARK 923 INTER-LIGAND FREE ENERGY PREDICTED BY IDOCK:   -4.75 KCAL/MOL
REMARK 924 INTRA-LIGAND FREE ENERGY PREDICTED BY IDOCK:   -0.53 KCAL/MOL
REMARK 927      BINDING AFFINITY PREDICTED BY RF-SCORE:    0.00 PKD
ROOT
HETATM    1  C   UNL     1      -6.159   9.669  65.553  1.00  0.00    -0.068 C  
HETATM    2  C   UNL     1      -7.060   8.477  65.680  1.00  0.00    -0.079 A  
HETATM    3  C   UNL     1      -8.424   8.577  65.383  1.00  0.00    -0.190 A  
HETATM    4  C   UNL     1      -9.272   7.487  65.582  1.00  0.00     0.138 A  
HETATM    5  C   UNL     1      -8.751   6.282  66.068  1.00  0.00    -0.151 A  
HETATM    6  C   UNL     1      -7.388   6.163  66.343  1.00  0.00    -0.085 A  
HETATM    7  C   UNL     1      -6.546   7.259  66.148  1.00  0.00    -0.052 A  
ENDROOT
BRANCH   5   8
HETATM    8  S   UNL     1      -9.849   4.954  66.501  1.00  0.00    -0.232 S  
HETATM    9  O   UNL     1      -9.062   3.977  67.227  1.00  0.00    -0.127 OA 
HETATM   10  O   UNL     1     -10.609   4.589  65.328  1.00  0.00    -0.237 OA 
BRANCH   8  11
HETATM   11  N   UNL     1     -10.904   5.662  67.555  1.00  0.00    -0.284 N  
HETATM   12  H   UNL     1     -11.781   5.989  67.149  1.00  0.00     0.000 HD 
BRANCH  11  13
HETATM   13  C   UNL     1     -10.758   5.873  68.925  1.00  0.00    -0.300 C  
HETATM   14  O   UNL     1     -10.348   4.950  69.616  1.00  0.00    -0.243 OA 
BRANCH  13  15
HETATM   15  N   UNL     1     -11.056   7.141  69.370  1.00  0.00    -0.435 N  
HETATM   16  H   UNL     1     -11.895   7.266  69.936  1.00  0.00     0.000 HD 
BRANCH  15  17
HETATM   17  N   UNL     1     -10.270   8.276  69.091  1.00  0.00    -0.214 NA 
HETATM   18  C   UNL     1     -11.078   9.507  68.981  1.00  0.00    -0.027 C  
HETATM   19  C   UNL     1     -11.057  10.213  70.344  1.00  0.00    -0.393 C  
HETATM   20  C   UNL     1     -12.385  10.196  71.095  1.00  0.00    -0.488 C  
HETATM   21  C   UNL     1     -12.409   8.858  71.810  1.00  0.00    -0.424 C  
HETATM   22  C   UNL     1     -10.957   8.638  72.221  1.00  0.00    -0.392 C  
HETATM   23  C   UNL     1     -10.088   9.401  71.206  1.00  0.00    -0.309 C  
HETATM   24  C   UNL     1      -9.331   8.544  70.196  1.00  0.00    -0.161 C  
ENDBRANCH  15  17
ENDBRANCH  13  15
ENDBRANCH  11  13
ENDBRANCH   8  11
ENDBRANCH   5   8
TORSDOF 5
ENDMDL
MODEL      233
REMARK 921   NORMALIZED FREE ENERGY PREDICTED BY IDOCK:   -3.48 KCAL/MOL
REMARK 922        TOTAL FREE ENERGY PREDICTED BY IDOCK:   -5.27 KCAL/MOL
REMARK 923 INTER-LIGAND FREE ENERGY PREDICTED BY IDOCK:   -5.21 KCAL/MOL
REMARK 924 INTRA-LIGAND FREE ENERGY PREDICTED BY IDOCK:   -0.07 KCAL/MOL
REMARK 927      BINDING AFFINITY PREDICTED BY RF-SCORE:    0.00 PKD
ROOT
HETATM    1  C   UNL     1     -12.799  13.386  65.162  1.00  0.00    -0.380 C  
HETATM    2  C   UNL     1     -11.618  12.463  65.215  1.00  0.00    -0.419 A  
HETATM    3  C   UNL     1     -11.215  11.751  64.079  1.00  0.00    -0.461 A  
HETATM    4  C   UNL     1     -10.169  10.832  64.156  1.00  0.00    -0.412 A  
HETATM    5  C   UNL     1      -9.509  10.632  65.374  1.00  0.00    -0.215 A  
HETATM    6  C   UNL     1      -9.885  11.354  66.507  1.00  0.00    -0.237 A  
HETATM    7  C   UNL     1     -10.937  12.268  66.425  1.00  0.00    -0.326 A  
ENDROOT
BRANCH   5   8
HETATM    8  S   UNL     1      -8.305   9.333  65.525  1.00  0.00    -0.141 S  
HETATM    9  O   UNL     1      -7.009   9.971  65.638  1.00  0.00    -0.101 OA 
HETATM   10  O   UNL     1      -8.573   8.342  64.509  1.00  0.00    -0.114 OA 
BRANCH   8  11
HETATM   11  N   UNL     1      -8.675   8.642  66.978  1.00  0.00    -0.126 N  
HETATM   12  H   UNL     1      -9.455   7.985  66.969  1.00  0.00     0.000 HD 
BRANCH  11  13
HETATM   13  C   UNL     1      -8.064   8.834  68.217  1.00  0.00    -0.114 C  
HETATM   14  O   UNL     1      -7.191   9.687  68.309  1.00  0.00    -0.077 OA 
BRANCH  13  15
HETATM   15  N   UNL     1      -8.544   8.060  69.248  1.00  0.00    -0.136 N  
HETATM   16  H   UNL     1      -9.306   8.434  69.813  1.00  0.00     0.000 HD 
BRANCH  15  17
HETATM   17  N   UNL     1      -8.046   6.783  69.569  1.00  0.00    -0.124 NA 
HETATM   18  C   UNL     1      -8.471   6.333  70.910  1.00  0.00    -0.131 C  
HETATM   19  C   UNL     1      -9.723   5.462  70.746  1.00  0.00    -0.239 C  
HETATM   20  C   UNL     1     -11.012   6.088  71.271  1.00  0.00    -0.340 C  
HETATM   21  C   UNL     1     -11.503   6.971  70.139  1.00  0.00    -0.302 C  
HETATM   22  C   UNL     1     -11.141   6.190  68.882  1.00  0.00    -0.417 C  
HETATM   23  C   UNL     1      -9.923   5.319  69.236  1.00  0.00    -0.285 C  
HETATM   24  C   UNL     1      -8.587   5.766  68.647  1.00  0.00    -0.109 C  
ENDBRANCH  15  17
ENDBRANCH  13  15
ENDBRANCH  11  13
ENDBRANCH   8  11
ENDBRANCH   5   8
TORSDOF 5
ENDMDL
MODEL      234
REMARK 921   NORMALIZED FREE ENERGY PREDICTED BY IDOCK:   -3.40 KCAL/MOL
REMARK 922        TOTAL FREE ENERGY PREDICTED BY IDOCK:   -5.17 KCAL/MOL
REMARK 923 INTER-LIGAND FREE ENERGY PREDICTED BY IDOCK:   -4.66 KCAL/MOL
REMARK 924 INTRA-LIGAND FREE ENERGY PREDICTED BY IDOCK:   -0.51 KCAL/MOL
REMARK 927      BINDING AFFINITY PREDICTED BY RF-SCORE:    0.00 PKD
ROOT
HETATM    1  C   UNL     1      -5.763   9.254  63.362  1.00  0.00    -0.086 C  
HETATM    2  C   UNL     1      -6.969   9.812  64.058  1.00  0.00    -0.120 A  
HETATM    3  C   UNL     1      -8.177   9.979  63.372  1.00  0.00    -0.164 A  
HETATM    4  C   UNL     1      -9.270  10.575  64.002  1.00  0.00    -0.286 A  
HETATM    5  C   UNL     1      -9.160  10.994  65.333  1.00  0.00    -0.195 A  
HETATM    6  C   UNL     1      -7.969  10.810  66.035  1.00  0.00    -0.154 A  
HETATM    7  C   UNL     1      -6.877  10.218  65.398  1.00  0.00    -0.140 A  
ENDROOT
BRANCH   5   8
HETATM    8  S   UNL     1     -10.480  11.920  66.080  1.00  0.00    -0.247 S  
HETATM    9  O   UNL     1     -11.721  11.303  65.657  1.00  0.00    -0.017 OA 
HETATM   10  O   UNL     1     -10.227  13.327  65.869  1.00  0.00    -0.283 OA 
BRANCH   8  11
HETATM   11  N   UNL     1     -10.278  11.634  67.694  1.00  0.00    -0.186 N  
HETATM   12  H   UNL     1      -9.758  10.789  67.930  1.00  0.00     0.000 HD 
BRANCH  11  13
HETATM   13  C   UNL     1     -10.724  12.390  68.777  1.00  0.00    -0.209 C  
HETATM   14  O   UNL     1     -11.359  11.826  69.658  1.00  0.00    -0.259 OA 
BRANCH  13  15
HETATM   15  N   UNL     1     -10.359  13.717  68.771  1.00  0.00    -0.346 N  
HETATM   16  H   UNL     1      -9.448  13.962  68.384  1.00  0.00     0.000 HD 
BRANCH  15  17
HETATM   17  N   UNL     1     -11.169  14.756  69.267  1.00  0.00    -0.269 NA 
HETATM   18  C   UNL     1     -10.388  15.789  69.977  1.00  0.00    -0.278 C  
HETATM   19  C   UNL     1     -10.082  16.920  68.986  1.00  0.00    -0.292 C  
HETATM   20  C   UNL     1      -8.618  17.034  68.576  1.00  0.00    -0.257 C  
HETATM   21  C   UNL     1      -8.451  16.030  67.450  1.00  0.00    -0.187 C  
HETATM   22  C   UNL     1      -9.772  16.108  66.694  1.00  0.00    -0.260 C  
HETATM   23  C   UNL     1     -10.839  16.555  67.708  1.00  0.00    -0.304 C  
HETATM   24  C   UNL     1     -11.823  15.480  68.161  1.00  0.00    -0.117 C  
ENDBRANCH  15  17
ENDBRANCH  13  15
ENDBRANCH  11  13
ENDBRANCH   8  11
ENDBRANCH   5   8
TORSDOF 5
ENDMDL
MODEL      235
REMARK 921   NORMALIZED FREE ENERGY PREDICTED BY IDOCK:   -3.38 KCAL/MOL
REMARK 922        TOTAL FREE ENERGY PREDICTED BY IDOCK:   -5.14 KCAL/MOL
REMARK 923 INTER-LIGAND FREE ENERGY PREDICTED BY IDOCK:   -4.87 KCAL/MOL
REMARK 924 INTRA-LIGAND FREE ENERGY PREDICTED BY IDOCK:   -0.27 KCAL/MOL
REMARK 927      BINDING AFFINITY PREDICTED BY RF-SCORE:    0.00 PKD
ROOT
HETATM    1  C   UNL     1      -6.051   5.864  62.920  1.00  0.00    -0.021 C  
HETATM    2  C   UNL     1      -6.676   7.013  63.654  1.00  0.00    -0.044 A  
HETATM    3  C   UNL     1      -6.106   7.503  64.834  1.00  0.00    -0.038 A  
HETATM    4  C   UNL     1      -6.737   8.516  65.556  1.00  0.00    -0.059 A  
HETATM    5  C   UNL     1      -7.940   9.056  65.088  1.00  0.00    -0.119 A  
HETATM    6  C   UNL     1      -8.506   8.593  63.899  1.00  0.00    -0.075 A  
HETATM    7  C   UNL     1      -7.873   7.575  63.185  1.00  0.00    -0.133 A  
ENDROOT
BRANCH   5   8
HETATM    8  S   UNL     1      -8.844  10.209  66.094  1.00  0.00    -0.149 S  
HETATM    9  O   UNL     1      -7.976  11.349  66.310  1.00  0.00    -0.134 OA 
HETATM   10  O   UNL     1      -9.431   9.488  67.199  1.00  0.00    -0.142 OA 
BRANCH   8  11
HETATM   11  N   UNL     1     -10.086  10.677  65.112  1.00  0.00    -0.294 N  
HETATM   12  H   UNL     1     -10.981  10.218  65.283  1.00  0.00     0.000 HD 
BRANCH  11  13
HETATM   13  C   UNL     1     -10.077  11.615  64.081  1.00  0.00    -0.297 C  
HETATM   14  O   UNL     1      -9.890  11.222  62.938  1.00  0.00    -0.322 OA 
BRANCH  13  15
HETATM   15  N   UNL     1     -10.331  12.916  64.453  1.00  0.00    -0.476 N  
HETATM   16  H   UNL     1      -9.562  13.585  64.410  1.00  0.00     0.000 HD 
BRANCH  15  17
HETATM   17  N   UNL     1     -11.587  13.377  64.888  1.00  0.00    -0.319 NA 
HETATM   18  C   UNL     1     -11.750  13.271  66.352  1.00  0.00    -0.373 C  
HETATM   19  C   UNL     1     -11.385  14.626  66.973  1.00  0.00    -0.362 C  
HETATM   20  C   UNL     1     -10.090  14.633  67.779  1.00  0.00    -0.228 C  
HETATM   21  C   UNL     1      -8.993  14.830  66.751  1.00  0.00    -0.292 C  
HETATM   22  C   UNL     1      -9.612  15.782  65.734  1.00  0.00    -0.355 C  
HETATM   23  C   UNL     1     -11.134  15.560  65.787  1.00  0.00    -0.217 C  
HETATM   24  C   UNL     1     -11.742  14.816  64.601  1.00  0.00    -0.422 C  
ENDBRANCH  15  17
ENDBRANCH  13  15
ENDBRANCH  11  13
ENDBRANCH   8  11
ENDBRANCH   5   8
TORSDOF 5
ENDMDL
MODEL      236
REMARK 921   NORMALIZED FREE ENERGY PREDICTED BY IDOCK:   -3.36 KCAL/MOL
REMARK 922        TOTAL FREE ENERGY PREDICTED BY IDOCK:   -5.13 KCAL/MOL
REMARK 923 INTER-LIGAND FREE ENERGY PREDICTED BY IDOCK:   -4.02 KCAL/MOL
REMARK 924 INTRA-LIGAND FREE ENERGY PREDICTED BY IDOCK:   -1.11 KCAL/MOL
REMARK 927      BINDING AFFINITY PREDICTED BY RF-SCORE:    0.00 PKD
ROOT
HETATM    1  C   UNL     1      -8.171   8.241  74.559  1.00  0.00    -0.155 C  
HETATM    2  C   UNL     1      -8.642   7.768  73.216  1.00  0.00    -0.240 A  
HETATM    3  C   UNL     1      -9.997   7.503  72.986  1.00  0.00    -0.321 A  
HETATM    4  C   UNL     1     -10.417   6.985  71.761  1.00  0.00    -0.223 A  
HETATM    5  C   UNL     1      -9.479   6.743  70.751  1.00  0.00    -0.165 A  
HETATM    6  C   UNL     1      -8.128   7.027  70.959  1.00  0.00    -0.105 A  
HETATM    7  C   UNL     1      -7.714   7.540  72.190  1.00  0.00    -0.096 A  
ENDROOT
BRANCH   5   8
HETATM    8  S   UNL     1      -9.976   5.912  69.261  1.00  0.00    -0.189 S  
HETATM    9  O   UNL     1     -11.338   6.321  68.985  1.00  0.00    -0.390 OA 
HETATM   10  O   UNL     1      -9.616   4.517  69.375  1.00  0.00    -0.161 OA 
BRANCH   8  11
HETATM   11  N   UNL     1      -8.990   6.569  68.112  1.00  0.00    -0.118 N  
HETATM   12  H   UNL     1      -8.052   6.821  68.426  1.00  0.00     0.000 HD 
BRANCH  11  13
HETATM   13  C   UNL     1      -9.265   6.827  66.770  1.00  0.00    -0.150 C  
HETATM   14  O   UNL     1      -9.682   5.910  66.075  1.00  0.00    -0.100 OA 
BRANCH  13  15
HETATM   15  N   UNL     1      -9.080   8.127  66.360  1.00  0.00    -0.172 N  
HETATM   16  H   UNL     1      -8.137   8.418  66.101  1.00  0.00     0.000 HD 
BRANCH  15  17
HETATM   17  N   UNL     1     -10.113   9.079  66.276  1.00  0.00    -0.286 NA 
HETATM   18  C   UNL     1     -10.754   9.331  67.583  1.00  0.00    -0.209 C  
HETATM   19  C   UNL     1     -10.090  10.565  68.209  1.00  0.00    -0.180 C  
HETATM   20  C   UNL     1      -9.224  10.275  69.431  1.00  0.00    -0.206 C  
HETATM   21  C   UNL     1      -7.878   9.864  68.865  1.00  0.00    -0.091 C  
HETATM   22  C   UNL     1      -7.713  10.750  67.636  1.00  0.00    -0.104 C  
HETATM   23  C   UNL     1      -9.129  11.094  67.142  1.00  0.00    -0.151 C  
HETATM   24  C   UNL     1      -9.581  10.392  65.864  1.00  0.00    -0.206 C  
ENDBRANCH  15  17
ENDBRANCH  13  15
ENDBRANCH  11  13
ENDBRANCH   8  11
ENDBRANCH   5   8
TORSDOF 5
ENDMDL
MODEL      237
REMARK 921   NORMALIZED FREE ENERGY PREDICTED BY IDOCK:   -3.33 KCAL/MOL
REMARK 922        TOTAL FREE ENERGY PREDICTED BY IDOCK:   -5.09 KCAL/MOL
REMARK 923 INTER-LIGAND FREE ENERGY PREDICTED BY IDOCK:   -4.60 KCAL/MOL
REMARK 924 INTRA-LIGAND FREE ENERGY PREDICTED BY IDOCK:   -0.48 KCAL/MOL
REMARK 927      BINDING AFFINITY PREDICTED BY RF-SCORE:    0.00 PKD
ROOT
HETATM    1  C   UNL     1      -7.183   9.988  63.016  1.00  0.00    -0.131 C  
HETATM    2  C   UNL     1      -7.992  10.079  64.276  1.00  0.00    -0.152 A  
HETATM    3  C   UNL     1      -9.390  10.014  64.234  1.00  0.00    -0.345 A  
HETATM    4  C   UNL     1     -10.139  10.182  65.398  1.00  0.00    -0.342 A  
HETATM    5  C   UNL     1      -9.488  10.402  66.618  1.00  0.00    -0.165 A  
HETATM    6  C   UNL     1      -8.094  10.444  66.676  1.00  0.00    -0.122 A  
HETATM    7  C   UNL     1      -7.350  10.281  65.506  1.00  0.00    -0.149 A  
ENDROOT
BRANCH   5   8
HETATM    8  S   UNL     1     -10.434  10.804  68.067  1.00  0.00    -0.209 S  
HETATM    9  O   UNL     1     -11.832  10.694  67.701  1.00  0.00    -0.411 OA 
HETATM   10  O   UNL     1      -9.898  12.017  68.641  1.00  0.00    -0.194 OA 
BRANCH   8  11
HETATM   11  N   UNL     1     -10.070   9.577  69.110  1.00  0.00    -0.187 N  
HETATM   12  H   UNL     1      -9.413   8.880  68.759  1.00  0.00     0.000 HD 
BRANCH  11  13
HETATM   13  C   UNL     1     -10.538   9.366  70.406  1.00  0.00    -0.261 C  
HETATM   14  O   UNL     1     -11.401  10.116  70.843  1.00  0.00    -0.332 OA 
BRANCH  13  15
HETATM   15  N   UNL     1     -10.005   8.282  71.066  1.00  0.00    -0.183 N  
HETATM   16  H   UNL     1      -9.331   8.459  71.810  1.00  0.00     0.000 HD 
BRANCH  15  17
HETATM   17  N   UNL     1     -10.335   6.945  70.774  1.00  0.00    -0.202 NA 
HETATM   18  C   UNL     1      -9.140   6.091  70.618  1.00  0.00    -0.150 C  
HETATM   19  C   UNL     1      -8.867   5.404  71.963  1.00  0.00    -0.139 C  
HETATM   20  C   UNL     1      -7.615   5.889  72.687  1.00  0.00    -0.097 C  
HETATM   21  C   UNL     1      -8.056   7.133  73.435  1.00  0.00    -0.128 C  
HETATM   22  C   UNL     1      -9.477   6.806  73.879  1.00  0.00    -0.234 C  
HETATM   23  C   UNL     1     -10.040   5.796  72.864  1.00  0.00    -0.205 C  
HETATM   24  C   UNL     1     -11.083   6.337  71.890  1.00  0.00    -0.268 C  
ENDBRANCH  15  17
ENDBRANCH  13  15
ENDBRANCH  11  13
ENDBRANCH   8  11
ENDBRANCH   5   8
TORSDOF 5
ENDMDL
MODEL      238
REMARK 921   NORMALIZED FREE ENERGY PREDICTED BY IDOCK:   -3.33 KCAL/MOL
REMARK 922        TOTAL FREE ENERGY PREDICTED BY IDOCK:   -5.08 KCAL/MOL
REMARK 923 INTER-LIGAND FREE ENERGY PREDICTED BY IDOCK:   -4.62 KCAL/MOL
REMARK 924 INTRA-LIGAND FREE ENERGY PREDICTED BY IDOCK:   -0.46 KCAL/MOL
REMARK 927      BINDING AFFINITY PREDICTED BY RF-SCORE:    0.00 PKD
ROOT
HETATM    1  C   UNL     1     -14.346   7.836  71.704  1.00  0.00    -0.607 C  
HETATM    2  C   UNL     1     -12.859   7.860  71.508  1.00  0.00    -0.340 A  
HETATM    3  C   UNL     1     -12.143   6.672  71.321  1.00  0.00    -0.395 A  
HETATM    4  C   UNL     1     -10.752   6.694  71.221  1.00  0.00    -0.269 A  
HETATM    5  C   UNL     1     -10.070   7.915  71.295  1.00  0.00    -0.180 A  
HETATM    6  C   UNL     1     -10.775   9.109  71.456  1.00  0.00    -0.437 A  
HETATM    7  C   UNL     1     -12.166   9.079  71.561  1.00  0.00    -0.403 A  
ENDROOT
BRANCH   5   8
HETATM    8  S   UNL     1      -8.294   7.934  71.359  1.00  0.00    -0.114 S  
HETATM    9  O   UNL     1      -7.889   6.803  72.168  1.00  0.00    -0.095 OA 
HETATM   10  O   UNL     1      -7.863   9.278  71.670  1.00  0.00    -0.329 OA 
BRANCH   8  11
HETATM   11  N   UNL     1      -7.855   7.640  69.795  1.00  0.00    -0.108 N  
HETATM   12  H   UNL     1      -8.133   8.351  69.117  1.00  0.00     0.000 HD 
BRANCH  11  13
HETATM   13  C   UNL     1      -7.156   6.552  69.274  1.00  0.00    -0.084 C  
HETATM   14  O   UNL     1      -6.115   6.213  69.822  1.00  0.00    -0.024 OA 
BRANCH  13  15
HETATM   15  N   UNL     1      -7.740   5.924  68.198  1.00  0.00    -0.099 N  
HETATM   16  H   UNL     1      -7.337   5.042  67.881  1.00  0.00     0.000 HD 
BRANCH  15  17
HETATM   17  N   UNL     1      -8.860   6.426  67.509  1.00  0.00    -0.112 NA 
HETATM   18  C   UNL     1      -8.812   6.130  66.063  1.00  0.00    -0.153 C  
HETATM   19  C   UNL     1      -9.621   4.850  65.812  1.00  0.00    -0.181 C  
HETATM   20  C   UNL     1      -8.789   3.633  65.419  1.00  0.00    -0.123 C  
HETATM   21  C   UNL     1      -8.310   3.049  66.735  1.00  0.00    -0.093 C  
HETATM   22  C   UNL     1      -9.486   3.267  67.680  1.00  0.00    -0.214 C  
HETATM   23  C   UNL     1     -10.251   4.497  67.161  1.00  0.00    -0.096 C  
HETATM   24  C   UNL     1     -10.097   5.775  67.981  1.00  0.00    -0.161 C  
ENDBRANCH  15  17
ENDBRANCH  13  15
ENDBRANCH  11  13
ENDBRANCH   8  11
ENDBRANCH   5   8
TORSDOF 5
ENDMDL
MODEL      239
REMARK 921   NORMALIZED FREE ENERGY PREDICTED BY IDOCK:   -3.32 KCAL/MOL
REMARK 922        TOTAL FREE ENERGY PREDICTED BY IDOCK:   -5.07 KCAL/MOL
REMARK 923 INTER-LIGAND FREE ENERGY PREDICTED BY IDOCK:   -5.23 KCAL/MOL
REMARK 924 INTRA-LIGAND FREE ENERGY PREDICTED BY IDOCK:    0.17 KCAL/MOL
REMARK 927      BINDING AFFINITY PREDICTED BY RF-SCORE:    0.00 PKD
ROOT
HETATM    1  C   UNL     1      -6.480  21.035  64.196  1.00  0.00    -0.246 C  
HETATM    2  C   UNL     1      -6.501  19.753  64.976  1.00  0.00    -0.316 A  
HETATM    3  C   UNL     1      -7.593  19.429  65.790  1.00  0.00    -0.216 A  
HETATM    4  C   UNL     1      -7.569  18.277  66.575  1.00  0.00    -0.271 A  
HETATM    5  C   UNL     1      -6.453  17.433  66.538  1.00  0.00    -0.234 A  
HETATM    6  C   UNL     1      -5.369  17.733  65.711  1.00  0.00    -0.200 A  
HETATM    7  C   UNL     1      -5.396  18.891  64.932  1.00  0.00    -0.239 A  
ENDROOT
BRANCH   5   8
HETATM    8  S   UNL     1      -6.335  16.070  67.672  1.00  0.00    -0.173 S  
HETATM    9  O   UNL     1      -6.400  16.626  69.008  1.00  0.00    -0.160 OA 
HETATM   10  O   UNL     1      -5.238  15.226  67.258  1.00  0.00    -0.331 OA 
BRANCH   8  11
HETATM   11  N   UNL     1      -7.724  15.222  67.391  1.00  0.00    -0.181 N  
HETATM   12  H   UNL     1      -7.742  14.676  66.529  1.00  0.00     0.000 HD 
BRANCH  11  13
HETATM   13  C   UNL     1      -8.876  15.152  68.173  1.00  0.00    -0.169 C  
HETATM   14  O   UNL     1      -8.881  15.723  69.255  1.00  0.00    -0.240 OA 
BRANCH  13  15
HETATM   15  N   UNL     1      -9.935  14.469  67.619  1.00  0.00    -0.223 N  
HETATM   16  H   UNL     1     -10.811  14.440  68.139  1.00  0.00     0.000 HD 
BRANCH  15  17
HETATM   17  N   UNL     1      -9.879  13.807  66.377  1.00  0.00    -0.290 NA 
HETATM   18  C   UNL     1      -9.094  12.558  66.439  1.00  0.00    -0.127 C  
HETATM   19  C   UNL     1     -10.068  11.394  66.665  1.00  0.00    -0.247 C  
HETATM   20  C   UNL     1      -9.979  10.741  68.041  1.00  0.00    -0.183 C  
HETATM   21  C   UNL     1     -10.841  11.610  68.938  1.00  0.00    -0.264 C  
HETATM   22  C   UNL     1     -11.997  12.030  68.037  1.00  0.00    -0.214 C  
HETATM   23  C   UNL     1     -11.465  12.014  66.594  1.00  0.00    -0.411 C  
HETATM   24  C   UNL     1     -11.225  13.379  65.954  1.00  0.00    -0.300 C  
ENDBRANCH  15  17
ENDBRANCH  13  15
ENDBRANCH  11  13
ENDBRANCH   8  11
ENDBRANCH   5   8
TORSDOF 5
ENDMDL
MODEL      240
REMARK 921   NORMALIZED FREE ENERGY PREDICTED BY IDOCK:   -3.31 KCAL/MOL
REMARK 922        TOTAL FREE ENERGY PREDICTED BY IDOCK:   -5.05 KCAL/MOL
REMARK 923 INTER-LIGAND FREE ENERGY PREDICTED BY IDOCK:   -4.68 KCAL/MOL
REMARK 924 INTRA-LIGAND FREE ENERGY PREDICTED BY IDOCK:   -0.37 KCAL/MOL
REMARK 927      BINDING AFFINITY PREDICTED BY RF-SCORE:    0.00 PKD
ROOT
HETATM    1  C   UNL     1      -5.888  10.913  66.344  1.00  0.00    -0.123 C  
HETATM    2  C   UNL     1      -7.182  10.871  67.102  1.00  0.00    -0.104 A  
HETATM    3  C   UNL     1      -8.248  10.083  66.654  1.00  0.00    -0.122 A  
HETATM    4  C   UNL     1      -9.475  10.113  67.317  1.00  0.00    -0.178 A  
HETATM    5  C   UNL     1      -9.635  10.926  68.445  1.00  0.00    -0.177 A  
HETATM    6  C   UNL     1      -8.572  11.697  68.916  1.00  0.00     0.067 A  
HETATM    7  C   UNL     1      -7.348  11.668  68.244  1.00  0.00    -0.093 A  
ENDROOT
BRANCH   5   8
HETATM    8  S   UNL     1     -11.242  11.114  69.180  1.00  0.00    -0.291 S  
HETATM    9  O   UNL     1     -11.221  10.383  70.431  1.00  0.00    -0.297 OA 
HETATM   10  O   UNL     1     -12.240  10.850  68.169  1.00  0.00    -0.503 OA 
BRANCH   8  11
HETATM   11  N   UNL     1     -11.318  12.728  69.519  1.00  0.00    -0.448 N  
HETATM   12  H   UNL     1     -11.117  12.986  70.486  1.00  0.00     0.000 HD 
BRANCH  11  13
HETATM   13  C   UNL     1     -11.620  13.786  68.664  1.00  0.00    -0.334 C  
HETATM   14  O   UNL     1     -12.656  13.731  68.014  1.00  0.00     0.101 OA 
BRANCH  13  15
HETATM   15  N   UNL     1     -10.727  14.833  68.668  1.00  0.00    -0.245 N  
HETATM   16  H   UNL     1     -11.100  15.780  68.720  1.00  0.00     0.000 HD 
BRANCH  15  17
HETATM   17  N   UNL     1      -9.330  14.673  68.603  1.00  0.00    -0.204 NA 
HETATM   18  C   UNL     1      -8.776  15.076  67.295  1.00  0.00    -0.203 C  
HETATM   19  C   UNL     1      -8.292  16.528  67.409  1.00  0.00    -0.188 C  
HETATM   20  C   UNL     1      -9.123  17.543  66.630  1.00  0.00    -0.287 C  
HETATM   21  C   UNL     1     -10.284  17.879  67.546  1.00  0.00    -0.366 C  
HETATM   22  C   UNL     1      -9.667  17.862  68.940  1.00  0.00    -0.268 C  
HETATM   23  C   UNL     1      -8.469  16.899  68.883  1.00  0.00    -0.202 C  
HETATM   24  C   UNL     1      -8.659  15.553  69.578  1.00  0.00    -0.218 C  
ENDBRANCH  15  17
ENDBRANCH  13  15
ENDBRANCH  11  13
ENDBRANCH   8  11
ENDBRANCH   5   8
TORSDOF 5
ENDMDL
MODEL      241
REMARK 921   NORMALIZED FREE ENERGY PREDICTED BY IDOCK:   -3.30 KCAL/MOL
REMARK 922        TOTAL FREE ENERGY PREDICTED BY IDOCK:   -5.04 KCAL/MOL
REMARK 923 INTER-LIGAND FREE ENERGY PREDICTED BY IDOCK:   -4.19 KCAL/MOL
REMARK 924 INTRA-LIGAND FREE ENERGY PREDICTED BY IDOCK:   -0.85 KCAL/MOL
REMARK 927      BINDING AFFINITY PREDICTED BY RF-SCORE:    0.00 PKD
ROOT
HETATM    1  C   UNL     1     -14.224   7.684  71.568  1.00  0.00    -0.564 C  
HETATM    2  C   UNL     1     -12.734   7.820  71.674  1.00  0.00    -0.358 A  
HETATM    3  C   UNL     1     -12.112   9.055  71.456  1.00  0.00    -0.410 A  
HETATM    4  C   UNL     1     -10.721   9.157  71.474  1.00  0.00    -0.437 A  
HETATM    5  C   UNL     1      -9.944   8.020  71.725  1.00  0.00    -0.187 A  
HETATM    6  C   UNL     1     -10.554   6.789  71.969  1.00  0.00    -0.239 A  
HETATM    7  C   UNL     1     -11.946   6.692  71.944  1.00  0.00    -0.386 A  
ENDROOT
BRANCH   5   8
HETATM    8  S   UNL     1      -8.176   8.102  71.564  1.00  0.00    -0.137 S  
HETATM    9  O   UNL     1      -7.617   7.637  72.817  1.00  0.00    -0.086 OA 
HETATM   10  O   UNL     1      -7.828   9.393  71.015  1.00  0.00    -0.289 OA 
BRANCH   8  11
HETATM   11  N   UNL     1      -7.849   6.980  70.398  1.00  0.00    -0.106 N  
HETATM   12  H   UNL     1      -8.630   6.380  70.131  1.00  0.00     0.000 HD 
BRANCH  11  13
HETATM   13  C   UNL     1      -6.650   6.742  69.728  1.00  0.00    -0.048 C  
HETATM   14  O   UNL     1      -5.602   7.022  70.294  1.00  0.00    -0.023 OA 
BRANCH  13  15
HETATM   15  N   UNL     1      -6.763   6.160  68.487  1.00  0.00    -0.062 N  
HETATM   16  H   UNL     1      -7.201   6.702  67.742  1.00  0.00     0.000 HD 
BRANCH  15  17
HETATM   17  N   UNL     1      -6.310   4.861  68.184  1.00  0.00    -0.035 NA 
HETATM   18  C   UNL     1      -6.926   3.834  69.048  1.00  0.00    -0.046 C  
HETATM   19  C   UNL     1      -8.136   3.250  68.306  1.00  0.00    -0.080 C  
HETATM   20  C   UNL     1      -9.492   3.619  68.899  1.00  0.00    -0.218 C  
HETATM   21  C   UNL     1      -9.815   4.980  68.313  1.00  0.00    -0.211 C  
HETATM   22  C   UNL     1      -9.266   4.906  66.893  1.00  0.00    -0.124 C  
HETATM   23  C   UNL     1      -8.108   3.892  66.917  1.00  0.00    -0.096 C  
HETATM   24  C   UNL     1      -6.703   4.479  66.814  1.00  0.00    -0.051 C  
ENDBRANCH  15  17
ENDBRANCH  13  15
ENDBRANCH  11  13
ENDBRANCH   8  11
ENDBRANCH   5   8
TORSDOF 5
ENDMDL
MODEL      242
REMARK 921   NORMALIZED FREE ENERGY PREDICTED BY IDOCK:   -3.26 KCAL/MOL
REMARK 922        TOTAL FREE ENERGY PREDICTED BY IDOCK:   -5.00 KCAL/MOL
REMARK 923 INTER-LIGAND FREE ENERGY PREDICTED BY IDOCK:   -4.20 KCAL/MOL
REMARK 924 INTRA-LIGAND FREE ENERGY PREDICTED BY IDOCK:   -0.80 KCAL/MOL
REMARK 927      BINDING AFFINITY PREDICTED BY RF-SCORE:    0.00 PKD
ROOT
HETATM    1  C   UNL     1      -7.678   4.040  65.795  1.00  0.00    -0.090 C  
HETATM    2  C   UNL     1      -7.764   5.532  65.669  1.00  0.00    -0.088 A  
HETATM    3  C   UNL     1      -6.694   6.268  65.147  1.00  0.00    -0.047 A  
HETATM    4  C   UNL     1      -6.747   7.661  65.110  1.00  0.00    -0.047 A  
HETATM    5  C   UNL     1      -7.884   8.326  65.585  1.00  0.00    -0.104 A  
HETATM    6  C   UNL     1      -8.967   7.601  66.085  1.00  0.00    -0.197 A  
HETATM    7  C   UNL     1      -8.905   6.207  66.125  1.00  0.00    -0.158 A  
ENDROOT
BRANCH   5   8
HETATM    8  S   UNL     1      -7.884  10.098  65.715  1.00  0.00    -0.144 S  
HETATM    9  O   UNL     1      -8.945  10.583  64.856  1.00  0.00    -0.182 OA 
HETATM   10  O   UNL     1      -6.525  10.566  65.574  1.00  0.00    -0.124 OA 
BRANCH   8  11
HETATM   11  N   UNL     1      -8.322  10.363  67.285  1.00  0.00    -0.121 N  
HETATM   12  H   UNL     1      -7.738   9.909  67.989  1.00  0.00     0.000 HD 
BRANCH  11  13
HETATM   13  C   UNL     1      -9.380  11.123  67.780  1.00  0.00    -0.164 C  
HETATM   14  O   UNL     1     -10.511  10.663  67.706  1.00  0.00    -0.194 OA 
BRANCH  13  15
HETATM   15  N   UNL     1      -9.036  12.325  68.355  1.00  0.00    -0.300 N  
HETATM   16  H   UNL     1      -9.084  12.400  69.371  1.00  0.00     0.000 HD 
BRANCH  15  17
HETATM   17  N   UNL     1      -8.622  13.456  67.626  1.00  0.00    -0.179 NA 
HETATM   18  C   UNL     1      -9.546  13.782  66.521  1.00  0.00    -0.285 C  
HETATM   19  C   UNL     1     -10.528  14.850  67.021  1.00  0.00    -0.272 C  
HETATM   20  C   UNL     1     -11.964  14.366  67.201  1.00  0.00    -0.419 C  
HETATM   21  C   UNL     1     -11.988  13.728  68.577  1.00  0.00    -0.402 C  
HETATM   22  C   UNL     1     -11.055  14.605  69.403  1.00  0.00    -0.293 C  
HETATM   23  C   UNL     1     -10.042  15.223  68.423  1.00  0.00    -0.220 C  
HETATM   24  C   UNL     1      -8.626  14.657  68.481  1.00  0.00    -0.170 C  
ENDBRANCH  15  17
ENDBRANCH  13  15
ENDBRANCH  11  13
ENDBRANCH   8  11
ENDBRANCH   5   8
TORSDOF 5
ENDMDL
MODEL      243
REMARK 921   NORMALIZED FREE ENERGY PREDICTED BY IDOCK:   -3.23 KCAL/MOL
REMARK 922        TOTAL FREE ENERGY PREDICTED BY IDOCK:   -4.95 KCAL/MOL
REMARK 923 INTER-LIGAND FREE ENERGY PREDICTED BY IDOCK:   -4.16 KCAL/MOL
REMARK 924 INTRA-LIGAND FREE ENERGY PREDICTED BY IDOCK:   -0.79 KCAL/MOL
REMARK 927      BINDING AFFINITY PREDICTED BY RF-SCORE:    0.00 PKD
ROOT
HETATM    1  C   UNL     1      -5.849  10.165  62.587  1.00  0.00    -0.117 C  
HETATM    2  C   UNL     1      -6.809  10.400  63.715  1.00  0.00     0.008 A  
HETATM    3  C   UNL     1      -8.189  10.290  63.514  1.00  0.00    -0.159 A  
HETATM    4  C   UNL     1      -9.079  10.590  64.545  1.00  0.00    -0.251 A  
HETATM    5  C   UNL     1      -8.587  10.990  65.793  1.00  0.00    -0.150 A  
HETATM    6  C   UNL     1      -7.212  11.080  66.013  1.00  0.00    -0.014 A  
HETATM    7  C   UNL     1      -6.326  10.784  64.975  1.00  0.00     0.116 A  
ENDROOT
BRANCH   5   8
HETATM    8  S   UNL     1      -9.710  11.554  67.049  1.00  0.00    -0.186 S  
HETATM    9  O   UNL     1      -8.915  12.234  68.051  1.00  0.00    -0.176 OA 
HETATM   10  O   UNL     1     -10.591  10.462  67.397  1.00  0.00    -0.231 OA 
BRANCH   8  11
HETATM   11  N   UNL     1     -10.628  12.678  66.261  1.00  0.00    -0.250 N  
HETATM   12  H   UNL     1     -11.625  12.664  66.477  1.00  0.00     0.000 HD 
BRANCH  11  13
HETATM   13  C   UNL     1     -10.225  13.643  65.339  1.00  0.00    -0.313 C  
HETATM   14  O   UNL     1     -10.830  13.724  64.279  1.00  0.00    -0.368 OA 
BRANCH  13  15
HETATM   15  N   UNL     1      -9.191  14.458  65.740  1.00  0.00    -0.487 N  
HETATM   16  H   UNL     1      -8.488  14.067  66.367  1.00  0.00     0.000 HD 
BRANCH  15  17
HETATM   17  N   UNL     1      -9.047  15.799  65.336  1.00  0.00     0.001 NA 
HETATM   18  C   UNL     1     -10.253  16.604  65.617  1.00  0.00    -0.262 C  
HETATM   19  C   UNL     1     -10.051  17.313  66.963  1.00  0.00    -0.303 C  
HETATM   20  C   UNL     1     -10.934  16.800  68.096  1.00  0.00    -0.309 C  
HETATM   21  C   UNL     1     -10.198  15.592  68.644  1.00  0.00    -0.216 C  
HETATM   22  C   UNL     1      -8.729  15.981  68.540  1.00  0.00    -0.195 C  
HETATM   23  C   UNL     1      -8.616  16.986  67.381  1.00  0.00    -0.208 C  
HETATM   24  C   UNL     1      -7.973  16.461  66.100  1.00  0.00    -0.094 C  
ENDBRANCH  15  17
ENDBRANCH  13  15
ENDBRANCH  11  13
ENDBRANCH   8  11
ENDBRANCH   5   8
TORSDOF 5
ENDMDL
MODEL      244
REMARK 921   NORMALIZED FREE ENERGY PREDICTED BY IDOCK:   -3.22 KCAL/MOL
REMARK 922        TOTAL FREE ENERGY PREDICTED BY IDOCK:   -4.94 KCAL/MOL
REMARK 923 INTER-LIGAND FREE ENERGY PREDICTED BY IDOCK:   -3.58 KCAL/MOL
REMARK 924 INTRA-LIGAND FREE ENERGY PREDICTED BY IDOCK:   -1.36 KCAL/MOL
REMARK 927      BINDING AFFINITY PREDICTED BY RF-SCORE:    0.00 PKD
ROOT
HETATM    1  C   UNL     1      -9.346   7.025  74.440  1.00  0.00    -0.233 C  
HETATM    2  C   UNL     1      -9.553   7.087  72.956  1.00  0.00    -0.182 A  
HETATM    3  C   UNL     1      -8.493   7.404  72.099  1.00  0.00    -0.124 A  
HETATM    4  C   UNL     1      -8.712   7.542  70.728  1.00  0.00    -0.140 A  
HETATM    5  C   UNL     1      -9.996   7.347  70.206  1.00  0.00    -0.188 A  
HETATM    6  C   UNL     1     -11.056   7.006  71.048  1.00  0.00    -0.295 A  
HETATM    7  C   UNL     1     -10.832   6.876  72.420  1.00  0.00    -0.267 A  
ENDROOT
BRANCH   5   8
HETATM    8  S   UNL     1     -10.320   7.704  68.496  1.00  0.00    -0.180 S  
HETATM    9  O   UNL     1     -10.692   9.102  68.420  1.00  0.00    -0.194 OA 
HETATM   10  O   UNL     1     -11.176   6.666  67.967  1.00  0.00    -0.239 OA 
BRANCH   8  11
HETATM   11  N   UNL     1      -8.843   7.517  67.782  1.00  0.00    -0.132 N  
HETATM   12  H   UNL     1      -8.105   8.131  68.128  1.00  0.00     0.000 HD 
BRANCH  11  13
HETATM   13  C   UNL     1      -8.468   6.634  66.771  1.00  0.00    -0.117 C  
HETATM   14  O   UNL     1      -8.631   6.977  65.608  1.00  0.00    -0.151 OA 
BRANCH  13  15
HETATM   15  N   UNL     1      -7.896   5.453  67.189  1.00  0.00    -0.100 N  
HETATM   16  H   UNL     1      -7.250   5.487  67.977  1.00  0.00     0.000 HD 
BRANCH  15  17
HETATM   17  N   UNL     1      -8.151   4.204  66.593  1.00  0.00    -0.101 NA 
HETATM   18  C   UNL     1      -7.263   3.142  67.107  1.00  0.00    -0.058 C  
HETATM   19  C   UNL     1      -8.001   2.407  68.234  1.00  0.00    -0.064 C  
HETATM   20  C   UNL     1      -7.437   2.644  69.631  1.00  0.00    -0.044 C  
HETATM   21  C   UNL     1      -8.071   3.943  70.091  1.00  0.00    -0.063 C  
HETATM   22  C   UNL     1      -9.480   3.885  69.514  1.00  0.00    -0.259 C  
HETATM   23  C   UNL     1      -9.409   3.006  68.254  1.00  0.00    -0.253 C  
HETATM   24  C   UNL     1      -9.513   3.739  66.919  1.00  0.00    -0.199 C  
ENDBRANCH  15  17
ENDBRANCH  13  15
ENDBRANCH  11  13
ENDBRANCH   8  11
ENDBRANCH   5   8
TORSDOF 5
ENDMDL
MODEL      245
REMARK 921   NORMALIZED FREE ENERGY PREDICTED BY IDOCK:   -3.19 KCAL/MOL
REMARK 922        TOTAL FREE ENERGY PREDICTED BY IDOCK:   -4.90 KCAL/MOL
REMARK 923 INTER-LIGAND FREE ENERGY PREDICTED BY IDOCK:   -3.79 KCAL/MOL
REMARK 924 INTRA-LIGAND FREE ENERGY PREDICTED BY IDOCK:   -1.11 KCAL/MOL
REMARK 927      BINDING AFFINITY PREDICTED BY RF-SCORE:    0.00 PKD
ROOT
HETATM    1  C   UNL     1      -9.541   9.570  65.329  1.00  0.00    -0.314 C  
HETATM    2  C   UNL     1     -10.062   9.227  66.693  1.00  0.00    -0.341 A  
HETATM    3  C   UNL     1     -10.318  10.232  67.633  1.00  0.00    -0.264 A  
HETATM    4  C   UNL     1     -10.723   9.901  68.927  1.00  0.00    -0.244 A  
HETATM    5  C   UNL     1     -10.888   8.557  69.280  1.00  0.00    -0.056 A  
HETATM    6  C   UNL     1     -10.660   7.548  68.344  1.00  0.00    -0.177 A  
HETATM    7  C   UNL     1     -10.249   7.885  67.053  1.00  0.00    -0.382 A  
ENDROOT
BRANCH   5   8
HETATM    8  S   UNL     1     -11.219   8.120  70.971  1.00  0.00    -0.261 S  
HETATM    9  O   UNL     1     -12.195   7.050  70.946  1.00  0.00    -0.364 OA 
HETATM   10  O   UNL     1     -11.450   9.335  71.719  1.00  0.00    -0.366 OA 
BRANCH   8  11
HETATM   11  N   UNL     1      -9.779   7.502  71.492  1.00  0.00    -0.166 N  
HETATM   12  H   UNL     1      -9.845   6.709  72.131  1.00  0.00     0.000 HD 
BRANCH  11  13
HETATM   13  C   UNL     1      -8.486   7.918  71.178  1.00  0.00    -0.120 C  
HETATM   14  O   UNL     1      -8.188   9.089  71.375  1.00  0.00    -0.268 OA 
BRANCH  13  15
HETATM   15  N   UNL     1      -7.640   6.940  70.710  1.00  0.00    -0.089 N  
HETATM   16  H   UNL     1      -7.834   5.973  70.971  1.00  0.00     0.000 HD 
BRANCH  15  17
HETATM   17  N   UNL     1      -6.523   7.193  69.891  1.00  0.00    -0.038 NA 
HETATM   18  C   UNL     1      -5.516   6.116  69.962  1.00  0.00    -0.013 C  
HETATM   19  C   UNL     1      -5.764   5.154  68.792  1.00  0.00    -0.016 C  
HETATM   20  C   UNL     1      -6.298   3.782  69.193  1.00  0.00    -0.029 C  
HETATM   21  C   UNL     1      -7.797   3.973  69.327  1.00  0.00    -0.056 C  
HETATM   22  C   UNL     1      -8.140   4.961  68.218  1.00  0.00    -0.085 C  
HETATM   23  C   UNL     1      -6.877   5.801  67.965  1.00  0.00    -0.064 C  
HETATM   24  C   UNL     1      -6.918   7.240  68.471  1.00  0.00    -0.079 C  
ENDBRANCH  15  17
ENDBRANCH  13  15
ENDBRANCH  11  13
ENDBRANCH   8  11
ENDBRANCH   5   8
TORSDOF 5
ENDMDL
MODEL      246
REMARK 921   NORMALIZED FREE ENERGY PREDICTED BY IDOCK:   -3.15 KCAL/MOL
REMARK 922        TOTAL FREE ENERGY PREDICTED BY IDOCK:   -4.86 KCAL/MOL
REMARK 923 INTER-LIGAND FREE ENERGY PREDICTED BY IDOCK:   -4.83 KCAL/MOL
REMARK 924 INTRA-LIGAND FREE ENERGY PREDICTED BY IDOCK:   -0.03 KCAL/MOL
REMARK 927      BINDING AFFINITY PREDICTED BY RF-SCORE:    0.00 PKD
ROOT
HETATM    1  C   UNL     1      -5.132  14.276  73.381  1.00  0.00    -0.372 C  
HETATM    2  C   UNL     1      -5.501  13.804  72.006  1.00  0.00    -0.172 A  
HETATM    3  C   UNL     1      -5.151  12.519  71.574  1.00  0.00    -0.112 A  
HETATM    4  C   UNL     1      -5.424  12.116  70.266  1.00  0.00    -0.138 A  
HETATM    5  C   UNL     1      -6.064  12.998  69.387  1.00  0.00    -0.108 A  
HETATM    6  C   UNL     1      -6.439  14.272  69.814  1.00  0.00    -0.142 A  
HETATM    7  C   UNL     1      -6.158  14.672  71.122  1.00  0.00     0.035 A  
ENDROOT
BRANCH   5   8
HETATM    8  S   UNL     1      -6.244  12.563  67.673  1.00  0.00    -0.153 S  
HETATM    9  O   UNL     1      -6.481  11.135  67.624  1.00  0.00    -0.061 OA 
HETATM   10  O   UNL     1      -5.166  13.175  66.931  1.00  0.00    -0.137 OA 
BRANCH   8  11
HETATM   11  N   UNL     1      -7.632  13.339  67.229  1.00  0.00    -0.333 N  
HETATM   12  H   UNL     1      -8.388  12.737  66.899  1.00  0.00     0.000 HD 
BRANCH  11  13
HETATM   13  C   UNL     1      -7.913  14.704  67.245  1.00  0.00    -0.197 C  
HETATM   14  O   UNL     1      -7.120  15.467  66.710  1.00  0.00    -0.140 OA 
BRANCH  13  15
HETATM   15  N   UNL     1      -9.102  15.064  67.835  1.00  0.00    -0.178 N  
HETATM   16  H   UNL     1      -9.182  14.973  68.848  1.00  0.00     0.000 HD 
BRANCH  15  17
HETATM   17  N   UNL     1     -10.216  15.551  67.124  1.00  0.00    -0.255 NA 
HETATM   18  C   UNL     1     -10.760  14.555  66.180  1.00  0.00    -0.310 C  
HETATM   19  C   UNL     1     -11.916  13.821  66.874  1.00  0.00    -0.460 C  
HETATM   20  C   UNL     1     -11.633  12.363  67.222  1.00  0.00    -0.435 C  
HETATM   21  C   UNL     1     -10.896  12.417  68.548  1.00  0.00    -0.270 C  
HETATM   22  C   UNL     1     -11.560  13.572  69.287  1.00  0.00    -0.369 C  
HETATM   23  C   UNL     1     -12.101  14.534  68.215  1.00  0.00    -0.234 C  
HETATM   24  C   UNL     1     -11.333  15.842  68.042  1.00  0.00    -0.284 C  
ENDBRANCH  15  17
ENDBRANCH  13  15
ENDBRANCH  11  13
ENDBRANCH   8  11
ENDBRANCH   5   8
TORSDOF 5
ENDMDL
MODEL      247
REMARK 921   NORMALIZED FREE ENERGY PREDICTED BY IDOCK:   -3.15 KCAL/MOL
REMARK 922        TOTAL FREE ENERGY PREDICTED BY IDOCK:   -4.85 KCAL/MOL
REMARK 923 INTER-LIGAND FREE ENERGY PREDICTED BY IDOCK:   -3.85 KCAL/MOL
REMARK 924 INTRA-LIGAND FREE ENERGY PREDICTED BY IDOCK:   -1.00 KCAL/MOL
REMARK 927      BINDING AFFINITY PREDICTED BY RF-SCORE:    0.00 PKD
ROOT
HETATM    1  C   UNL     1      -7.235  14.473  68.017  1.00  0.00    -0.148 C  
HETATM    2  C   UNL     1      -7.640  13.184  67.366  1.00  0.00    -0.137 A  
HETATM    3  C   UNL     1      -6.693  12.189  67.098  1.00  0.00    -0.123 A  
HETATM    4  C   UNL     1      -7.061  11.028  66.419  1.00  0.00    -0.120 A  
HETATM    5  C   UNL     1      -8.390  10.851  66.016  1.00  0.00    -0.165 A  
HETATM    6  C   UNL     1      -9.349  11.824  66.300  1.00  0.00    -0.235 A  
HETATM    7  C   UNL     1      -8.973  12.987  66.975  1.00  0.00    -0.225 A  
ENDROOT
BRANCH   5   8
HETATM    8  S   UNL     1      -8.828   9.468  64.990  1.00  0.00    -0.207 S  
HETATM    9  O   UNL     1      -7.663   8.609  64.922  1.00  0.00    -0.095 OA 
HETATM   10  O   UNL     1      -9.465   9.971  63.794  1.00  0.00    -0.280 OA 
BRANCH   8  11
HETATM   11  N   UNL     1      -9.994   8.698  65.868  1.00  0.00    -0.442 N  
HETATM   12  H   UNL     1     -10.829   8.424  65.349  1.00  0.00     0.000 HD 
BRANCH  11  13
HETATM   13  C   UNL     1      -9.993   8.370  67.223  1.00  0.00    -0.227 C  
HETATM   14  O   UNL     1     -10.812   8.912  67.953  1.00  0.00    -0.164 OA 
BRANCH  13  15
HETATM   15  N   UNL     1      -9.080   7.415  67.607  1.00  0.00    -0.125 N  
HETATM   16  H   UNL     1      -8.120   7.510  67.277  1.00  0.00     0.000 HD 
BRANCH  15  17
HETATM   17  N   UNL     1      -9.392   6.315  68.429  1.00  0.00    -0.114 NA 
HETATM   18  C   UNL     1     -10.473   5.481  67.866  1.00  0.00    -0.178 C  
HETATM   19  C   UNL     1      -9.828   4.323  67.093  1.00  0.00    -0.205 C  
HETATM   20  C   UNL     1      -9.991   4.394  65.578  1.00  0.00    -0.242 C  
HETATM   21  C   UNL     1      -8.871   5.305  65.109  1.00  0.00    -0.130 C  
HETATM   22  C   UNL     1      -7.710   4.961  66.034  1.00  0.00    -0.091 C  
HETATM   23  C   UNL     1      -8.325   4.452  67.350  1.00  0.00    -0.100 C  
HETATM   24  C   UNL     1      -8.238   5.404  68.540  1.00  0.00    -0.094 C  
ENDBRANCH  15  17
ENDBRANCH  13  15
ENDBRANCH  11  13
ENDBRANCH   8  11
ENDBRANCH   5   8
TORSDOF 5
ENDMDL
MODEL      248
REMARK 921   NORMALIZED FREE ENERGY PREDICTED BY IDOCK:   -3.14 KCAL/MOL
REMARK 922        TOTAL FREE ENERGY PREDICTED BY IDOCK:   -4.84 KCAL/MOL
REMARK 923 INTER-LIGAND FREE ENERGY PREDICTED BY IDOCK:   -3.86 KCAL/MOL
REMARK 924 INTRA-LIGAND FREE ENERGY PREDICTED BY IDOCK:   -0.99 KCAL/MOL
REMARK 927      BINDING AFFINITY PREDICTED BY RF-SCORE:    0.00 PKD
ROOT
HETATM    1  C   UNL     1      -8.480   2.856  69.856  1.00  0.00    -0.095 C  
HETATM    2  C   UNL     1      -8.850   4.160  70.500  1.00  0.00    -0.133 A  
HETATM    3  C   UNL     1      -9.958   4.888  70.054  1.00  0.00    -0.323 A  
HETATM    4  C   UNL     1     -10.248   6.138  70.601  1.00  0.00    -0.250 A  
HETATM    5  C   UNL     1      -9.433   6.660  71.612  1.00  0.00    -0.159 A  
HETATM    6  C   UNL     1      -8.339   5.931  72.083  1.00  0.00    -0.118 A  
HETATM    7  C   UNL     1      -8.051   4.684  71.527  1.00  0.00    -0.102 A  
ENDROOT
BRANCH   5   8
HETATM    8  S   UNL     1      -9.682   8.325  72.180  1.00  0.00    -0.304 S  
HETATM    9  O   UNL     1      -8.649   8.595  73.159  1.00  0.00    -0.393 OA 
HETATM   10  O   UNL     1     -11.082   8.495  72.494  1.00  0.00    -0.355 OA 
BRANCH   8  11
HETATM   11  N   UNL     1      -9.378   9.234  70.836  1.00  0.00    -0.259 N  
HETATM   12  H   UNL     1     -10.185   9.713  70.435  1.00  0.00     0.000 HD 
BRANCH  11  13
HETATM   13  C   UNL     1      -8.168   9.435  70.173  1.00  0.00    -0.168 C  
HETATM   14  O   UNL     1      -7.324  10.143  70.706  1.00  0.00    -0.288 OA 
BRANCH  13  15
HETATM   15  N   UNL     1      -8.021   8.767  68.979  1.00  0.00    -0.109 N  
HETATM   16  H   UNL     1      -8.760   8.862  68.283  1.00  0.00     0.000 HD 
BRANCH  15  17
HETATM   17  N   UNL     1      -6.911   7.961  68.662  1.00  0.00    -0.069 NA 
HETATM   18  C   UNL     1      -7.307   6.653  68.102  1.00  0.00    -0.090 C  
HETATM   19  C   UNL     1      -7.273   6.761  66.571  1.00  0.00    -0.073 C  
HETATM   20  C   UNL     1      -8.640   6.723  65.896  1.00  0.00    -0.153 C  
HETATM   21  C   UNL     1      -9.147   8.151  65.965  1.00  0.00    -0.218 C  
HETATM   22  C   UNL     1      -7.892   8.993  65.769  1.00  0.00    -0.098 C  
HETATM   23  C   UNL     1      -6.708   8.152  66.275  1.00  0.00    -0.054 C  
HETATM   24  C   UNL     1      -6.097   8.588  67.604  1.00  0.00    -0.048 C  
ENDBRANCH  15  17
ENDBRANCH  13  15
ENDBRANCH  11  13
ENDBRANCH   8  11
ENDBRANCH   5   8
TORSDOF 5
ENDMDL
MODEL      249
REMARK 921   NORMALIZED FREE ENERGY PREDICTED BY IDOCK:   -3.13 KCAL/MOL
REMARK 922        TOTAL FREE ENERGY PREDICTED BY IDOCK:   -4.82 KCAL/MOL
REMARK 923 INTER-LIGAND FREE ENERGY PREDICTED BY IDOCK:   -4.83 KCAL/MOL
REMARK 924 INTRA-LIGAND FREE ENERGY PREDICTED BY IDOCK:    0.01 KCAL/MOL
REMARK 927      BINDING AFFINITY PREDICTED BY RF-SCORE:    0.00 PKD
ROOT
HETATM    1  C   UNL     1      -5.783  10.951  66.332  1.00  0.00    -0.115 C  
HETATM    2  C   UNL     1      -6.886  11.839  66.828  1.00  0.00    -0.050 A  
HETATM    3  C   UNL     1      -8.213  11.611  66.449  1.00  0.00    -0.052 A  
HETATM    4  C   UNL     1      -9.222  12.489  66.847  1.00  0.00    -0.211 A  
HETATM    5  C   UNL     1      -8.905  13.595  67.643  1.00  0.00    -0.194 A  
HETATM    6  C   UNL     1      -7.588  13.819  68.048  1.00  0.00    -0.145 A  
HETATM    7  C   UNL     1      -6.583  12.941  67.641  1.00  0.00    -0.155 A  
ENDROOT
BRANCH   5   8
HETATM    8  S   UNL     1     -10.147  14.817  67.995  1.00  0.00    -0.221 S  
HETATM    9  O   UNL     1     -10.376  14.783  69.426  1.00  0.00    -0.217 OA 
HETATM   10  O   UNL     1     -11.230  14.651  67.054  1.00  0.00    -0.324 OA 
BRANCH   8  11
HETATM   11  N   UNL     1      -9.398  16.239  67.620  1.00  0.00    -0.217 N  
HETATM   12  H   UNL     1      -9.106  16.808  68.415  1.00  0.00     0.000 HD 
BRANCH  11  13
HETATM   13  C   UNL     1      -9.110  16.769  66.363  1.00  0.00    -0.289 C  
HETATM   14  O   UNL     1      -9.950  16.659  65.479  1.00  0.00    -0.552 OA 
BRANCH  13  15
HETATM   15  N   UNL     1      -7.902  17.417  66.248  1.00  0.00    -0.294 N  
HETATM   16  H   UNL     1      -7.835  18.191  65.588  1.00  0.00     0.000 HD 
BRANCH  15  17
HETATM   17  N   UNL     1      -6.754  17.076  66.988  1.00  0.00    -0.182 NA 
HETATM   18  C   UNL     1      -5.545  17.771  66.505  1.00  0.00    -0.179 C  
HETATM   19  C   UNL     1      -5.343  19.028  67.362  1.00  0.00    -0.159 C  
HETATM   20  C   UNL     1      -5.590  20.346  66.635  1.00  0.00    -0.199 C  
HETATM   21  C   UNL     1      -7.091  20.557  66.713  1.00  0.00    -0.331 C  
HETATM   22  C   UNL     1      -7.463  20.022  68.091  1.00  0.00    -0.301 C  
HETATM   23  C   UNL     1      -6.416  18.953  68.450  1.00  0.00    -0.248 C  
HETATM   24  C   UNL     1      -6.893  17.504  68.392  1.00  0.00    -0.197 C  
ENDBRANCH  15  17
ENDBRANCH  13  15
ENDBRANCH  11  13
ENDBRANCH   8  11
ENDBRANCH   5   8
TORSDOF 5
ENDMDL
MODEL      250
REMARK 921   NORMALIZED FREE ENERGY PREDICTED BY IDOCK:   -3.06 KCAL/MOL
REMARK 922        TOTAL FREE ENERGY PREDICTED BY IDOCK:   -4.73 KCAL/MOL
REMARK 923 INTER-LIGAND FREE ENERGY PREDICTED BY IDOCK:   -3.78 KCAL/MOL
REMARK 924 INTRA-LIGAND FREE ENERGY PREDICTED BY IDOCK:   -0.96 KCAL/MOL
REMARK 927      BINDING AFFINITY PREDICTED BY RF-SCORE:    0.00 PKD
ROOT
HETATM    1  C   UNL     1     -14.219   7.122  72.032  1.00  0.00    -0.346 C  
HETATM    2  C   UNL     1     -13.063   7.641  71.230  1.00  0.00    -0.279 A  
HETATM    3  C   UNL     1     -12.261   6.770  70.483  1.00  0.00    -0.253 A  
HETATM    4  C   UNL     1     -11.139   7.248  69.807  1.00  0.00    -0.203 A  
HETATM    5  C   UNL     1     -10.821   8.609  69.864  1.00  0.00    -0.208 A  
HETATM    6  C   UNL     1     -11.627   9.492  70.585  1.00  0.00    -0.350 A  
HETATM    7  C   UNL     1     -12.745   9.007  71.265  1.00  0.00    -0.316 A  
ENDROOT
BRANCH   5   8
HETATM    8  S   UNL     1      -9.295   9.193  69.166  1.00  0.00    -0.155 S  
HETATM    9  O   UNL     1      -8.307   8.156  69.386  1.00  0.00    -0.120 OA 
HETATM   10  O   UNL     1      -9.077  10.549  69.613  1.00  0.00    -0.111 OA 
BRANCH   8  11
HETATM   11  N   UNL     1      -9.622   9.268  67.549  1.00  0.00    -0.145 N  
HETATM   12  H   UNL     1     -10.433   9.829  67.288  1.00  0.00     0.000 HD 
BRANCH  11  13
HETATM   13  C   UNL     1      -8.939   8.668  66.492  1.00  0.00    -0.154 C  
HETATM   14  O   UNL     1      -8.590   9.370  65.552  1.00  0.00    -0.135 OA 
BRANCH  13  15
HETATM   15  N   UNL     1      -8.680   7.324  66.633  1.00  0.00    -0.126 N  
HETATM   16  H   UNL     1      -9.111   6.832  67.415  1.00  0.00     0.000 HD 
BRANCH  15  17
HETATM   17  N   UNL     1      -7.854   6.588  65.761  1.00  0.00    -0.099 NA 
HETATM   18  C   UNL     1      -7.283   5.388  66.405  1.00  0.00    -0.077 C  
HETATM   19  C   UNL     1      -8.182   4.191  66.064  1.00  0.00    -0.105 C  
HETATM   20  C   UNL     1      -8.980   3.634  67.238  1.00  0.00    -0.160 C  
HETATM   21  C   UNL     1     -10.214   4.512  67.320  1.00  0.00    -0.072 C  
HETATM   22  C   UNL     1     -10.545   4.813  65.863  1.00  0.00    -0.290 C  
HETATM   23  C   UNL     1      -9.222   4.733  65.081  1.00  0.00    -0.148 C  
HETATM   24  C   UNL     1      -8.634   6.065  64.624  1.00  0.00     0.074 C  
ENDBRANCH  15  17
ENDBRANCH  13  15
ENDBRANCH  11  13
ENDBRANCH   8  11
ENDBRANCH   5   8
TORSDOF 5
ENDMDL
MODEL      251
REMARK 921   NORMALIZED FREE ENERGY PREDICTED BY IDOCK:   -3.02 KCAL/MOL
REMARK 922        TOTAL FREE ENERGY PREDICTED BY IDOCK:   -4.68 KCAL/MOL
REMARK 923 INTER-LIGAND FREE ENERGY PREDICTED BY IDOCK:   -4.22 KCAL/MOL
REMARK 924 INTRA-LIGAND FREE ENERGY PREDICTED BY IDOCK:   -0.46 KCAL/MOL
REMARK 927      BINDING AFFINITY PREDICTED BY RF-SCORE:    0.00 PKD
ROOT
HETATM    1  C   UNL     1      -7.944  10.571  64.831  1.00  0.00    -0.063 C  
HETATM    2  C   UNL     1      -8.355   9.288  65.490  1.00  0.00    -0.139 A  
HETATM    3  C   UNL     1      -9.640   9.138  66.024  1.00  0.00    -0.342 A  
HETATM    4  C   UNL     1      -9.988   7.973  66.708  1.00  0.00    -0.344 A  
HETATM    5  C   UNL     1      -9.051   6.943  66.849  1.00  0.00    -0.139 A  
HETATM    6  C   UNL     1      -7.775   7.071  66.298  1.00  0.00    -0.094 A  
HETATM    7  C   UNL     1      -7.430   8.241  65.620  1.00  0.00    -0.081 A  
ENDROOT
BRANCH   5   8
HETATM    8  S   UNL     1      -9.422   5.542  67.876  1.00  0.00    -0.121 S  
HETATM    9  O   UNL     1      -8.813   4.386  67.249  1.00  0.00    -0.104 OA 
HETATM   10  O   UNL     1     -10.831   5.571  68.196  1.00  0.00    -0.152 OA 
BRANCH   8  11
HETATM   11  N   UNL     1      -8.606   5.869  69.273  1.00  0.00    -0.112 N  
HETATM   12  H   UNL     1      -7.961   6.659  69.234  1.00  0.00     0.000 HD 
BRANCH  11  13
HETATM   13  C   UNL     1      -8.679   5.211  70.501  1.00  0.00    -0.119 C  
HETATM   14  O   UNL     1      -8.540   3.996  70.519  1.00  0.00    -0.068 OA 
BRANCH  13  15
HETATM   15  N   UNL     1      -8.859   6.017  71.601  1.00  0.00    -0.139 N  
HETATM   16  H   UNL     1      -8.333   6.890  71.647  1.00  0.00     0.000 HD 
BRANCH  15  17
HETATM   17  N   UNL     1      -9.724   5.708  72.668  1.00  0.00    -0.154 NA 
HETATM   18  C   UNL     1     -10.058   6.892  73.484  1.00  0.00    -0.292 C  
HETATM   19  C   UNL     1     -11.391   7.459  72.977  1.00  0.00    -0.283 C  
HETATM   20  C   UNL     1     -11.285   8.801  72.259  1.00  0.00    -0.343 C  
HETATM   21  C   UNL     1     -10.913   8.450  70.831  1.00  0.00    -0.279 C  
HETATM   22  C   UNL     1     -11.683   7.163  70.560  1.00  0.00    -0.314 C  
HETATM   23  C   UNL     1     -11.877   6.467  71.918  1.00  0.00    -0.380 C  
HETATM   24  C   UNL     1     -11.023   5.226  72.162  1.00  0.00    -0.160 C  
ENDBRANCH  15  17
ENDBRANCH  13  15
ENDBRANCH  11  13
ENDBRANCH   8  11
ENDBRANCH   5   8
TORSDOF 5
ENDMDL
MODEL      252
REMARK 921   NORMALIZED FREE ENERGY PREDICTED BY IDOCK:   -2.96 KCAL/MOL
REMARK 922        TOTAL FREE ENERGY PREDICTED BY IDOCK:   -4.60 KCAL/MOL
REMARK 923 INTER-LIGAND FREE ENERGY PREDICTED BY IDOCK:   -4.18 KCAL/MOL
REMARK 924 INTRA-LIGAND FREE ENERGY PREDICTED BY IDOCK:   -0.43 KCAL/MOL
REMARK 927      BINDING AFFINITY PREDICTED BY RF-SCORE:    0.00 PKD
ROOT
HETATM    1  C   UNL     1      -7.665   7.783  63.254  1.00  0.00    -0.135 C  
HETATM    2  C   UNL     1      -7.948   8.656  64.440  1.00  0.00    -0.146 A  
HETATM    3  C   UNL     1      -7.591   8.248  65.731  1.00  0.00    -0.082 A  
HETATM    4  C   UNL     1      -7.931   9.026  66.837  1.00  0.00    -0.105 A  
HETATM    5  C   UNL     1      -8.621  10.230  66.653  1.00  0.00    -0.127 A  
HETATM    6  C   UNL     1      -8.960  10.660  65.370  1.00  0.00    -0.208 A  
HETATM    7  C   UNL     1      -8.623   9.874  64.267  1.00  0.00    -0.199 A  
ENDROOT
BRANCH   5   8
HETATM    8  S   UNL     1      -9.221  11.131  68.063  1.00  0.00    -0.165 S  
HETATM    9  O   UNL     1      -8.100  11.296  68.965  1.00  0.00    -0.127 OA 
HETATM   10  O   UNL     1     -10.458  10.524  68.499  1.00  0.00    -0.169 OA 
BRANCH   8  11
HETATM   11  N   UNL     1      -9.607  12.607  67.434  1.00  0.00    -0.190 N  
HETATM   12  H   UNL     1     -10.555  12.697  67.066  1.00  0.00     0.000 HD 
BRANCH  11  13
HETATM   13  C   UNL     1      -8.813  13.749  67.336  1.00  0.00    -0.210 C  
HETATM   14  O   UNL     1      -7.629  13.613  67.059  1.00  0.00    -0.015 OA 
BRANCH  13  15
HETATM   15  N   UNL     1      -9.463  14.948  67.522  1.00  0.00    -0.198 N  
HETATM   16  H   UNL     1     -10.004  15.325  66.744  1.00  0.00     0.000 HD 
BRANCH  15  17
HETATM   17  N   UNL     1      -9.426  15.684  68.722  1.00  0.00    -0.202 NA 
HETATM   18  C   UNL     1      -8.051  16.047  69.117  1.00  0.00    -0.238 C  
HETATM   19  C   UNL     1      -7.766  17.464  68.603  1.00  0.00    -0.273 C  
HETATM   20  C   UNL     1      -6.754  17.541  67.464  1.00  0.00    -0.175 C  
HETATM   21  C   UNL     1      -7.561  17.269  66.208  1.00  0.00    -0.360 C  
HETATM   22  C   UNL     1      -8.900  17.944  66.483  1.00  0.00    -0.281 C  
HETATM   23  C   UNL     1      -9.089  17.954  68.009  1.00  0.00    -0.267 C  
HETATM   24  C   UNL     1     -10.121  16.975  68.562  1.00  0.00    -0.303 C  
ENDBRANCH  15  17
ENDBRANCH  13  15
ENDBRANCH  11  13
ENDBRANCH   8  11
ENDBRANCH   5   8
TORSDOF 5
ENDMDL
MODEL      253
REMARK 921   NORMALIZED FREE ENERGY PREDICTED BY IDOCK:   -2.95 KCAL/MOL
REMARK 922        TOTAL FREE ENERGY PREDICTED BY IDOCK:   -4.60 KCAL/MOL
REMARK 923 INTER-LIGAND FREE ENERGY PREDICTED BY IDOCK:   -3.95 KCAL/MOL
REMARK 924 INTRA-LIGAND FREE ENERGY PREDICTED BY IDOCK:   -0.65 KCAL/MOL
REMARK 927      BINDING AFFINITY PREDICTED BY RF-SCORE:    0.00 PKD
ROOT
HETATM    1  C   UNL     1      -6.994   6.947  63.100  1.00  0.00    -0.053 C  
HETATM    2  C   UNL     1      -6.771   8.047  64.095  1.00  0.00    -0.065 A  
HETATM    3  C   UNL     1      -5.911   7.863  65.184  1.00  0.00    -0.038 A  
HETATM    4  C   UNL     1      -5.773   8.859  66.150  1.00  0.00    -0.046 A  
HETATM    5  C   UNL     1      -6.488  10.056  66.021  1.00  0.00    -0.093 A  
HETATM    6  C   UNL     1      -7.329  10.261  64.926  1.00  0.00    -0.110 A  
HETATM    7  C   UNL     1      -7.468   9.257  63.966  1.00  0.00    -0.110 A  
ENDROOT
BRANCH   5   8
HETATM    8  S   UNL     1      -6.462  11.249  67.338  1.00  0.00    -0.089 S  
HETATM    9  O   UNL     1      -5.763  12.415  66.837  1.00  0.00    -0.314 OA 
HETATM   10  O   UNL     1      -6.045  10.582  68.549  1.00  0.00    -0.044 OA 
BRANCH   8  11
HETATM   11  N   UNL     1      -8.055  11.638  67.528  1.00  0.00    -0.137 N  
HETATM   12  H   UNL     1      -8.560  11.101  68.235  1.00  0.00     0.000 HD 
BRANCH  11  13
HETATM   13  C   UNL     1      -8.805  12.600  66.854  1.00  0.00    -0.201 C  
HETATM   14  O   UNL     1      -9.834  12.248  66.292  1.00  0.00    -0.230 OA 
BRANCH  13  15
HETATM   15  N   UNL     1      -8.329  13.889  66.926  1.00  0.00    -0.408 N  
HETATM   16  H   UNL     1      -7.917  14.295  66.086  1.00  0.00     0.000 HD 
BRANCH  15  17
HETATM   17  N   UNL     1      -8.375  14.680  68.090  1.00  0.00    -0.137 NA 
HETATM   18  C   UNL     1      -8.212  16.119  67.800  1.00  0.00    -0.152 C  
HETATM   19  C   UNL     1      -9.609  16.745  67.693  1.00  0.00    -0.244 C  
HETATM   20  C   UNL     1     -10.010  17.181  66.288  1.00  0.00    -0.316 C  
HETATM   21  C   UNL     1     -10.545  15.924  65.629  1.00  0.00    -0.393 C  
HETATM   22  C   UNL     1     -11.267  15.198  66.759  1.00  0.00    -0.285 C  
HETATM   23  C   UNL     1     -10.584  15.627  68.069  1.00  0.00    -0.271 C  
HETATM   24  C   UNL     1      -9.697  14.578  68.736  1.00  0.00    -0.210 C  
ENDBRANCH  15  17
ENDBRANCH  13  15
ENDBRANCH  11  13
ENDBRANCH   8  11
ENDBRANCH   5   8
TORSDOF 5
ENDMDL
MODEL      254
REMARK 921   NORMALIZED FREE ENERGY PREDICTED BY IDOCK:   -2.92 KCAL/MOL
REMARK 922        TOTAL FREE ENERGY PREDICTED BY IDOCK:   -4.55 KCAL/MOL
REMARK 923 INTER-LIGAND FREE ENERGY PREDICTED BY IDOCK:   -3.81 KCAL/MOL
REMARK 924 INTRA-LIGAND FREE ENERGY PREDICTED BY IDOCK:   -0.75 KCAL/MOL
REMARK 927      BINDING AFFINITY PREDICTED BY RF-SCORE:    0.00 PKD
ROOT
HETATM    1  C   UNL     1      -6.046  10.014  63.311  1.00  0.00    -0.130 C  
HETATM    2  C   UNL     1      -6.541   9.727  64.697  1.00  0.00    -0.112 A  
HETATM    3  C   UNL     1      -5.970   8.704  65.463  1.00  0.00    -0.048 A  
HETATM    4  C   UNL     1      -6.489   8.388  66.718  1.00  0.00    -0.056 A  
HETATM    5  C   UNL     1      -7.579   9.109  67.221  1.00  0.00    -0.088 A  
HETATM    6  C   UNL     1      -8.141  10.148  66.477  1.00  0.00    -0.121 A  
HETATM    7  C   UNL     1      -7.621  10.455  65.219  1.00  0.00    -0.118 A  
ENDROOT
BRANCH   5   8
HETATM    8  S   UNL     1      -8.363   8.592  68.729  1.00  0.00    -0.123 S  
HETATM    9  O   UNL     1      -8.704   9.795  69.460  1.00  0.00    -0.154 OA 
HETATM   10  O   UNL     1      -7.560   7.549  69.326  1.00  0.00    -0.095 OA 
BRANCH   8  11
HETATM   11  N   UNL     1      -9.760   7.883  68.208  1.00  0.00    -0.156 N  
HETATM   12  H   UNL     1     -10.151   8.262  67.345  1.00  0.00     0.000 HD 
BRANCH  11  13
HETATM   13  C   UNL     1     -10.477   6.838  68.788  1.00  0.00    -0.208 C  
HETATM   14  O   UNL     1     -11.096   6.079  68.053  1.00  0.00    -0.304 OA 
BRANCH  13  15
HETATM   15  N   UNL     1     -10.382   6.734  70.156  1.00  0.00    -0.198 N  
HETATM   16  H   UNL     1      -9.752   7.371  70.643  1.00  0.00     0.000 HD 
BRANCH  15  17
HETATM   17  N   UNL     1     -11.102   5.799  70.924  1.00  0.00    -0.242 NA 
HETATM   18  C   UNL     1     -10.218   4.898  71.690  1.00  0.00    -0.197 C  
HETATM   19  C   UNL     1     -10.061   5.472  73.104  1.00  0.00    -0.201 C  
HETATM   20  C   UNL     1      -8.675   6.026  73.421  1.00  0.00    -0.126 C  
HETATM   21  C   UNL     1      -8.687   7.439  72.870  1.00  0.00    -0.165 C  
HETATM   22  C   UNL     1     -10.107   7.924  73.137  1.00  0.00    -0.362 C  
HETATM   23  C   UNL     1     -11.005   6.675  73.160  1.00  0.00    -0.263 C  
HETATM   24  C   UNL     1     -11.914   6.482  71.949  1.00  0.00    -0.341 C  
ENDBRANCH  15  17
ENDBRANCH  13  15
ENDBRANCH  11  13
ENDBRANCH   8  11
ENDBRANCH   5   8
TORSDOF 5
ENDMDL
MODEL      255
REMARK 921   NORMALIZED FREE ENERGY PREDICTED BY IDOCK:   -2.91 KCAL/MOL
REMARK 922        TOTAL FREE ENERGY PREDICTED BY IDOCK:   -4.54 KCAL/MOL
REMARK 923 INTER-LIGAND FREE ENERGY PREDICTED BY IDOCK:   -4.07 KCAL/MOL
REMARK 924 INTRA-LIGAND FREE ENERGY PREDICTED BY IDOCK:   -0.46 KCAL/MOL
REMARK 927      BINDING AFFINITY PREDICTED BY RF-SCORE:    0.00 PKD
ROOT
HETATM    1  C   UNL     1      -5.141  18.475  71.035  1.00  0.00    -0.274 C  
HETATM    2  C   UNL     1      -5.674  17.399  70.136  1.00  0.00    -0.231 A  
HETATM    3  C   UNL     1      -5.867  17.639  68.771  1.00  0.00    -0.174 A  
HETATM    4  C   UNL     1      -6.441  16.662  67.957  1.00  0.00    -0.143 A  
HETATM    5  C   UNL     1      -6.812  15.430  68.507  1.00  0.00    -0.113 A  
HETATM    6  C   UNL     1      -6.601  15.170  69.862  1.00  0.00    -0.172 A  
HETATM    7  C   UNL     1      -6.032  16.154  70.673  1.00  0.00     0.194 A  
ENDROOT
BRANCH   5   8
HETATM    8  S   UNL     1      -7.711  14.255  67.522  1.00  0.00    -0.184 S  
HETATM    9  O   UNL     1      -6.747  13.292  67.031  1.00  0.00    -0.078 OA 
HETATM   10  O   UNL     1      -8.577  14.983  66.622  1.00  0.00    -0.258 OA 
BRANCH   8  11
HETATM   11  N   UNL     1      -8.686  13.504  68.623  1.00  0.00    -0.353 N  
HETATM   12  H   UNL     1      -8.400  13.593  69.599  1.00  0.00     0.000 HD 
BRANCH  11  13
HETATM   13  C   UNL     1      -9.846  12.765  68.400  1.00  0.00    -0.196 C  
HETATM   14  O   UNL     1     -10.924  13.342  68.459  1.00  0.00    -0.249 OA 
BRANCH  13  15
HETATM   15  N   UNL     1      -9.660  11.439  68.084  1.00  0.00    -0.183 N  
HETATM   16  H   UNL     1      -8.704  11.106  67.959  1.00  0.00     0.000 HD 
BRANCH  15  17
HETATM   17  N   UNL     1     -10.710  10.515  67.924  1.00  0.00    -0.238 NA 
HETATM   18  C   UNL     1     -10.234   9.195  67.462  1.00  0.00    -0.245 C  
HETATM   19  C   UNL     1     -10.048   8.299  68.694  1.00  0.00    -0.212 C  
HETATM   20  C   UNL     1      -8.598   7.969  69.033  1.00  0.00    -0.137 C  
HETATM   21  C   UNL     1      -8.110   9.153  69.847  1.00  0.00    -0.122 C  
HETATM   22  C   UNL     1      -9.327   9.553  70.674  1.00  0.00    -0.263 C  
HETATM   23  C   UNL     1     -10.569   9.119  69.876  1.00  0.00    -0.246 C  
HETATM   24  C   UNL     1     -11.366  10.242  69.217  1.00  0.00    -0.196 C  
ENDBRANCH  15  17
ENDBRANCH  13  15
ENDBRANCH  11  13
ENDBRANCH   8  11
ENDBRANCH   5   8
TORSDOF 5
ENDMDL
MODEL      256
REMARK 921   NORMALIZED FREE ENERGY PREDICTED BY IDOCK:   -2.84 KCAL/MOL
REMARK 922        TOTAL FREE ENERGY PREDICTED BY IDOCK:   -4.45 KCAL/MOL
REMARK 923 INTER-LIGAND FREE ENERGY PREDICTED BY IDOCK:   -3.72 KCAL/MOL
REMARK 924 INTRA-LIGAND FREE ENERGY PREDICTED BY IDOCK:   -0.73 KCAL/MOL
REMARK 927      BINDING AFFINITY PREDICTED BY RF-SCORE:    0.00 PKD
ROOT
HETATM    1  C   UNL     1      -9.837   7.294  73.525  1.00  0.00    -0.347 C  
HETATM    2  C   UNL     1      -9.771   6.583  72.206  1.00  0.00    -0.159 A  
HETATM    3  C   UNL     1      -8.538   6.299  71.608  1.00  0.00    -0.133 A  
HETATM    4  C   UNL     1      -8.485   5.712  70.344  1.00  0.00    -0.127 A  
HETATM    5  C   UNL     1      -9.673   5.392  69.676  1.00  0.00    -0.177 A  
HETATM    6  C   UNL     1     -10.908   5.647  70.273  1.00  0.00    -0.336 A  
HETATM    7  C   UNL     1     -10.955   6.240  71.536  1.00  0.00    -0.322 A  
ENDROOT
BRANCH   5   8
HETATM    8  S   UNL     1      -9.617   4.821  67.995  1.00  0.00    -0.147 S  
HETATM    9  O   UNL     1     -10.745   5.418  67.309  1.00  0.00    -0.216 OA 
HETATM   10  O   UNL     1      -9.412   3.391  68.005  1.00  0.00    -0.187 OA 
BRANCH   8  11
HETATM   11  N   UNL     1      -8.231   5.500  67.409  1.00  0.00    -0.101 N  
HETATM   12  H   UNL     1      -7.414   5.428  68.015  1.00  0.00     0.000 HD 
BRANCH  11  13
HETATM   13  C   UNL     1      -8.027   6.158  66.197  1.00  0.00    -0.108 C  
HETATM   14  O   UNL     1      -8.021   5.495  65.168  1.00  0.00    -0.098 OA 
BRANCH  13  15
HETATM   15  N   UNL     1      -7.893   7.525  66.273  1.00  0.00    -0.099 N  
HETATM   16  H   UNL     1      -7.008   7.937  65.977  1.00  0.00     0.000 HD 
BRANCH  15  17
HETATM   17  N   UNL     1      -8.904   8.389  66.737  1.00  0.00    -0.133 NA 
HETATM   18  C   UNL     1      -8.375   9.460  67.605  1.00  0.00    -0.119 C  
HETATM   19  C   UNL     1      -8.142  10.705  66.737  1.00  0.00    -0.131 C  
HETATM   20  C   UNL     1      -6.677  11.066  66.516  1.00  0.00    -0.135 C  
HETATM   21  C   UNL     1      -6.234  10.197  65.353  1.00  0.00    -0.115 C  
HETATM   22  C   UNL     1      -7.460  10.144  64.449  1.00  0.00    -0.123 C  
HETATM   23  C   UNL     1      -8.688  10.343  65.354  1.00  0.00    -0.193 C  
HETATM   24  C   UNL     1      -9.537   9.100  65.611  1.00  0.00    -0.217 C  
ENDBRANCH  15  17
ENDBRANCH  13  15
ENDBRANCH  11  13
ENDBRANCH   8  11
ENDBRANCH   5   8
TORSDOF 5
ENDMDL
MODEL      257
REMARK 921   NORMALIZED FREE ENERGY PREDICTED BY IDOCK:   -2.83 KCAL/MOL
REMARK 922        TOTAL FREE ENERGY PREDICTED BY IDOCK:   -4.44 KCAL/MOL
REMARK 923 INTER-LIGAND FREE ENERGY PREDICTED BY IDOCK:   -3.93 KCAL/MOL
REMARK 924 INTRA-LIGAND FREE ENERGY PREDICTED BY IDOCK:   -0.51 KCAL/MOL
REMARK 927      BINDING AFFINITY PREDICTED BY RF-SCORE:    0.00 PKD
ROOT
HETATM    1  C   UNL     1     -10.320  14.240  67.320  1.00  0.00    -0.260 C  
HETATM    2  C   UNL     1     -10.210  12.747  67.233  1.00  0.00    -0.232 A  
HETATM    3  C   UNL     1     -11.315  11.932  67.502  1.00  0.00    -0.381 A  
HETATM    4  C   UNL     1     -11.185  10.543  67.501  1.00  0.00    -0.299 A  
HETATM    5  C   UNL     1      -9.944   9.962  67.215  1.00  0.00    -0.196 A  
HETATM    6  C   UNL     1      -8.840  10.764  66.920  1.00  0.00    -0.144 A  
HETATM    7  C   UNL     1      -8.976  12.153  66.930  1.00  0.00    -0.201 A  
ENDROOT
BRANCH   5   8
HETATM    8  S   UNL     1      -9.725   8.208  67.395  1.00  0.00    -0.186 S  
HETATM    9  O   UNL     1     -10.878   7.574  66.787  1.00  0.00    -0.292 OA 
HETATM   10  O   UNL     1      -9.348   7.933  68.762  1.00  0.00    -0.147 OA 
BRANCH   8  11
HETATM   11  N   UNL     1      -8.402   7.892  66.460  1.00  0.00    -0.122 N  
HETATM   12  H   UNL     1      -7.499   7.994  66.923  1.00  0.00     0.000 HD 
BRANCH  11  13
HETATM   13  C   UNL     1      -8.351   7.505  65.121  1.00  0.00    -0.085 C  
HETATM   14  O   UNL     1      -8.055   8.346  64.283  1.00  0.00    -0.150 OA 
BRANCH  13  15
HETATM   15  N   UNL     1      -8.602   6.175  64.873  1.00  0.00    -0.336 N  
HETATM   16  H   UNL     1      -8.449   5.827  63.927  1.00  0.00     0.000 HD 
BRANCH  15  17
HETATM   17  N   UNL     1      -9.057   5.266  65.848  1.00  0.00    -0.153 NA 
HETATM   18  C   UNL     1     -10.088   4.348  65.324  1.00  0.00    -0.201 C  
HETATM   19  C   UNL     1      -9.393   3.051  64.887  1.00  0.00    -0.147 C  
HETATM   20  C   UNL     1      -9.360   2.818  63.380  1.00  0.00    -0.096 C  
HETATM   21  C   UNL     1      -8.157   3.603  62.892  1.00  0.00    -0.072 C  
HETATM   22  C   UNL     1      -7.136   3.439  64.012  1.00  0.00    -0.050 C  
HETATM   23  C   UNL     1      -7.931   3.212  65.309  1.00  0.00    -0.082 C  
HETATM   24  C   UNL     1      -7.962   4.383  66.288  1.00  0.00    -0.099 C  
ENDBRANCH  15  17
ENDBRANCH  13  15
ENDBRANCH  11  13
ENDBRANCH   8  11
ENDBRANCH   5   8
TORSDOF 5
ENDMDL
MODEL      258
REMARK 921   NORMALIZED FREE ENERGY PREDICTED BY IDOCK:   -2.83 KCAL/MOL
REMARK 922        TOTAL FREE ENERGY PREDICTED BY IDOCK:   -4.43 KCAL/MOL
REMARK 923 INTER-LIGAND FREE ENERGY PREDICTED BY IDOCK:   -3.72 KCAL/MOL
REMARK 924 INTRA-LIGAND FREE ENERGY PREDICTED BY IDOCK:   -0.71 KCAL/MOL
REMARK 927      BINDING AFFINITY PREDICTED BY RF-SCORE:    0.00 PKD
ROOT
HETATM    1  C   UNL     1      -8.336   1.485  70.481  1.00  0.00    -0.061 C  
HETATM    2  C   UNL     1      -8.202   2.855  69.884  1.00  0.00    -0.067 A  
HETATM    3  C   UNL     1      -9.333   3.567  69.467  1.00  0.00    -0.243 A  
HETATM    4  C   UNL     1      -9.196   4.804  68.838  1.00  0.00    -0.172 A  
HETATM    5  C   UNL     1      -7.920   5.342  68.635  1.00  0.00    -0.087 A  
HETATM    6  C   UNL     1      -6.786   4.653  69.068  1.00  0.00    -0.046 A  
HETATM    7  C   UNL     1      -6.930   3.412  69.692  1.00  0.00    -0.041 A  
ENDROOT
BRANCH   5   8
HETATM    8  S   UNL     1      -7.726   6.821  67.670  1.00  0.00    -0.112 S  
HETATM    9  O   UNL     1      -7.211   6.417  66.377  1.00  0.00    -0.070 OA 
HETATM   10  O   UNL     1      -7.045   7.807  68.478  1.00  0.00    -0.069 OA 
BRANCH   8  11
HETATM   11  N   UNL     1      -9.277   7.351  67.471  1.00  0.00    -0.130 N  
HETATM   12  H   UNL     1      -9.996   6.793  67.931  1.00  0.00     0.000 HD 
BRANCH  11  13
HETATM   13  C   UNL     1      -9.736   8.458  66.760  1.00  0.00    -0.242 C  
HETATM   14  O   UNL     1      -9.292   8.653  65.636  1.00  0.00    -0.190 OA 
BRANCH  13  15
HETATM   15  N   UNL     1     -10.699   9.216  67.387  1.00  0.00    -0.397 N  
HETATM   16  H   UNL     1     -11.536   8.742  67.725  1.00  0.00     0.000 HD 
BRANCH  15  17
HETATM   17  N   UNL     1     -10.596  10.605  67.591  1.00  0.00    -0.227 NA 
HETATM   18  C   UNL     1     -11.783  11.165  68.267  1.00  0.00    -0.252 C  
HETATM   19  C   UNL     1     -11.485  11.237  69.771  1.00  0.00    -0.386 C  
HETATM   20  C   UNL     1     -12.277  10.254  70.628  1.00  0.00    -0.422 C  
HETATM   21  C   UNL     1     -11.493   8.957  70.555  1.00  0.00    -0.231 C  
HETATM   22  C   UNL     1     -10.038   9.410  70.534  1.00  0.00    -0.335 C  
HETATM   23  C   UNL     1     -10.020  10.818  69.915  1.00  0.00     0.250 C  
HETATM   24  C   UNL     1      -9.472  10.917  68.494  1.00  0.00    -0.185 C  
ENDBRANCH  15  17
ENDBRANCH  13  15
ENDBRANCH  11  13
ENDBRANCH   8  11
ENDBRANCH   5   8
TORSDOF 5
ENDMDL
MODEL      259
REMARK 921   NORMALIZED FREE ENERGY PREDICTED BY IDOCK:   -2.75 KCAL/MOL
REMARK 922        TOTAL FREE ENERGY PREDICTED BY IDOCK:   -4.34 KCAL/MOL
REMARK 923 INTER-LIGAND FREE ENERGY PREDICTED BY IDOCK:   -3.33 KCAL/MOL
REMARK 924 INTRA-LIGAND FREE ENERGY PREDICTED BY IDOCK:   -1.01 KCAL/MOL
REMARK 927      BINDING AFFINITY PREDICTED BY RF-SCORE:    0.00 PKD
ROOT
HETATM    1  C   UNL     1      -7.025  14.198  68.453  1.00  0.00    -0.099 C  
HETATM    2  C   UNL     1      -7.512  13.014  67.672  1.00  0.00    -0.156 A  
HETATM    3  C   UNL     1      -6.611  12.184  66.996  1.00  0.00    -0.081 A  
HETATM    4  C   UNL     1      -7.076  11.134  66.204  1.00  0.00     0.003 A  
HETATM    5  C   UNL     1      -8.452  10.901  66.098  1.00  0.00    -0.171 A  
HETATM    6  C   UNL     1      -9.360  11.706  66.788  1.00  0.00    -0.193 A  
HETATM    7  C   UNL     1      -8.888  12.759  67.574  1.00  0.00    -0.187 A  
ENDROOT
BRANCH   5   8
HETATM    8  S   UNL     1      -9.059   9.690  64.948  1.00  0.00    -0.229 S  
HETATM    9  O   UNL     1      -7.947   9.326  64.093  1.00  0.00    -0.122 OA 
HETATM   10  O   UNL     1     -10.308  10.167  64.400  1.00  0.00    -0.120 OA 
BRANCH   8  11
HETATM   11  N   UNL     1      -9.420   8.399  65.912  1.00  0.00    -0.425 N  
HETATM   12  H   UNL     1     -10.413   8.244  66.088  1.00  0.00     0.000 HD 
BRANCH  11  13
HETATM   13  C   UNL     1      -8.552   7.492  66.517  1.00  0.00    -0.132 C  
HETATM   14  O   UNL     1      -7.526   7.185  65.925  1.00  0.00    -0.076 OA 
BRANCH  13  15
HETATM   15  N   UNL     1      -8.920   7.055  67.769  1.00  0.00    -0.122 N  
HETATM   16  H   UNL     1      -9.900   6.818  67.925  1.00  0.00     0.000 HD 
BRANCH  15  17
HETATM   17  N   UNL     1      -8.025   6.914  68.846  1.00  0.00    -0.115 NA 
HETATM   18  C   UNL     1      -7.412   8.199  69.241  1.00  0.00    -0.089 C  
HETATM   19  C   UNL     1      -8.231   8.780  70.402  1.00  0.00    -0.127 C  
HETATM   20  C   UNL     1      -9.039  10.026  70.055  1.00  0.00    -0.133 C  
HETATM   21  C   UNL     1     -10.322   9.498  69.441  1.00  0.00    -0.225 C  
HETATM   22  C   UNL     1     -10.616   8.234  70.240  1.00  0.00    -0.230 C  
HETATM   23  C   UNL     1      -9.264   7.705  70.748  1.00  0.00    -0.157 C  
HETATM   24  C   UNL     1      -8.732   6.453  70.055  1.00  0.00    -0.142 C  
ENDBRANCH  15  17
ENDBRANCH  13  15
ENDBRANCH  11  13
ENDBRANCH   8  11
ENDBRANCH   5   8
TORSDOF 5
ENDMDL
MODEL      260
REMARK 921   NORMALIZED FREE ENERGY PREDICTED BY IDOCK:   -2.75 KCAL/MOL
REMARK 922        TOTAL FREE ENERGY PREDICTED BY IDOCK:   -4.33 KCAL/MOL
REMARK 923 INTER-LIGAND FREE ENERGY PREDICTED BY IDOCK:   -3.91 KCAL/MOL
REMARK 924 INTRA-LIGAND FREE ENERGY PREDICTED BY IDOCK:   -0.42 KCAL/MOL
REMARK 927      BINDING AFFINITY PREDICTED BY RF-SCORE:    0.00 PKD
ROOT
HETATM    1  C   UNL     1      -9.634   2.489  70.215  1.00  0.00    -0.102 C  
HETATM    2  C   UNL     1      -9.272   3.794  70.859  1.00  0.00    -0.196 A  
HETATM    3  C   UNL     1     -10.266   4.649  71.351  1.00  0.00    -0.212 A  
HETATM    4  C   UNL     1      -9.928   5.897  71.873  1.00  0.00    -0.203 A  
HETATM    5  C   UNL     1      -8.586   6.290  71.920  1.00  0.00    -0.128 A  
HETATM    6  C   UNL     1      -7.584   5.437  71.456  1.00  0.00    -0.103 A  
HETATM    7  C   UNL     1      -7.929   4.191  70.928  1.00  0.00    -0.063 A  
ENDROOT
BRANCH   5   8
HETATM    8  S   UNL     1      -8.165   7.946  72.407  1.00  0.00    -0.145 S  
HETATM    9  O   UNL     1      -6.723   8.058  72.317  1.00  0.00    -0.060 OA 
HETATM   10  O   UNL     1      -8.870   8.256  73.629  1.00  0.00    -0.247 OA 
BRANCH   8  11
HETATM   11  N   UNL     1      -8.835   8.874  71.218  1.00  0.00    -0.224 N  
HETATM   12  H   UNL     1      -9.668   9.400  71.485  1.00  0.00     0.000 HD 
BRANCH  11  13
HETATM   13  C   UNL     1      -8.418   9.037  69.898  1.00  0.00    -0.138 C  
HETATM   14  O   UNL     1      -7.619   8.232  69.437  1.00  0.00    -0.091 OA 
BRANCH  13  15
HETATM   15  N   UNL     1      -8.992  10.083  69.213  1.00  0.00    -0.167 N  
HETATM   16  H   UNL     1      -8.377  10.805  68.837  1.00  0.00     0.000 HD 
BRANCH  15  17
HETATM   17  N   UNL     1     -10.377  10.218  69.001  1.00  0.00    -0.198 NA 
HETATM   18  C   UNL     1     -10.809  11.630  68.975  1.00  0.00    -0.203 C  
HETATM   19  C   UNL     1     -10.856  12.086  67.511  1.00  0.00    -0.284 C  
HETATM   20  C   UNL     1      -9.780  13.095  67.119  1.00  0.00    -0.235 C  
HETATM   21  C   UNL     1      -8.559  12.254  66.797  1.00  0.00    -0.149 C  
HETATM   22  C   UNL     1      -9.137  11.011  66.132  1.00  0.00    -0.208 C  
HETATM   23  C   UNL     1     -10.562  10.832  66.685  1.00  0.00    -0.291 C  
HETATM   24  C   UNL     1     -10.755   9.689  67.677  1.00  0.00    -0.262 C  
ENDBRANCH  15  17
ENDBRANCH  13  15
ENDBRANCH  11  13
ENDBRANCH   8  11
ENDBRANCH   5   8
TORSDOF 5
ENDMDL
MODEL      261
REMARK 921   NORMALIZED FREE ENERGY PREDICTED BY IDOCK:   -2.71 KCAL/MOL
REMARK 922        TOTAL FREE ENERGY PREDICTED BY IDOCK:   -4.28 KCAL/MOL
REMARK 923 INTER-LIGAND FREE ENERGY PREDICTED BY IDOCK:   -4.26 KCAL/MOL
REMARK 924 INTRA-LIGAND FREE ENERGY PREDICTED BY IDOCK:   -0.02 KCAL/MOL
REMARK 927      BINDING AFFINITY PREDICTED BY RF-SCORE:    0.00 PKD
ROOT
HETATM    1  C   UNL     1     -14.199  13.518  72.121  1.00  0.00    -0.411 C  
HETATM    2  C   UNL     1     -13.366  12.333  71.732  1.00  0.00    -0.353 A  
HETATM    3  C   UNL     1     -13.640  11.064  72.255  1.00  0.00     0.056 A  
HETATM    4  C   UNL     1     -12.812   9.982  71.953  1.00  0.00    -0.524 A  
HETATM    5  C   UNL     1     -11.709  10.166  71.111  1.00  0.00    -0.366 A  
HETATM    6  C   UNL     1     -11.440  11.421  70.564  1.00  0.00    -0.005 A  
HETATM    7  C   UNL     1     -12.269  12.501  70.874  1.00  0.00    -0.277 A  
ENDROOT
BRANCH   5   8
HETATM    8  S   UNL     1     -10.546   8.843  70.874  1.00  0.00    -0.256 S  
HETATM    9  O   UNL     1     -11.105   7.671  71.517  1.00  0.00    -0.233 OA 
HETATM   10  O   UNL     1      -9.227   9.330  71.208  1.00  0.00    -0.240 OA 
BRANCH   8  11
HETATM   11  N   UNL     1     -10.570   8.605  69.241  1.00  0.00    -0.294 N  
HETATM   12  H   UNL     1     -10.657   7.634  68.938  1.00  0.00     0.000 HD 
BRANCH  11  13
HETATM   13  C   UNL     1     -10.489   9.550  68.219  1.00  0.00    -0.223 C  
HETATM   14  O   UNL     1     -11.519  10.099  67.851  1.00  0.00    -0.283 OA 
BRANCH  13  15
HETATM   15  N   UNL     1      -9.224   9.811  67.745  1.00  0.00    -0.131 N  
HETATM   16  H   UNL     1      -8.851   9.204  67.015  1.00  0.00     0.000 HD 
BRANCH  15  17
HETATM   17  N   UNL     1      -8.415  10.866  68.207  1.00  0.00    -0.128 NA 
HETATM   18  C   UNL     1      -7.092  10.401  68.671  1.00  0.00    -0.076 C  
HETATM   19  C   UNL     1      -6.098  10.559  67.513  1.00  0.00    -0.052 C  
HETATM   20  C   UNL     1      -5.612   9.248  66.901  1.00  0.00    -0.040 C  
HETATM   21  C   UNL     1      -6.686   8.865  65.901  1.00  0.00    -0.068 C  
HETATM   22  C   UNL     1      -7.138  10.201  65.322  1.00  0.00    -0.137 C  
HETATM   23  C   UNL     1      -6.879  11.265  66.402  1.00  0.00    -0.055 C  
HETATM   24  C   UNL     1      -8.114  11.810  67.114  1.00  0.00    -0.169 C  
ENDBRANCH  15  17
ENDBRANCH  13  15
ENDBRANCH  11  13
ENDBRANCH   8  11
ENDBRANCH   5   8
TORSDOF 5
ENDMDL
MODEL      262
REMARK 921   NORMALIZED FREE ENERGY PREDICTED BY IDOCK:   -2.71 KCAL/MOL
REMARK 922        TOTAL FREE ENERGY PREDICTED BY IDOCK:   -4.28 KCAL/MOL
REMARK 923 INTER-LIGAND FREE ENERGY PREDICTED BY IDOCK:   -3.73 KCAL/MOL
REMARK 924 INTRA-LIGAND FREE ENERGY PREDICTED BY IDOCK:   -0.54 KCAL/MOL
REMARK 927      BINDING AFFINITY PREDICTED BY RF-SCORE:    0.00 PKD
ROOT
HETATM    1  C   UNL     1      -7.790  10.158  64.575  1.00  0.00    -0.141 C  
HETATM    2  C   UNL     1      -8.460   9.078  65.370  1.00  0.00    -0.175 A  
HETATM    3  C   UNL     1      -9.580   9.361  66.160  1.00  0.00    -0.311 A  
HETATM    4  C   UNL     1     -10.148   8.370  66.961  1.00  0.00    -0.354 A  
HETATM    5  C   UNL     1      -9.603   7.081  66.962  1.00  0.00    -0.157 A  
HETATM    6  C   UNL     1      -8.502   6.780  66.159  1.00  0.00    -0.135 A  
HETATM    7  C   UNL     1      -7.934   7.777  65.365  1.00  0.00    -0.125 A  
ENDROOT
BRANCH   5   8
HETATM    8  S   UNL     1     -10.200   5.868  68.116  1.00  0.00    -0.205 S  
HETATM    9  O   UNL     1     -10.001   4.571  67.503  1.00  0.00    -0.163 OA 
HETATM   10  O   UNL     1     -11.500   6.289  68.587  1.00  0.00    -0.263 OA 
BRANCH   8  11
HETATM   11  N   UNL     1      -9.159   6.010  69.389  1.00  0.00    -0.132 N  
HETATM   12  H   UNL     1      -8.533   6.816  69.360  1.00  0.00     0.000 HD 
BRANCH  11  13
HETATM   13  C   UNL     1      -9.017   5.177  70.497  1.00  0.00    -0.134 C  
HETATM   14  O   UNL     1      -9.681   4.150  70.542  1.00  0.00    -0.181 OA 
BRANCH  13  15
HETATM   15  N   UNL     1      -8.092   5.579  71.434  1.00  0.00    -0.115 N  
HETATM   16  H   UNL     1      -7.250   6.050  71.104  1.00  0.00     0.000 HD 
BRANCH  15  17
HETATM   17  N   UNL     1      -8.239   5.377  72.819  1.00  0.00    -0.109 NA 
HETATM   18  C   UNL     1      -7.188   6.057  73.602  1.00  0.00    -0.088 C  
HETATM   19  C   UNL     1      -7.736   7.416  74.057  1.00  0.00    -0.151 C  
HETATM   20  C   UNL     1      -7.094   8.624  73.383  1.00  0.00     0.025 C  
HETATM   21  C   UNL     1      -7.844   8.782  72.074  1.00  0.00    -0.040 C  
HETATM   22  C   UNL     1      -9.278   8.404  72.427  1.00  0.00    -0.345 C  
HETATM   23  C   UNL     1      -9.201   7.430  73.615  1.00  0.00    -0.291 C  
HETATM   24  C   UNL     1      -9.502   5.967  73.301  1.00  0.00    -0.142 C  
ENDBRANCH  15  17
ENDBRANCH  13  15
ENDBRANCH  11  13
ENDBRANCH   8  11
ENDBRANCH   5   8
TORSDOF 5
ENDMDL
MODEL      263
REMARK 921   NORMALIZED FREE ENERGY PREDICTED BY IDOCK:   -2.66 KCAL/MOL
REMARK 922        TOTAL FREE ENERGY PREDICTED BY IDOCK:   -4.22 KCAL/MOL
REMARK 923 INTER-LIGAND FREE ENERGY PREDICTED BY IDOCK:   -3.87 KCAL/MOL
REMARK 924 INTRA-LIGAND FREE ENERGY PREDICTED BY IDOCK:   -0.35 KCAL/MOL
REMARK 927      BINDING AFFINITY PREDICTED BY RF-SCORE:    0.00 PKD
ROOT
HETATM    1  C   UNL     1      -7.817  13.353  68.860  1.00  0.00     0.080 C  
HETATM    2  C   UNL     1      -7.927  12.374  67.729  1.00  0.00    -0.156 A  
HETATM    3  C   UNL     1      -6.781  11.803  67.164  1.00  0.00    -0.145 A  
HETATM    4  C   UNL     1      -6.885  10.957  66.060  1.00  0.00    -0.072 A  
HETATM    5  C   UNL     1      -8.145  10.666  65.524  1.00  0.00    -0.129 A  
HETATM    6  C   UNL     1      -9.297  11.209  66.095  1.00  0.00    -0.227 A  
HETATM    7  C   UNL     1      -9.186  12.060  67.196  1.00  0.00    -0.190 A  
ENDROOT
BRANCH   5   8
HETATM    8  S   UNL     1      -8.272   9.745  64.009  1.00  0.00    -0.172 S  
HETATM    9  O   UNL     1      -6.931   9.625  63.475  1.00  0.00    -0.101 OA 
HETATM   10  O   UNL     1      -9.349  10.303  63.225  1.00  0.00    -0.266 OA 
BRANCH   8  11
HETATM   11  N   UNL     1      -8.769   8.253  64.513  1.00  0.00    -0.403 N  
HETATM   12  H   UNL     1      -9.776   8.141  64.636  1.00  0.00     0.000 HD 
BRANCH  11  13
HETATM   13  C   UNL     1      -7.998   7.126  64.793  1.00  0.00    -0.122 C  
HETATM   14  O   UNL     1      -6.783   7.207  64.672  1.00  0.00    -0.045 OA 
BRANCH  13  15
HETATM   15  N   UNL     1      -8.692   6.021  65.231  1.00  0.00    -0.304 N  
HETATM   16  H   UNL     1      -9.576   5.797  64.774  1.00  0.00     0.000 HD 
BRANCH  15  17
HETATM   17  N   UNL     1      -8.253   5.180  66.272  1.00  0.00    -0.108 NA 
HETATM   18  C   UNL     1      -7.692   5.938  67.409  1.00  0.00    -0.097 C  
HETATM   19  C   UNL     1      -8.804   6.128  68.450  1.00  0.00    -0.113 C  
HETATM   20  C   UNL     1      -9.306   7.561  68.595  1.00  0.00    -0.143 C  
HETATM   21  C   UNL     1     -10.337   7.725  67.494  1.00  0.00    -0.333 C  
HETATM   22  C   UNL     1     -11.021   6.365  67.429  1.00  0.00    -0.463 C  
HETATM   23  C   UNL     1      -9.996   5.328  67.921  1.00  0.00    -0.206 C  
HETATM   24  C   UNL     1      -9.385   4.430  66.848  1.00  0.00    -0.153 C  
ENDBRANCH  15  17
ENDBRANCH  13  15
ENDBRANCH  11  13
ENDBRANCH   8  11
ENDBRANCH   5   8
TORSDOF 5
ENDMDL
MODEL      264
REMARK 921   NORMALIZED FREE ENERGY PREDICTED BY IDOCK:   -2.60 KCAL/MOL
REMARK 922        TOTAL FREE ENERGY PREDICTED BY IDOCK:   -4.14 KCAL/MOL
REMARK 923 INTER-LIGAND FREE ENERGY PREDICTED BY IDOCK:   -3.38 KCAL/MOL
REMARK 924 INTRA-LIGAND FREE ENERGY PREDICTED BY IDOCK:   -0.76 KCAL/MOL
REMARK 927      BINDING AFFINITY PREDICTED BY RF-SCORE:    0.00 PKD
ROOT
HETATM    1  C   UNL     1      -7.909  10.713  64.806  1.00  0.00     0.067 C  
HETATM    2  C   UNL     1      -8.541   9.593  65.579  1.00  0.00    -0.162 A  
HETATM    3  C   UNL     1      -9.840   9.717  66.084  1.00  0.00    -0.329 A  
HETATM    4  C   UNL     1     -10.391   8.706  66.871  1.00  0.00    -0.355 A  
HETATM    5  C   UNL     1      -9.643   7.555  67.146  1.00  0.00    -0.161 A  
HETATM    6  C   UNL     1      -8.356   7.409  66.627  1.00  0.00    -0.124 A  
HETATM    7  C   UNL     1      -7.809   8.427  65.844  1.00  0.00    -0.095 A  
ENDROOT
BRANCH   5   8
HETATM    8  S   UNL     1     -10.262   6.352  68.298  1.00  0.00    -0.191 S  
HETATM    9  O   UNL     1      -9.888   5.048  67.787  1.00  0.00    -0.146 OA 
HETATM   10  O   UNL     1     -11.636   6.676  68.603  1.00  0.00    -0.052 OA 
BRANCH   8  11
HETATM   11  N   UNL     1      -9.384   6.648  69.664  1.00  0.00    -0.144 N  
HETATM   12  H   UNL     1      -8.499   6.145  69.739  1.00  0.00     0.000 HD 
BRANCH  11  13
HETATM   13  C   UNL     1      -9.688   7.494  70.730  1.00  0.00    -0.174 C  
HETATM   14  O   UNL     1      -9.684   8.702  70.534  1.00  0.00    -0.168 OA 
BRANCH  13  15
HETATM   15  N   UNL     1     -10.013   6.871  71.914  1.00  0.00    -0.172 N  
HETATM   16  H   UNL     1     -10.697   6.116  71.885  1.00  0.00     0.000 HD 
BRANCH  15  17
HETATM   17  N   UNL     1      -9.458   7.216  73.161  1.00  0.00    -0.154 NA 
HETATM   18  C   UNL     1     -10.002   6.400  74.265  1.00  0.00    -0.328 C  
HETATM   19  C   UNL     1      -9.042   5.229  74.510  1.00  0.00    -0.114 C  
HETATM   20  C   UNL     1      -9.584   3.861  74.110  1.00  0.00    -0.126 C  
HETATM   21  C   UNL     1      -9.304   3.752  72.623  1.00  0.00    -0.154 C  
HETATM   22  C   UNL     1      -7.959   4.450  72.453  1.00  0.00    -0.092 C  
HETATM   23  C   UNL     1      -7.848   5.483  73.587  1.00  0.00    -0.105 C  
HETATM   24  C   UNL     1      -8.008   6.945  73.178  1.00  0.00    -0.102 C  
ENDBRANCH  15  17
ENDBRANCH  13  15
ENDBRANCH  11  13
ENDBRANCH   8  11
ENDBRANCH   5   8
TORSDOF 5
ENDMDL
MODEL      265
REMARK 921   NORMALIZED FREE ENERGY PREDICTED BY IDOCK:   -2.60 KCAL/MOL
REMARK 922        TOTAL FREE ENERGY PREDICTED BY IDOCK:   -4.14 KCAL/MOL
REMARK 923 INTER-LIGAND FREE ENERGY PREDICTED BY IDOCK:   -3.63 KCAL/MOL
REMARK 924 INTRA-LIGAND FREE ENERGY PREDICTED BY IDOCK:   -0.50 KCAL/MOL
REMARK 927      BINDING AFFINITY PREDICTED BY RF-SCORE:    0.00 PKD
ROOT
HETATM    1  C   UNL     1     -10.017  12.527  67.437  1.00  0.00    -0.207 C  
HETATM    2  C   UNL     1      -9.632  11.078  67.437  1.00  0.00    -0.180 A  
HETATM    3  C   UNL     1     -10.529  10.099  66.994  1.00  0.00    -0.302 A  
HETATM    4  C   UNL     1     -10.195   8.747  67.074  1.00  0.00    -0.351 A  
HETATM    5  C   UNL     1      -8.950   8.369  67.588  1.00  0.00    -0.135 A  
HETATM    6  C   UNL     1      -8.036   9.336  68.010  1.00  0.00    -0.104 A  
HETATM    7  C   UNL     1      -8.379  10.688  67.933  1.00  0.00    -0.120 A  
ENDROOT
BRANCH   5   8
HETATM    8  S   UNL     1      -8.592   6.651  67.868  1.00  0.00    -0.117 S  
HETATM    9  O   UNL     1      -7.332   6.370  67.211  1.00  0.00    -0.083 OA 
HETATM   10  O   UNL     1      -9.782   5.884  67.577  1.00  0.00    -0.110 OA 
BRANCH   8  11
HETATM   11  N   UNL     1      -8.359   6.573  69.501  1.00  0.00    -0.129 N  
HETATM   12  H   UNL     1      -8.602   7.416  70.022  1.00  0.00     0.000 HD 
BRANCH  11  13
HETATM   13  C   UNL     1      -7.874   5.511  70.263  1.00  0.00    -0.093 C  
HETATM   14  O   UNL     1      -6.993   4.808  69.787  1.00  0.00    -0.050 OA 
BRANCH  13  15
HETATM   15  N   UNL     1      -8.414   5.383  71.522  1.00  0.00    -0.125 N  
HETATM   16  H   UNL     1      -9.417   5.530  71.630  1.00  0.00     0.000 HD 
BRANCH  15  17
HETATM   17  N   UNL     1      -7.664   5.060  72.669  1.00  0.00    -0.095 NA 
HETATM   18  C   UNL     1      -6.990   6.238  73.252  1.00  0.00    -0.075 C  
HETATM   19  C   UNL     1      -7.883   6.791  74.371  1.00  0.00    -0.123 C  
HETATM   20  C   UNL     1      -8.534   8.137  74.067  1.00  0.00    -0.289 C  
HETATM   21  C   UNL     1      -9.779   7.794  73.271  1.00  0.00    -0.357 C  
HETATM   22  C   UNL     1     -10.272   6.498  73.905  1.00  0.00    -0.353 C  
HETATM   23  C   UNL     1      -9.038   5.796  74.498  1.00  0.00    -0.132 C  
HETATM   24  C   UNL     1      -8.543   4.565  73.744  1.00  0.00    -0.103 C  
ENDBRANCH  15  17
ENDBRANCH  13  15
ENDBRANCH  11  13
ENDBRANCH   8  11
ENDBRANCH   5   8
TORSDOF 5
ENDMDL
MODEL      266
REMARK 921   NORMALIZED FREE ENERGY PREDICTED BY IDOCK:   -2.59 KCAL/MOL
REMARK 922        TOTAL FREE ENERGY PREDICTED BY IDOCK:   -4.13 KCAL/MOL
REMARK 923 INTER-LIGAND FREE ENERGY PREDICTED BY IDOCK:   -3.14 KCAL/MOL
REMARK 924 INTRA-LIGAND FREE ENERGY PREDICTED BY IDOCK:   -0.99 KCAL/MOL
REMARK 927      BINDING AFFINITY PREDICTED BY RF-SCORE:    0.00 PKD
ROOT
HETATM    1  C   UNL     1      -6.222   9.510  65.703  1.00  0.00    -0.065 C  
HETATM    2  C   UNL     1      -6.895   8.172  65.621  1.00  0.00    -0.066 A  
HETATM    3  C   UNL     1      -8.287   8.065  65.715  1.00  0.00    -0.142 A  
HETATM    4  C   UNL     1      -8.899   6.811  65.721  1.00  0.00    -0.088 A  
HETATM    5  C   UNL     1      -8.117   5.656  65.620  1.00  0.00    -0.120 A  
HETATM    6  C   UNL     1      -6.729   5.751  65.501  1.00  0.00    -0.047 A  
HETATM    7  C   UNL     1      -6.122   7.008  65.501  1.00  0.00    -0.037 A  
ENDROOT
BRANCH   5   8
HETATM    8  S   UNL     1      -8.868   4.057  65.816  1.00  0.00    -0.128 S  
HETATM    9  O   UNL     1      -7.845   3.072  65.527  1.00  0.00    -0.080 OA 
HETATM   10  O   UNL     1     -10.133   4.059  65.118  1.00  0.00    -0.202 OA 
BRANCH   8  11
HETATM   11  N   UNL     1      -9.211   3.995  67.430  1.00  0.00    -0.151 N  
HETATM   12  H   UNL     1     -10.151   3.678  67.670  1.00  0.00     0.000 HD 
BRANCH  11  13
HETATM   13  C   UNL     1      -8.390   4.317  68.509  1.00  0.00    -0.084 C  
HETATM   14  O   UNL     1      -7.393   3.635  68.706  1.00  0.00    -0.053 OA 
BRANCH  13  15
HETATM   15  N   UNL     1      -8.765   5.423  69.238  1.00  0.00    -0.101 N  
HETATM   16  H   UNL     1      -8.234   6.284  69.111  1.00  0.00     0.000 HD 
BRANCH  15  17
HETATM   17  N   UNL     1      -9.839   5.435  70.149  1.00  0.00    -0.190 NA 
HETATM   18  C   UNL     1      -9.571   6.288  71.324  1.00  0.00    -0.174 C  
HETATM   19  C   UNL     1     -10.185   7.670  71.060  1.00  0.00    -0.200 C  
HETATM   20  C   UNL     1      -9.172   8.789  70.841  1.00  0.00    -0.261 C  
HETATM   21  C   UNL     1      -8.802   8.696  69.373  1.00  0.00    -0.144 C  
HETATM   22  C   UNL     1     -10.106   8.300  68.692  1.00  0.00    -0.212 C  
HETATM   23  C   UNL     1     -10.937   7.532  69.735  1.00  0.00    -0.195 C  
HETATM   24  C   UNL     1     -11.041   6.024  69.529  1.00  0.00    -0.398 C  
ENDBRANCH  15  17
ENDBRANCH  13  15
ENDBRANCH  11  13
ENDBRANCH   8  11
ENDBRANCH   5   8
TORSDOF 5
ENDMDL
MODEL      267
REMARK 921   NORMALIZED FREE ENERGY PREDICTED BY IDOCK:   -2.55 KCAL/MOL
REMARK 922        TOTAL FREE ENERGY PREDICTED BY IDOCK:   -4.07 KCAL/MOL
REMARK 923 INTER-LIGAND FREE ENERGY PREDICTED BY IDOCK:   -3.30 KCAL/MOL
REMARK 924 INTRA-LIGAND FREE ENERGY PREDICTED BY IDOCK:   -0.77 KCAL/MOL
REMARK 927      BINDING AFFINITY PREDICTED BY RF-SCORE:    0.00 PKD
ROOT
HETATM    1  C   UNL     1      -6.051  10.166  63.150  1.00  0.00    -0.140 C  
HETATM    2  C   UNL     1      -6.542   9.658  64.473  1.00  0.00    -0.102 A  
HETATM    3  C   UNL     1      -6.108   8.424  64.971  1.00  0.00    -0.052 A  
HETATM    4  C   UNL     1      -6.632   7.920  66.161  1.00  0.00    -0.050 A  
HETATM    5  C   UNL     1      -7.586   8.660  66.869  1.00  0.00    -0.084 A  
HETATM    6  C   UNL     1      -8.008   9.903  66.395  1.00  0.00    -0.111 A  
HETATM    7  C   UNL     1      -7.485  10.399  65.200  1.00  0.00    -0.093 A  
ENDROOT
BRANCH   5   8
HETATM    8  S   UNL     1      -8.394   7.944  68.280  1.00  0.00    -0.124 S  
HETATM    9  O   UNL     1      -9.287   6.919  67.780  1.00  0.00    -0.123 OA 
HETATM   10  O   UNL     1      -8.872   9.014  69.124  1.00  0.00    -0.138 OA 
BRANCH   8  11
HETATM   11  N   UNL     1      -7.158   7.208  69.092  1.00  0.00    -0.081 N  
HETATM   12  H   UNL     1      -6.281   7.124  68.578  1.00  0.00     0.000 HD 
BRANCH  11  13
HETATM   13  C   UNL     1      -7.151   6.687  70.385  1.00  0.00    -0.068 C  
HETATM   14  O   UNL     1      -6.073   6.431  70.903  1.00  0.00    -0.030 OA 
BRANCH  13  15
HETATM   15  N   UNL     1      -8.384   6.550  70.981  1.00  0.00    -0.125 N  
HETATM   16  H   UNL     1      -8.785   7.365  71.445  1.00  0.00     0.000 HD 
BRANCH  15  17
HETATM   17  N   UNL     1      -9.123   5.352  70.990  1.00  0.00    -0.142 NA 
HETATM   18  C   UNL     1      -9.435   4.892  72.358  1.00  0.00    -0.140 C  
HETATM   19  C   UNL     1     -10.838   5.397  72.722  1.00  0.00    -0.310 C  
HETATM   20  C   UNL     1     -10.870   6.486  73.789  1.00  0.00    -0.074 C  
HETATM   21  C   UNL     1     -10.624   7.778  73.033  1.00  0.00    -0.441 C  
HETATM   22  C   UNL     1     -11.351   7.570  71.710  1.00  0.00    -0.289 C  
HETATM   23  C   UNL     1     -11.376   6.054  71.449  1.00  0.00    -0.301 C  
HETATM   24  C   UNL     1     -10.440   5.548  70.355  1.00  0.00    -0.286 C  
ENDBRANCH  15  17
ENDBRANCH  13  15
ENDBRANCH  11  13
ENDBRANCH   8  11
ENDBRANCH   5   8
TORSDOF 5
ENDMDL
MODEL      268
REMARK 921   NORMALIZED FREE ENERGY PREDICTED BY IDOCK:   -2.52 KCAL/MOL
REMARK 922        TOTAL FREE ENERGY PREDICTED BY IDOCK:   -4.04 KCAL/MOL
REMARK 923 INTER-LIGAND FREE ENERGY PREDICTED BY IDOCK:   -3.42 KCAL/MOL
REMARK 924 INTRA-LIGAND FREE ENERGY PREDICTED BY IDOCK:   -0.62 KCAL/MOL
REMARK 927      BINDING AFFINITY PREDICTED BY RF-SCORE:    0.00 PKD
ROOT
HETATM    1  C   UNL     1     -11.124  14.890  67.966  1.00  0.00    -0.301 C  
HETATM    2  C   UNL     1     -10.968  13.415  67.748  1.00  0.00    -0.281 A  
HETATM    3  C   UNL     1     -11.311  12.503  68.753  1.00  0.00    -0.337 A  
HETATM    4  C   UNL     1     -11.086  11.138  68.574  1.00  0.00    -0.298 A  
HETATM    5  C   UNL     1     -10.526  10.677  67.377  1.00  0.00    -0.235 A  
HETATM    6  C   UNL     1     -10.203  11.574  66.357  1.00  0.00    -0.261 A  
HETATM    7  C   UNL     1     -10.425  12.940  66.545  1.00  0.00    -0.275 A  
ENDROOT
BRANCH   5   8
HETATM    8  S   UNL     1     -10.064   8.969  67.215  1.00  0.00    -0.255 S  
HETATM    9  O   UNL     1      -9.228   8.868  66.036  1.00  0.00    -0.196 OA 
HETATM   10  O   UNL     1     -11.250   8.158  67.371  1.00  0.00     0.190 OA 
BRANCH   8  11
HETATM   11  N   UNL     1      -9.123   8.703  68.546  1.00  0.00    -0.139 N  
HETATM   12  H   UNL     1      -9.627   8.553  69.420  1.00  0.00     0.000 HD 
BRANCH  11  13
HETATM   13  C   UNL     1      -7.733   8.657  68.636  1.00  0.00    -0.099 C  
HETATM   14  O   UNL     1      -7.086   9.558  68.120  1.00  0.00    -0.077 OA 
BRANCH  13  15
HETATM   15  N   UNL     1      -7.214   7.602  69.352  1.00  0.00    -0.079 N  
HETATM   16  H   UNL     1      -7.476   6.658  69.071  1.00  0.00     0.000 HD 
BRANCH  15  17
HETATM   17  N   UNL     1      -6.343   7.750  70.448  1.00  0.00    -0.037 NA 
HETATM   18  C   UNL     1      -6.979   8.450  71.582  1.00  0.00    -0.086 C  
HETATM   19  C   UNL     1      -7.520   7.391  72.553  1.00  0.00    -0.082 C  
HETATM   20  C   UNL     1      -9.041   7.296  72.613  1.00  0.00    -0.169 C  
HETATM   21  C   UNL     1      -9.420   6.396  71.452  1.00  0.00    -0.164 C  
HETATM   22  C   UNL     1      -8.296   5.368  71.404  1.00  0.00    -0.122 C  
HETATM   23  C   UNL     1      -7.047   6.048  71.992  1.00  0.00    -0.087 C  
HETATM   24  C   UNL     1      -5.961   6.433  70.991  1.00  0.00    -0.027 C  
ENDBRANCH  15  17
ENDBRANCH  13  15
ENDBRANCH  11  13
ENDBRANCH   8  11
ENDBRANCH   5   8
TORSDOF 5
ENDMDL
MODEL      269
REMARK 921   NORMALIZED FREE ENERGY PREDICTED BY IDOCK:   -2.47 KCAL/MOL
REMARK 922        TOTAL FREE ENERGY PREDICTED BY IDOCK:   -3.97 KCAL/MOL
REMARK 923 INTER-LIGAND FREE ENERGY PREDICTED BY IDOCK:   -3.02 KCAL/MOL
REMARK 924 INTRA-LIGAND FREE ENERGY PREDICTED BY IDOCK:   -0.95 KCAL/MOL
REMARK 927      BINDING AFFINITY PREDICTED BY RF-SCORE:    0.00 PKD
ROOT
HETATM    1  C   UNL     1     -11.116  14.907  67.982  1.00  0.00    -0.301 C  
HETATM    2  C   UNL     1     -10.943  13.420  67.903  1.00  0.00    -0.276 A  
HETATM    3  C   UNL     1     -11.267  12.603  68.993  1.00  0.00    -0.322 A  
HETATM    4  C   UNL     1     -11.026  11.230  68.942  1.00  0.00    -0.274 A  
HETATM    5  C   UNL     1     -10.470  10.665  67.788  1.00  0.00    -0.221 A  
HETATM    6  C   UNL     1     -10.166  11.465  66.686  1.00  0.00    -0.258 A  
HETATM    7  C   UNL     1     -10.403  12.839  66.746  1.00  0.00    -0.248 A  
ENDROOT
BRANCH   5   8
HETATM    8  S   UNL     1      -9.987   8.955  67.785  1.00  0.00    -0.205 S  
HETATM    9  O   UNL     1      -9.182   8.747  66.599  1.00  0.00    -0.156 OA 
HETATM   10  O   UNL     1     -11.157   8.150  68.053  1.00  0.00     0.112 OA 
BRANCH   8  11
HETATM   11  N   UNL     1      -9.008   8.834  69.109  1.00  0.00    -0.137 N  
HETATM   12  H   UNL     1      -9.487   8.758  70.007  1.00  0.00     0.000 HD 
BRANCH  11  13
HETATM   13  C   UNL     1      -7.615   8.822  69.165  1.00  0.00    -0.088 C  
HETATM   14  O   UNL     1      -7.054   9.648  69.872  1.00  0.00    -0.069 OA 
BRANCH  13  15
HETATM   15  N   UNL     1      -6.995   7.830  68.440  1.00  0.00    -0.070 N  
HETATM   16  H   UNL     1      -7.205   7.763  67.444  1.00  0.00     0.000 HD 
BRANCH  15  17
HETATM   17  N   UNL     1      -6.089   6.904  68.990  1.00  0.00    -0.026 NA 
HETATM   18  C   UNL     1      -6.724   6.016  69.985  1.00  0.00    -0.052 C  
HETATM   19  C   UNL     1      -7.134   4.720  69.272  1.00  0.00    -0.052 C  
HETATM   20  C   UNL     1      -8.639   4.526  69.112  1.00  0.00    -0.103 C  
HETATM   21  C   UNL     1      -8.999   5.304  67.860  1.00  0.00    -0.112 C  
HETATM   22  C   UNL     1      -7.801   5.095  66.943  1.00  0.00    -0.100 C  
HETATM   23  C   UNL     1      -6.583   4.847  67.850  1.00  0.00    -0.050 C  
HETATM   24  C   UNL     1      -5.579   5.992  67.949  1.00  0.00    -0.008 C  
ENDBRANCH  15  17
ENDBRANCH  13  15
ENDBRANCH  11  13
ENDBRANCH   8  11
ENDBRANCH   5   8
TORSDOF 5
ENDMDL
MODEL      270
REMARK 921   NORMALIZED FREE ENERGY PREDICTED BY IDOCK:   -2.46 KCAL/MOL
REMARK 922        TOTAL FREE ENERGY PREDICTED BY IDOCK:   -3.95 KCAL/MOL
REMARK 923 INTER-LIGAND FREE ENERGY PREDICTED BY IDOCK:   -5.12 KCAL/MOL
REMARK 924 INTRA-LIGAND FREE ENERGY PREDICTED BY IDOCK:    1.17 KCAL/MOL
REMARK 927      BINDING AFFINITY PREDICTED BY RF-SCORE:    0.00 PKD
ROOT
HETATM    1  C   UNL     1      -5.429  19.888  65.145  1.00  0.00    -0.197 C  
HETATM    2  C   UNL     1      -6.034  18.837  66.028  1.00  0.00    -0.202 A  
HETATM    3  C   UNL     1      -7.406  18.568  65.981  1.00  0.00    -0.275 A  
HETATM    4  C   UNL     1      -7.975  17.648  66.863  1.00  0.00    -0.252 A  
HETATM    5  C   UNL     1      -7.165  16.982  67.790  1.00  0.00    -0.152 A  
HETATM    6  C   UNL     1      -5.791  17.224  67.829  1.00  0.00    -0.134 A  
HETATM    7  C   UNL     1      -5.229  18.150  66.948  1.00  0.00    -0.152 A  
ENDROOT
BRANCH   5   8
HETATM    8  S   UNL     1      -7.906  15.955  69.037  1.00  0.00    -0.227 S  
HETATM    9  O   UNL     1      -9.181  16.556  69.374  1.00  0.00    -0.171 OA 
HETATM   10  O   UNL     1      -6.913  15.676  70.048  1.00  0.00    -0.096 OA 
BRANCH   8  11
HETATM   11  N   UNL     1      -8.193  14.538  68.240  1.00  0.00    -0.141 N  
HETATM   12  H   UNL     1      -7.639  13.738  68.549  1.00  0.00     0.000 HD 
BRANCH  11  13
HETATM   13  C   UNL     1      -9.088  14.286  67.202  1.00  0.00    -0.228 C  
HETATM   14  O   UNL     1     -10.049  15.032  67.068  1.00  0.00    -0.240 OA 
BRANCH  13  15
HETATM   15  N   UNL     1      -8.774  13.225  66.385  1.00  0.00    -0.426 N  
HETATM   16  H   UNL     1      -8.527  13.423  65.415  1.00  0.00     0.000 HD 
BRANCH  15  17
HETATM   17  N   UNL     1      -8.773  11.881  66.807  1.00  0.00    -0.191 NA 
HETATM   18  C   UNL     1      -9.440  11.700  68.111  1.00  0.00    -0.191 C  
HETATM   19  C   UNL     1     -10.896  11.292  67.849  1.00  0.00    -0.278 C  
HETATM   20  C   UNL     1     -11.934  12.351  68.208  1.00  0.00    -0.270 C  
HETATM   21  C   UNL     1     -11.992  13.263  66.997  1.00  0.00    -0.419 C  
HETATM   22  C   UNL     1     -11.811  12.316  65.817  1.00  0.00    -0.417 C  
HETATM   23  C   UNL     1     -11.000  11.114  66.333  1.00  0.00    -0.248 C  
HETATM   24  C   UNL     1      -9.547  11.041  65.873  1.00  0.00    -0.218 C  
ENDBRANCH  15  17
ENDBRANCH  13  15
ENDBRANCH  11  13
ENDBRANCH   8  11
ENDBRANCH   5   8
TORSDOF 5
ENDMDL
MODEL      271
REMARK 921   NORMALIZED FREE ENERGY PREDICTED BY IDOCK:   -2.38 KCAL/MOL
REMARK 922        TOTAL FREE ENERGY PREDICTED BY IDOCK:   -3.86 KCAL/MOL
REMARK 923 INTER-LIGAND FREE ENERGY PREDICTED BY IDOCK:   -3.41 KCAL/MOL
REMARK 924 INTRA-LIGAND FREE ENERGY PREDICTED BY IDOCK:   -0.45 KCAL/MOL
REMARK 927      BINDING AFFINITY PREDICTED BY RF-SCORE:    0.00 PKD
ROOT
HETATM    1  C   UNL     1      -5.300  14.333  72.626  1.00  0.00    -0.209 C  
HETATM    2  C   UNL     1      -5.562  13.511  71.399  1.00  0.00    -0.180 A  
HETATM    3  C   UNL     1      -5.659  12.117  71.479  1.00  0.00     0.302 A  
HETATM    4  C   UNL     1      -5.820  11.354  70.323  1.00  0.00    -0.154 A  
HETATM    5  C   UNL     1      -5.900  11.987  69.077  1.00  0.00    -0.064 A  
HETATM    6  C   UNL     1      -5.829  13.378  68.987  1.00  0.00    -0.079 A  
HETATM    7  C   UNL     1      -5.662  14.137  70.147  1.00  0.00    -0.130 A  
ENDROOT
BRANCH   5   8
HETATM    8  S   UNL     1      -5.915  11.016  67.589  1.00  0.00    -0.045 S  
HETATM    9  O   UNL     1      -5.155   9.813  67.863  1.00  0.00    -0.036 OA 
HETATM   10  O   UNL     1      -5.586  11.879  66.478  1.00  0.00    -0.289 OA 
BRANCH   8  11
HETATM   11  N   UNL     1      -7.504  10.603  67.422  1.00  0.00    -0.093 N  
HETATM   12  H   UNL     1      -7.691   9.801  66.818  1.00  0.00     0.000 HD 
BRANCH  11  13
HETATM   13  C   UNL     1      -8.626  11.201  67.993  1.00  0.00    -0.140 C  
HETATM   14  O   UNL     1      -8.760  11.145  69.209  1.00  0.00    -0.005 OA 
BRANCH  13  15
HETATM   15  N   UNL     1      -9.470  11.849  67.120  1.00  0.00    -0.175 N  
HETATM   16  H   UNL     1     -10.423  11.499  67.027  1.00  0.00     0.000 HD 
BRANCH  15  17
HETATM   17  N   UNL     1      -9.095  12.965  66.349  1.00  0.00    -0.138 NA 
HETATM   18  C   UNL     1     -10.138  13.357  65.380  1.00  0.00    -0.254 C  
HETATM   19  C   UNL     1     -10.984  14.469  66.013  1.00  0.00    -0.324 C  
HETATM   20  C   UNL     1     -12.407  14.062  66.381  1.00  0.00    -0.468 C  
HETATM   21  C   UNL     1     -12.284  13.407  67.743  1.00  0.00    -0.171 C  
HETATM   22  C   UNL     1     -11.202  14.221  68.443  1.00  0.00    -0.291 C  
HETATM   23  C   UNL     1     -10.296  14.796  67.341  1.00  0.00    -0.242 C  
HETATM   24  C   UNL     1      -8.918  14.154  67.205  1.00  0.00    -0.225 C  
ENDBRANCH  15  17
ENDBRANCH  13  15
ENDBRANCH  11  13
ENDBRANCH   8  11
ENDBRANCH   5   8
TORSDOF 5
ENDMDL
MODEL      272
REMARK 921   NORMALIZED FREE ENERGY PREDICTED BY IDOCK:   -2.35 KCAL/MOL
REMARK 922        TOTAL FREE ENERGY PREDICTED BY IDOCK:   -3.82 KCAL/MOL
REMARK 923 INTER-LIGAND FREE ENERGY PREDICTED BY IDOCK:   -3.53 KCAL/MOL
REMARK 924 INTRA-LIGAND FREE ENERGY PREDICTED BY IDOCK:   -0.29 KCAL/MOL
REMARK 927      BINDING AFFINITY PREDICTED BY RF-SCORE:    0.00 PKD
ROOT
HETATM    1  C   UNL     1      -5.175  14.344  72.604  1.00  0.00    -0.220 C  
HETATM    2  C   UNL     1      -5.508  13.615  71.336  1.00  0.00    -0.216 A  
HETATM    3  C   UNL     1      -5.633  12.221  71.325  1.00  0.00     0.102 A  
HETATM    4  C   UNL     1      -5.859  11.542  70.127  1.00  0.00    -0.150 A  
HETATM    5  C   UNL     1      -5.977  12.262  68.933  1.00  0.00    -0.069 A  
HETATM    6  C   UNL     1      -5.879  13.654  68.935  1.00  0.00    -0.083 A  
HETATM    7  C   UNL     1      -5.646  14.327  70.136  1.00  0.00    -0.119 A  
ENDROOT
BRANCH   5   8
HETATM    8  S   UNL     1      -6.077  11.397  67.384  1.00  0.00    -0.086 S  
HETATM    9  O   UNL     1      -5.523  10.076  67.602  1.00  0.00    -0.038 OA 
HETATM   10  O   UNL     1      -5.572  12.263  66.343  1.00  0.00    -0.118 OA 
BRANCH   8  11
HETATM   11  N   UNL     1      -7.702  11.247  67.137  1.00  0.00    -0.139 N  
HETATM   12  H   UNL     1      -7.984  10.523  66.475  1.00  0.00     0.000 HD 
BRANCH  11  13
HETATM   13  C   UNL     1      -8.743  11.977  67.709  1.00  0.00    -0.161 C  
HETATM   14  O   UNL     1      -8.936  11.869  68.913  1.00  0.00    -0.006 OA 
BRANCH  13  15
HETATM   15  N   UNL     1      -9.438  12.801  66.853  1.00  0.00    -0.228 N  
HETATM   16  H   UNL     1      -8.943  13.182  66.048  1.00  0.00     0.000 HD 
BRANCH  15  17
HETATM   17  N   UNL     1     -10.792  13.148  67.024  1.00  0.00    -0.262 NA 
HETATM   18  C   UNL     1     -11.274  14.069  65.976  1.00  0.00    -0.310 C  
HETATM   19  C   UNL     1     -11.949  13.233  64.880  1.00  0.00    -0.417 C  
HETATM   20  C   UNL     1     -11.190  13.178  63.558  1.00  0.00    -0.130 C  
HETATM   21  C   UNL     1     -10.167  12.073  63.743  1.00  0.00    -0.447 C  
HETATM   22  C   UNL     1     -10.899  11.037  64.589  1.00  0.00    -0.248 C  
HETATM   23  C   UNL     1     -11.953  11.798  65.410  1.00  0.00     0.100 C  
HETATM   24  C   UNL     1     -11.654  11.958  66.898  1.00  0.00    -0.285 C  
ENDBRANCH  15  17
ENDBRANCH  13  15
ENDBRANCH  11  13
ENDBRANCH   8  11
ENDBRANCH   5   8
TORSDOF 5
ENDMDL
MODEL      273
REMARK 921   NORMALIZED FREE ENERGY PREDICTED BY IDOCK:   -2.28 KCAL/MOL
REMARK 922        TOTAL FREE ENERGY PREDICTED BY IDOCK:   -3.73 KCAL/MOL
REMARK 923 INTER-LIGAND FREE ENERGY PREDICTED BY IDOCK:   -3.50 KCAL/MOL
REMARK 924 INTRA-LIGAND FREE ENERGY PREDICTED BY IDOCK:   -0.23 KCAL/MOL
REMARK 927      BINDING AFFINITY PREDICTED BY RF-SCORE:    0.00 PKD
ROOT
HETATM    1  C   UNL     1      -5.564  19.800  65.217  1.00  0.00    -0.198 C  
HETATM    2  C   UNL     1      -6.128  18.668  66.023  1.00  0.00    -0.225 A  
HETATM    3  C   UNL     1      -7.450  18.245  65.835  1.00  0.00    -0.202 A  
HETATM    4  C   UNL     1      -7.993  17.248  66.645  1.00  0.00    -0.296 A  
HETATM    5  C   UNL     1      -7.207  16.657  67.641  1.00  0.00    -0.138 A  
HETATM    6  C   UNL     1      -5.881  17.052  67.821  1.00  0.00    -0.143 A  
HETATM    7  C   UNL     1      -5.345  18.055  67.012  1.00  0.00    -0.155 A  
ENDROOT
BRANCH   5   8
HETATM    8  S   UNL     1      -7.945  15.524  68.795  1.00  0.00    -0.179 S  
HETATM    9  O   UNL     1      -9.331  15.921  68.947  1.00  0.00    -0.205 OA 
HETATM   10  O   UNL     1      -7.067  15.399  69.935  1.00  0.00    -0.163 OA 
BRANCH   8  11
HETATM   11  N   UNL     1      -7.900  14.082  67.993  1.00  0.00    -0.137 N  
HETATM   12  H   UNL     1      -7.872  14.143  66.975  1.00  0.00     0.000 HD 
BRANCH  11  13
HETATM   13  C   UNL     1      -7.895  12.791  68.519  1.00  0.00    -0.099 C  
HETATM   14  O   UNL     1      -7.215  12.570  69.513  1.00  0.00     0.148 OA 
BRANCH  13  15
HETATM   15  N   UNL     1      -8.707  11.881  67.882  1.00  0.00    -0.159 N  
HETATM   16  H   UNL     1      -9.625  11.694  68.285  1.00  0.00     0.000 HD 
BRANCH  15  17
HETATM   17  N   UNL     1      -8.346  11.195  66.707  1.00  0.00    -0.146 NA 
HETATM   18  C   UNL     1      -7.461  10.044  66.976  1.00  0.00    -0.092 C  
HETATM   19  C   UNL     1      -8.333   8.785  67.073  1.00  0.00    -0.103 C  
HETATM   20  C   UNL     1      -8.441   8.186  68.472  1.00  0.00    -0.127 C  
HETATM   21  C   UNL     1      -9.545   8.978  69.148  1.00  0.00    -0.161 C  
HETATM   22  C   UNL     1     -10.544   9.240  68.028  1.00  0.00    -0.262 C  
HETATM   23  C   UNL     1      -9.748   9.242  66.712  1.00  0.00    -0.260 C  
HETATM   24  C   UNL     1      -9.535  10.606  66.061  1.00  0.00    -0.193 C  
ENDBRANCH  15  17
ENDBRANCH  13  15
ENDBRANCH  11  13
ENDBRANCH   8  11
ENDBRANCH   5   8
TORSDOF 5
ENDMDL
MODEL      274
REMARK 921   NORMALIZED FREE ENERGY PREDICTED BY IDOCK:   -2.10 KCAL/MOL
REMARK 922        TOTAL FREE ENERGY PREDICTED BY IDOCK:   -3.49 KCAL/MOL
REMARK 923 INTER-LIGAND FREE ENERGY PREDICTED BY IDOCK:   -3.12 KCAL/MOL
REMARK 924 INTRA-LIGAND FREE ENERGY PREDICTED BY IDOCK:   -0.37 KCAL/MOL
REMARK 927      BINDING AFFINITY PREDICTED BY RF-SCORE:    0.00 PKD
ROOT
HETATM    1  C   UNL     1      -9.047   9.412  65.325  1.00  0.00    -0.287 C  
HETATM    2  C   UNL     1      -9.514   8.868  66.643  1.00  0.00    -0.261 A  
HETATM    3  C   UNL     1     -10.216   9.678  67.543  1.00  0.00    -0.274 A  
HETATM    4  C   UNL     1     -10.574   9.190  68.800  1.00  0.00    -0.208 A  
HETATM    5  C   UNL     1     -10.242   7.878  69.156  1.00  0.00    -0.216 A  
HETATM    6  C   UNL     1      -9.565   7.052  68.257  1.00  0.00    -0.134 A  
HETATM    7  C   UNL     1      -9.204   7.548  67.003  1.00  0.00    -0.167 A  
ENDROOT
BRANCH   5   8
HETATM    8  S   UNL     1     -10.527   7.312  70.816  1.00  0.00    -0.214 S  
HETATM    9  O   UNL     1     -10.662   5.871  70.753  1.00  0.00    -0.247 OA 
HETATM   10  O   UNL     1     -11.551   8.140  71.411  1.00  0.00    -0.264 OA 
BRANCH   8  11
HETATM   11  N   UNL     1      -9.112   7.671  71.587  1.00  0.00    -0.133 N  
HETATM   12  H   UNL     1      -8.899   8.664  71.679  1.00  0.00     0.000 HD 
BRANCH  11  13
HETATM   13  C   UNL     1      -8.169   6.799  72.130  1.00  0.00    -0.104 C  
HETATM   14  O   UNL     1      -7.313   7.259  72.874  1.00  0.00    -0.072 OA 
BRANCH  13  15
HETATM   15  N   UNL     1      -8.323   5.471  71.803  1.00  0.00    -0.119 N  
HETATM   16  H   UNL     1      -9.156   5.200  71.282  1.00  0.00     0.000 HD 
BRANCH  15  17
HETATM   17  N   UNL     1      -7.399   4.466  72.146  1.00  0.00    -0.062 NA 
HETATM   18  C   UNL     1      -7.868   3.117  71.771  1.00  0.00    -0.057 C  
HETATM   19  C   UNL     1      -7.269   2.768  70.402  1.00  0.00    -0.033 C  
HETATM   20  C   UNL     1      -8.275   2.718  69.256  1.00  0.00    -0.074 C  
HETATM   21  C   UNL     1      -8.418   4.159  68.803  1.00  0.00    -0.098 C  
HETATM   22  C   UNL     1      -7.013   4.730  68.955  1.00  0.00    -0.052 C  
HETATM   23  C   UNL     1      -6.322   3.922  70.067  1.00  0.00    -0.028 C  
HETATM   24  C   UNL     1      -6.138   4.641  71.401  1.00  0.00    -0.018 C  
ENDBRANCH  15  17
ENDBRANCH  13  15
ENDBRANCH  11  13
ENDBRANCH   8  11
ENDBRANCH   5   8
TORSDOF 5
ENDMDL
MODEL      275
REMARK 921   NORMALIZED FREE ENERGY PREDICTED BY IDOCK:   -2.07 KCAL/MOL
REMARK 922        TOTAL FREE ENERGY PREDICTED BY IDOCK:   -3.45 KCAL/MOL
REMARK 923 INTER-LIGAND FREE ENERGY PREDICTED BY IDOCK:   -3.10 KCAL/MOL
REMARK 924 INTRA-LIGAND FREE ENERGY PREDICTED BY IDOCK:   -0.36 KCAL/MOL
REMARK 927      BINDING AFFINITY PREDICTED BY RF-SCORE:    0.00 PKD
ROOT
HETATM    1  C   UNL     1      -6.158   5.897  63.061  1.00  0.00    -0.021 C  
HETATM    2  C   UNL     1      -6.873   5.795  64.375  1.00  0.00    -0.050 A  
HETATM    3  C   UNL     1      -6.226   5.273  65.502  1.00  0.00    -0.034 A  
HETATM    4  C   UNL     1      -6.920   5.104  66.699  1.00  0.00    -0.064 A  
HETATM    5  C   UNL     1      -8.269   5.472  66.778  1.00  0.00    -0.105 A  
HETATM    6  C   UNL     1      -8.918   6.016  65.669  1.00  0.00    -0.077 A  
HETATM    7  C   UNL     1      -8.219   6.177  64.471  1.00  0.00    -0.079 A  
ENDROOT
BRANCH   5   8
HETATM    8  S   UNL     1      -9.208   5.086  68.237  1.00  0.00    -0.126 S  
HETATM    9  O   UNL     1      -9.260   3.642  68.335  1.00  0.00    -0.135 OA 
HETATM   10  O   UNL     1     -10.412   5.886  68.229  1.00  0.00    -0.193 OA 
BRANCH   8  11
HETATM   11  N   UNL     1      -8.260   5.659  69.461  1.00  0.00    -0.102 N  
HETATM   12  H   UNL     1      -7.940   6.623  69.358  1.00  0.00     0.000 HD 
BRANCH  11  13
HETATM   13  C   UNL     1      -7.838   5.005  70.617  1.00  0.00    -0.078 C  
HETATM   14  O   UNL     1      -7.129   4.014  70.498  1.00  0.00    -0.037 OA 
BRANCH  13  15
HETATM   15  N   UNL     1      -8.230   5.575  71.806  1.00  0.00    -0.118 N  
HETATM   16  H   UNL     1      -9.053   5.193  72.272  1.00  0.00     0.000 HD 
BRANCH  15  17
HETATM   17  N   UNL     1      -7.564   6.655  72.416  1.00  0.00    -0.094 NA 
HETATM   18  C   UNL     1      -7.785   7.929  71.703  1.00  0.00    -0.092 C  
HETATM   19  C   UNL     1      -8.947   8.663  72.386  1.00  0.00    -0.205 C  
HETATM   20  C   UNL     1     -10.229   8.741  71.563  1.00  0.00    -0.371 C  
HETATM   21  C   UNL     1     -10.936   7.424  71.821  1.00  0.00    -0.264 C  
HETATM   22  C   UNL     1     -10.634   7.128  73.285  1.00  0.00    -0.405 C  
HETATM   23  C   UNL     1      -9.297   7.816  73.611  1.00  0.00    -0.336 C  
HETATM   24  C   UNL     1      -8.092   6.893  73.773  1.00  0.00    -0.112 C  
ENDBRANCH  15  17
ENDBRANCH  13  15
ENDBRANCH  11  13
ENDBRANCH   8  11
ENDBRANCH   5   8
TORSDOF 5
ENDMDL
MODEL      276
REMARK 921   NORMALIZED FREE ENERGY PREDICTED BY IDOCK:   -2.04 KCAL/MOL
REMARK 922        TOTAL FREE ENERGY PREDICTED BY IDOCK:   -3.42 KCAL/MOL
REMARK 923 INTER-LIGAND FREE ENERGY PREDICTED BY IDOCK:   -2.93 KCAL/MOL
REMARK 924 INTRA-LIGAND FREE ENERGY PREDICTED BY IDOCK:   -0.48 KCAL/MOL
REMARK 927      BINDING AFFINITY PREDICTED BY RF-SCORE:    0.00 PKD
ROOT
HETATM    1  C   UNL     1      -7.922  10.674  64.813  1.00  0.00     0.036 C  
HETATM    2  C   UNL     1      -8.489   9.526  65.594  1.00  0.00    -0.143 A  
HETATM    3  C   UNL     1      -9.789   9.585  66.110  1.00  0.00    -0.343 A  
HETATM    4  C   UNL     1     -10.281   8.550  66.904  1.00  0.00    -0.375 A  
HETATM    5  C   UNL     1      -9.474   7.439  67.175  1.00  0.00    -0.149 A  
HETATM    6  C   UNL     1      -8.185   7.357  66.645  1.00  0.00    -0.125 A  
HETATM    7  C   UNL     1      -7.697   8.399  65.856  1.00  0.00    -0.086 A  
ENDROOT
BRANCH   5   8
HETATM    8  S   UNL     1     -10.021   6.209  68.336  1.00  0.00    -0.151 S  
HETATM    9  O   UNL     1      -9.558   4.928  67.841  1.00  0.00    -0.133 OA 
HETATM   10  O   UNL     1     -11.416   6.446  68.627  1.00  0.00    -0.254 OA 
BRANCH   8  11
HETATM   11  N   UNL     1      -9.175   6.577  69.705  1.00  0.00    -0.144 N  
HETATM   12  H   UNL     1      -8.278   6.102  69.811  1.00  0.00     0.000 HD 
BRANCH  11  13
HETATM   13  C   UNL     1      -9.521   7.448  70.736  1.00  0.00    -0.167 C  
HETATM   14  O   UNL     1     -10.447   8.227  70.554  1.00  0.00    -0.204 OA 
BRANCH  13  15
HETATM   15  N   UNL     1      -8.800   7.314  71.901  1.00  0.00    -0.122 N  
HETATM   16  H   UNL     1      -8.704   6.380  72.300  1.00  0.00     0.000 HD 
BRANCH  15  17
HETATM   17  N   UNL     1      -8.186   8.388  72.573  1.00  0.00    -0.283 NA 
HETATM   18  C   UNL     1      -7.509   7.963  73.815  1.00  0.00    -0.148 C  
HETATM   19  C   UNL     1      -6.028   7.725  73.492  1.00  0.00    -0.061 C  
HETATM   20  C   UNL     1      -5.590   6.264  73.534  1.00  0.00    -0.041 C  
HETATM   21  C   UNL     1      -5.955   5.710  72.170  1.00  0.00    -0.034 C  
HETATM   22  C   UNL     1      -5.683   6.871  71.220  1.00  0.00    -0.035 C  
HETATM   23  C   UNL     1      -5.854   8.163  72.037  1.00  0.00    -0.039 C  
HETATM   24  C   UNL     1      -7.114   8.975  71.747  1.00  0.00     0.067 C  
ENDBRANCH  15  17
ENDBRANCH  13  15
ENDBRANCH  11  13
ENDBRANCH   8  11
ENDBRANCH   5   8
TORSDOF 5
ENDMDL
MODEL      277
REMARK 921   NORMALIZED FREE ENERGY PREDICTED BY IDOCK:   -2.02 KCAL/MOL
REMARK 922        TOTAL FREE ENERGY PREDICTED BY IDOCK:   -3.39 KCAL/MOL
REMARK 923 INTER-LIGAND FREE ENERGY PREDICTED BY IDOCK:   -2.95 KCAL/MOL
REMARK 924 INTRA-LIGAND FREE ENERGY PREDICTED BY IDOCK:   -0.44 KCAL/MOL
REMARK 927      BINDING AFFINITY PREDICTED BY RF-SCORE:    0.00 PKD
ROOT
HETATM    1  C   UNL     1      -5.674  10.736  62.364  1.00  0.00    -0.165 C  
HETATM    2  C   UNL     1      -6.637  10.401  63.465  1.00  0.00    -0.041 A  
HETATM    3  C   UNL     1      -8.004  10.259  63.201  1.00  0.00    -0.151 A  
HETATM    4  C   UNL     1      -8.904  10.029  64.241  1.00  0.00    -0.245 A  
HETATM    5  C   UNL     1      -8.434   9.927  65.556  1.00  0.00    -0.140 A  
HETATM    6  C   UNL     1      -7.070  10.042  65.829  1.00  0.00    -0.117 A  
HETATM    7  C   UNL     1      -6.175  10.278  64.784  1.00  0.00    -0.124 A  
ENDROOT
BRANCH   5   8
HETATM    8  S   UNL     1      -9.588   9.824  66.903  1.00  0.00    -0.189 S  
HETATM    9  O   UNL     1     -10.421   8.664  66.656  1.00  0.00    -0.277 OA 
HETATM   10  O   UNL     1     -10.161  11.133  67.114  1.00  0.00    -0.189 OA 
BRANCH   8  11
HETATM   11  N   UNL     1      -8.624   9.506  68.205  1.00  0.00    -0.120 N  
HETATM   12  H   UNL     1      -8.528  10.267  68.879  1.00  0.00     0.000 HD 
BRANCH  11  13
HETATM   13  C   UNL     1      -7.924   8.340  68.509  1.00  0.00    -0.122 C  
HETATM   14  O   UNL     1      -7.278   8.303  69.548  1.00  0.00    -0.059 OA 
BRANCH  13  15
HETATM   15  N   UNL     1      -8.066   7.306  67.612  1.00  0.00    -0.113 N  
HETATM   16  H   UNL     1      -8.884   7.309  67.003  1.00  0.00     0.000 HD 
BRANCH  15  17
HETATM   17  N   UNL     1      -7.150   6.244  67.487  1.00  0.00    -0.072 NA 
HETATM   18  C   UNL     1      -7.362   5.194  68.503  1.00  0.00    -0.070 C  
HETATM   19  C   UNL     1      -8.240   4.099  67.881  1.00  0.00    -0.093 C  
HETATM   20  C   UNL     1      -9.653   4.011  68.450  1.00  0.00    -0.186 C  
HETATM   21  C   UNL     1     -10.445   5.054  67.683  1.00  0.00    -0.074 C  
HETATM   22  C   UNL     1      -9.864   4.992  66.276  1.00  0.00    -0.217 C  
HETATM   23  C   UNL     1      -8.412   4.502  66.415  1.00  0.00    -0.112 C  
HETATM   24  C   UNL     1      -7.328   5.553  66.196  1.00  0.00    -0.078 C  
ENDBRANCH  15  17
ENDBRANCH  13  15
ENDBRANCH  11  13
ENDBRANCH   8  11
ENDBRANCH   5   8
TORSDOF 5
ENDMDL
MODEL      278
REMARK 921   NORMALIZED FREE ENERGY PREDICTED BY IDOCK:   -2.00 KCAL/MOL
REMARK 922        TOTAL FREE ENERGY PREDICTED BY IDOCK:   -3.36 KCAL/MOL
REMARK 923 INTER-LIGAND FREE ENERGY PREDICTED BY IDOCK:   -3.29 KCAL/MOL
REMARK 924 INTRA-LIGAND FREE ENERGY PREDICTED BY IDOCK:   -0.07 KCAL/MOL
REMARK 927      BINDING AFFINITY PREDICTED BY RF-SCORE:    0.00 PKD
ROOT
HETATM    1  C   UNL     1     -10.751   9.416  70.053  1.00  0.00    -0.270 C  
HETATM    2  C   UNL     1     -10.980  10.764  69.437  1.00  0.00    -0.305 A  
HETATM    3  C   UNL     1     -11.759  11.726  70.090  1.00  0.00    -0.354 A  
HETATM    4  C   UNL     1     -12.037  12.947  69.474  1.00  0.00    -0.274 A  
HETATM    5  C   UNL     1     -11.520  13.216  68.202  1.00  0.00    -0.314 A  
HETATM    6  C   UNL     1     -10.720  12.274  67.551  1.00  0.00    -0.255 A  
HETATM    7  C   UNL     1     -10.452  11.052  68.170  1.00  0.00    -0.216 A  
ENDROOT
BRANCH   5   8
HETATM    8  S   UNL     1     -12.021  14.684  67.335  1.00  0.00    -0.173 S  
HETATM    9  O   UNL     1     -12.783  15.486  68.270  1.00  0.00     0.756 OA 
HETATM   10  O   UNL     1     -12.567  14.294  66.055  1.00  0.00    -0.447 OA 
BRANCH   8  11
HETATM   11  N   UNL     1     -10.591  15.453  67.033  1.00  0.00    -0.303 N  
HETATM   12  H   UNL     1     -10.594  16.463  67.178  1.00  0.00     0.000 HD 
BRANCH  11  13
HETATM   13  C   UNL     1      -9.381  14.909  66.605  1.00  0.00    -0.268 C  
HETATM   14  O   UNL     1      -9.375  14.232  65.585  1.00  0.00    -0.080 OA 
BRANCH  13  15
HETATM   15  N   UNL     1      -8.279  15.230  67.363  1.00  0.00    -0.169 N  
HETATM   16  H   UNL     1      -8.415  15.392  68.361  1.00  0.00     0.000 HD 
BRANCH  15  17
HETATM   17  N   UNL     1      -6.976  15.348  66.844  1.00  0.00    -0.149 NA 
HETATM   18  C   UNL     1      -6.697  16.703  66.325  1.00  0.00     0.289 C  
HETATM   19  C   UNL     1      -5.994  17.501  67.431  1.00  0.00    -0.154 C  
HETATM   20  C   UNL     1      -6.829  18.623  68.041  1.00  0.00    -0.236 C  
HETATM   21  C   UNL     1      -7.678  17.943  69.099  1.00  0.00    -0.021 C  
HETATM   22  C   UNL     1      -6.756  16.875  69.676  1.00  0.00    -0.081 C  
HETATM   23  C   UNL     1      -5.759  16.502  68.566  1.00  0.00    -0.116 C  
HETATM   24  C   UNL     1      -5.972  15.143  67.905  1.00  0.00    -0.150 C  
ENDBRANCH  15  17
ENDBRANCH  13  15
ENDBRANCH  11  13
ENDBRANCH   8  11
ENDBRANCH   5   8
TORSDOF 5
ENDMDL
MODEL      279
REMARK 921   NORMALIZED FREE ENERGY PREDICTED BY IDOCK:   -1.75 KCAL/MOL
REMARK 922        TOTAL FREE ENERGY PREDICTED BY IDOCK:   -3.04 KCAL/MOL
REMARK 923 INTER-LIGAND FREE ENERGY PREDICTED BY IDOCK:   -2.25 KCAL/MOL
REMARK 924 INTRA-LIGAND FREE ENERGY PREDICTED BY IDOCK:   -0.79 KCAL/MOL
REMARK 927      BINDING AFFINITY PREDICTED BY RF-SCORE:    0.00 PKD
ROOT
HETATM    1  C   UNL     1      -5.614   8.418  72.766  1.00  0.00    -0.058 C  
HETATM    2  C   UNL     1      -6.466   7.260  72.340  1.00  0.00    -0.051 A  
HETATM    3  C   UNL     1      -6.535   6.098  73.118  1.00  0.00    -0.068 A  
HETATM    4  C   UNL     1      -7.263   4.994  72.675  1.00  0.00    -0.088 A  
HETATM    5  C   UNL     1      -7.940   5.054  71.452  1.00  0.00    -0.111 A  
HETATM    6  C   UNL     1      -7.900   6.216  70.679  1.00  0.00    -0.106 A  
HETATM    7  C   UNL     1      -7.164   7.315  71.124  1.00  0.00    -0.072 A  
ENDROOT
BRANCH   5   8
HETATM    8  S   UNL     1      -8.711   3.594  70.793  1.00  0.00    -0.079 S  
HETATM    9  O   UNL     1      -9.808   3.261  71.680  1.00  0.00    -0.167 OA 
HETATM   10  O   UNL     1      -7.677   2.635  70.479  1.00  0.00    -0.042 OA 
BRANCH   8  11
HETATM   11  N   UNL     1      -9.339   4.111  69.357  1.00  0.00    -0.152 N  
HETATM   12  H   UNL     1      -9.834   5.004  69.387  1.00  0.00     0.000 HD 
BRANCH  11  13
HETATM   13  C   UNL     1      -9.286   3.494  68.109  1.00  0.00    -0.180 C  
HETATM   14  O   UNL     1      -9.554   2.302  68.037  1.00  0.00    -0.199 OA 
BRANCH  13  15
HETATM   15  N   UNL     1      -8.974   4.313  67.048  1.00  0.00    -0.117 N  
HETATM   16  H   UNL     1      -9.633   5.052  66.803  1.00  0.00     0.000 HD 
BRANCH  15  17
HETATM   17  N   UNL     1      -7.799   4.192  66.282  1.00  0.00    -0.094 NA 
HETATM   18  C   UNL     1      -7.891   4.908  64.993  1.00  0.00    -0.092 C  
HETATM   19  C   UNL     1      -7.261   6.295  65.172  1.00  0.00    -0.070 C  
HETATM   20  C   UNL     1      -8.248   7.457  65.135  1.00  0.00    -0.115 C  
HETATM   21  C   UNL     1      -8.795   7.546  66.548  1.00  0.00    -0.167 C  
HETATM   22  C   UNL     1      -7.598   7.201  67.425  1.00  0.00    -0.109 C  
HETATM   23  C   UNL     1      -6.678   6.296  66.587  1.00  0.00    -0.060 C  
HETATM   24  C   UNL     1      -6.658   4.820  66.974  1.00  0.00    -0.050 C  
ENDBRANCH  15  17
ENDBRANCH  13  15
ENDBRANCH  11  13
ENDBRANCH   8  11
ENDBRANCH   5   8
TORSDOF 5
ENDMDL
MODEL      280
REMARK 921   NORMALIZED FREE ENERGY PREDICTED BY IDOCK:   -1.73 KCAL/MOL
REMARK 922        TOTAL FREE ENERGY PREDICTED BY IDOCK:   -3.01 KCAL/MOL
REMARK 923 INTER-LIGAND FREE ENERGY PREDICTED BY IDOCK:   -2.47 KCAL/MOL
REMARK 924 INTRA-LIGAND FREE ENERGY PREDICTED BY IDOCK:   -0.54 KCAL/MOL
REMARK 927      BINDING AFFINITY PREDICTED BY RF-SCORE:    0.00 PKD
ROOT
HETATM    1  C   UNL     1      -5.891   9.176  74.520  1.00  0.00    -0.112 C  
HETATM    2  C   UNL     1      -6.547   8.136  73.662  1.00  0.00    -0.135 A  
HETATM    3  C   UNL     1      -6.829   6.863  74.171  1.00  0.00    -0.082 A  
HETATM    4  C   UNL     1      -7.363   5.875  73.343  1.00  0.00    -0.086 A  
HETATM    5  C   UNL     1      -7.632   6.163  72.000  1.00  0.00    -0.096 A  
HETATM    6  C   UNL     1      -7.378   7.437  71.488  1.00  0.00    -0.079 A  
HETATM    7  C   UNL     1      -6.838   8.419  72.319  1.00  0.00    -0.100 A  
ENDROOT
BRANCH   5   8
HETATM    8  S   UNL     1      -8.133   4.863  70.898  1.00  0.00    -0.096 S  
HETATM    9  O   UNL     1      -9.488   4.501  71.262  1.00  0.00    -0.139 OA 
HETATM   10  O   UNL     1      -7.077   3.878  70.845  1.00  0.00    -0.033 OA 
BRANCH   8  11
HETATM   11  N   UNL     1      -8.169   5.607  69.425  1.00  0.00    -0.102 N  
HETATM   12  H   UNL     1      -7.260   5.790  69.000  1.00  0.00     0.000 HD 
BRANCH  11  13
HETATM   13  C   UNL     1      -9.275   6.018  68.682  1.00  0.00    -0.115 C  
HETATM   14  O   UNL     1     -10.070   6.790  69.202  1.00  0.00    -0.162 OA 
BRANCH  13  15
HETATM   15  N   UNL     1      -9.341   5.542  67.393  1.00  0.00    -0.113 N  
HETATM   16  H   UNL     1      -8.770   6.000  66.683  1.00  0.00     0.000 HD 
BRANCH  15  17
HETATM   17  N   UNL     1     -10.150   4.460  66.996  1.00  0.00    -0.159 NA 
HETATM   18  C   UNL     1     -10.448   4.480  65.550  1.00  0.00    -0.211 C  
HETATM   19  C   UNL     1      -9.430   3.575  64.842  1.00  0.00    -0.158 C  
HETATM   20  C   UNL     1      -8.415   4.310  63.973  1.00  0.00    -0.111 C  
HETATM   21  C   UNL     1      -7.326   4.748  64.934  1.00  0.00    -0.071 C  
HETATM   22  C   UNL     1      -7.232   3.597  65.929  1.00  0.00    -0.071 C  
HETATM   23  C   UNL     1      -8.616   2.925  65.963  1.00  0.00    -0.119 C  
HETATM   24  C   UNL     1      -9.452   3.179  67.215  1.00  0.00    -0.123 C  
ENDBRANCH  15  17
ENDBRANCH  13  15
ENDBRANCH  11  13
ENDBRANCH   8  11
ENDBRANCH   5   8
TORSDOF 5
ENDMDL
MODEL      281
REMARK 921   NORMALIZED FREE ENERGY PREDICTED BY IDOCK:   -1.71 KCAL/MOL
REMARK 922        TOTAL FREE ENERGY PREDICTED BY IDOCK:   -2.99 KCAL/MOL
REMARK 923 INTER-LIGAND FREE ENERGY PREDICTED BY IDOCK:   -2.07 KCAL/MOL
REMARK 924 INTRA-LIGAND FREE ENERGY PREDICTED BY IDOCK:   -0.91 KCAL/MOL
REMARK 927      BINDING AFFINITY PREDICTED BY RF-SCORE:    0.00 PKD
ROOT
HETATM    1  C   UNL     1      -7.379   8.453  74.566  1.00  0.00    -0.255 C  
HETATM    2  C   UNL     1      -7.682   7.533  73.421  1.00  0.00    -0.128 A  
HETATM    3  C   UNL     1      -8.587   6.476  73.573  1.00  0.00    -0.131 A  
HETATM    4  C   UNL     1      -8.801   5.574  72.530  1.00  0.00    -0.130 A  
HETATM    5  C   UNL     1      -8.117   5.737  71.320  1.00  0.00    -0.114 A  
HETATM    6  C   UNL     1      -7.231   6.802  71.148  1.00  0.00    -0.077 A  
HETATM    7  C   UNL     1      -7.016   7.697  72.197  1.00  0.00    -0.065 A  
ENDROOT
BRANCH   5   8
HETATM    8  S   UNL     1      -8.240   4.492  70.059  1.00  0.00    -0.067 S  
HETATM    9  O   UNL     1      -9.419   4.801  69.275  1.00  0.00    -0.126 OA 
HETATM   10  O   UNL     1      -8.064   3.198  70.676  1.00  0.00    -0.049 OA 
BRANCH   8  11
HETATM   11  N   UNL     1      -6.907   4.764  69.125  1.00  0.00    -0.049 N  
HETATM   12  H   UNL     1      -6.097   5.150  69.612  1.00  0.00     0.000 HD 
BRANCH  11  13
HETATM   13  C   UNL     1      -6.736   4.537  67.760  1.00  0.00    -0.051 C  
HETATM   14  O   UNL     1      -6.614   3.383  67.373  1.00  0.00    -0.037 OA 
BRANCH  13  15
HETATM   15  N   UNL     1      -6.767   5.655  66.959  1.00  0.00    -0.060 N  
HETATM   16  H   UNL     1      -6.346   6.513  67.316  1.00  0.00     0.000 HD 
BRANCH  15  17
HETATM   17  N   UNL     1      -7.346   5.686  65.676  1.00  0.00    -0.072 NA 
HETATM   18  C   UNL     1      -8.821   5.718  65.724  1.00  0.00    -0.146 C  
HETATM   19  C   UNL     1      -9.270   7.182  65.621  1.00  0.00     0.182 C  
HETATM   20  C   UNL     1      -9.873   7.759  66.899  1.00  0.00    -0.305 C  
HETATM   21  C   UNL     1      -8.680   8.203  67.725  1.00  0.00    -0.130 C  
HETATM   22  C   UNL     1      -7.694   8.728  66.688  1.00  0.00    -0.093 C  
HETATM   23  C   UNL     1      -7.989   7.982  65.375  1.00  0.00    -0.121 C  
HETATM   24  C   UNL     1      -6.970   6.923  64.964  1.00  0.00    -0.051 C  
ENDBRANCH  15  17
ENDBRANCH  13  15
ENDBRANCH  11  13
ENDBRANCH   8  11
ENDBRANCH   5   8
TORSDOF 5
ENDMDL
MODEL      282
REMARK 921   NORMALIZED FREE ENERGY PREDICTED BY IDOCK:   -1.68 KCAL/MOL
REMARK 922        TOTAL FREE ENERGY PREDICTED BY IDOCK:   -2.95 KCAL/MOL
REMARK 923 INTER-LIGAND FREE ENERGY PREDICTED BY IDOCK:   -2.12 KCAL/MOL
REMARK 924 INTRA-LIGAND FREE ENERGY PREDICTED BY IDOCK:   -0.83 KCAL/MOL
REMARK 927      BINDING AFFINITY PREDICTED BY RF-SCORE:    0.00 PKD
ROOT
HETATM    1  C   UNL     1      -7.389   8.447  74.565  1.00  0.00    -0.255 C  
HETATM    2  C   UNL     1      -7.876   7.467  73.539  1.00  0.00    -0.147 A  
HETATM    3  C   UNL     1      -8.762   6.442  73.892  1.00  0.00    -0.134 A  
HETATM    4  C   UNL     1      -9.145   5.486  72.952  1.00  0.00    -0.122 A  
HETATM    5  C   UNL     1      -8.653   5.561  71.644  1.00  0.00    -0.132 A  
HETATM    6  C   UNL     1      -7.789   6.593  71.273  1.00  0.00    -0.102 A  
HETATM    7  C   UNL     1      -7.404   7.543  72.220  1.00  0.00    -0.072 A  
ENDROOT
BRANCH   5   8
HETATM    8  S   UNL     1      -8.985   4.246  70.496  1.00  0.00    -0.101 S  
HETATM    9  O   UNL     1     -10.306   4.486  69.951  1.00  0.00    -0.130 OA 
HETATM   10  O   UNL     1      -8.647   2.992  71.129  1.00  0.00    -0.064 OA 
BRANCH   8  11
HETATM   11  N   UNL     1      -7.874   4.495  69.301  1.00  0.00    -0.062 N  
HETATM   12  H   UNL     1      -6.897   4.405  69.581  1.00  0.00     0.000 HD 
BRANCH  11  13
HETATM   13  C   UNL     1      -8.090   4.813  67.961  1.00  0.00    -0.089 C  
HETATM   14  O   UNL     1      -8.442   3.921  67.201  1.00  0.00    -0.098 OA 
BRANCH  13  15
HETATM   15  N   UNL     1      -7.926   6.138  67.626  1.00  0.00    -0.105 N  
HETATM   16  H   UNL     1      -8.756   6.675  67.375  1.00  0.00     0.000 HD 
BRANCH  15  17
HETATM   17  N   UNL     1      -6.681   6.795  67.609  1.00  0.00    -0.068 NA 
HETATM   18  C   UNL     1      -5.693   6.108  66.753  1.00  0.00    -0.016 C  
HETATM   19  C   UNL     1      -5.714   6.776  65.371  1.00  0.00    -0.031 C  
HETATM   20  C   UNL     1      -6.298   5.918  64.253  1.00  0.00    -0.030 C  
HETATM   21  C   UNL     1      -7.799   6.121  64.352  1.00  0.00    -0.114 C  
HETATM   22  C   UNL     1      -7.944   7.585  64.749  1.00  0.00    -0.132 C  
HETATM   23  C   UNL     1      -6.664   7.968  65.511  1.00  0.00    -0.048 C  
HETATM   24  C   UNL     1      -6.811   8.141  67.021  1.00  0.00    -0.070 C  
ENDBRANCH  15  17
ENDBRANCH  13  15
ENDBRANCH  11  13
ENDBRANCH   8  11
ENDBRANCH   5   8
TORSDOF 5
ENDMDL
MODEL      283
REMARK 921   NORMALIZED FREE ENERGY PREDICTED BY IDOCK:   -1.59 KCAL/MOL
REMARK 922        TOTAL FREE ENERGY PREDICTED BY IDOCK:   -2.83 KCAL/MOL
REMARK 923 INTER-LIGAND FREE ENERGY PREDICTED BY IDOCK:   -2.57 KCAL/MOL
REMARK 924 INTRA-LIGAND FREE ENERGY PREDICTED BY IDOCK:   -0.26 KCAL/MOL
REMARK 927      BINDING AFFINITY PREDICTED BY RF-SCORE:    0.00 PKD
ROOT
HETATM    1  C   UNL     1      -5.138  17.605  71.400  1.00  0.00    -0.017 C  
HETATM    2  C   UNL     1      -5.575  16.549  70.429  1.00  0.00    -0.151 A  
HETATM    3  C   UNL     1      -5.597  16.808  69.053  1.00  0.00    -0.137 A  
HETATM    4  C   UNL     1      -6.082  15.850  68.163  1.00  0.00    -0.130 A  
HETATM    5  C   UNL     1      -6.536  14.617  68.647  1.00  0.00    -0.085 A  
HETATM    6  C   UNL     1      -6.495  14.338  70.014  1.00  0.00    -0.126 A  
HETATM    7  C   UNL     1      -6.014  15.303  70.901  1.00  0.00     0.136 A  
ENDROOT
BRANCH   5   8
HETATM    8  S   UNL     1      -7.327  13.470  67.546  1.00  0.00    -0.131 S  
HETATM    9  O   UNL     1      -6.282  12.641  66.980  1.00  0.00    -0.250 OA 
HETATM   10  O   UNL     1      -8.246  14.203  66.706  1.00  0.00    -0.053 OA 
BRANCH   8  11
HETATM   11  N   UNL     1      -8.240  12.539  68.558  1.00  0.00    -0.294 N  
HETATM   12  H   UNL     1      -8.201  12.793  69.546  1.00  0.00     0.000 HD 
BRANCH  11  13
HETATM   13  C   UNL     1      -9.057  11.454  68.247  1.00  0.00    -0.179 C  
HETATM   14  O   UNL     1     -10.159  11.385  68.775  1.00  0.00    -0.205 OA 
BRANCH  13  15
HETATM   15  N   UNL     1      -8.552  10.570  67.320  1.00  0.00    -0.123 N  
HETATM   16  H   UNL     1      -9.142  10.319  66.527  1.00  0.00     0.000 HD 
BRANCH  15  17
HETATM   17  N   UNL     1      -7.271   9.994  67.403  1.00  0.00    -0.085 NA 
HETATM   18  C   UNL     1      -6.891   9.662  68.791  1.00  0.00    -0.051 C  
HETATM   19  C   UNL     1      -7.231   8.186  69.038  1.00  0.00    -0.074 C  
HETATM   20  C   UNL     1      -8.393   7.947  69.997  1.00  0.00    -0.121 C  
HETATM   21  C   UNL     1      -9.637   8.069  69.138  1.00  0.00    -0.156 C  
HETATM   22  C   UNL     1      -9.221   7.457  67.805  1.00  0.00    -0.133 C  
HETATM   23  C   UNL     1      -7.699   7.646  67.685  1.00  0.00    -0.122 C  
HETATM   24  C   UNL     1      -7.233   8.704  66.689  1.00  0.00    -0.081 C  
ENDBRANCH  15  17
ENDBRANCH  13  15
ENDBRANCH  11  13
ENDBRANCH   8  11
ENDBRANCH   5   8
TORSDOF 5
ENDMDL
MODEL      284
REMARK 921   NORMALIZED FREE ENERGY PREDICTED BY IDOCK:   -1.53 KCAL/MOL
REMARK 922        TOTAL FREE ENERGY PREDICTED BY IDOCK:   -2.76 KCAL/MOL
REMARK 923 INTER-LIGAND FREE ENERGY PREDICTED BY IDOCK:   -2.15 KCAL/MOL
REMARK 924 INTRA-LIGAND FREE ENERGY PREDICTED BY IDOCK:   -0.61 KCAL/MOL
REMARK 927      BINDING AFFINITY PREDICTED BY RF-SCORE:    0.00 PKD
ROOT
HETATM    1  C   UNL     1      -7.379   8.453  74.566  1.00  0.00    -0.255 C  
HETATM    2  C   UNL     1      -7.682   7.533  73.421  1.00  0.00    -0.128 A  
HETATM    3  C   UNL     1      -8.587   6.476  73.573  1.00  0.00    -0.131 A  
HETATM    4  C   UNL     1      -8.801   5.574  72.530  1.00  0.00    -0.130 A  
HETATM    5  C   UNL     1      -8.117   5.737  71.320  1.00  0.00    -0.114 A  
HETATM    6  C   UNL     1      -7.231   6.802  71.148  1.00  0.00    -0.077 A  
HETATM    7  C   UNL     1      -7.016   7.697  72.197  1.00  0.00    -0.065 A  
ENDROOT
BRANCH   5   8
HETATM    8  S   UNL     1      -8.240   4.492  70.059  1.00  0.00    -0.067 S  
HETATM    9  O   UNL     1      -9.419   4.801  69.275  1.00  0.00    -0.126 OA 
HETATM   10  O   UNL     1      -8.064   3.198  70.676  1.00  0.00    -0.049 OA 
BRANCH   8  11
HETATM   11  N   UNL     1      -6.907   4.764  69.125  1.00  0.00    -0.049 N  
HETATM   12  H   UNL     1      -6.443   5.662  69.267  1.00  0.00     0.000 HD 
BRANCH  11  13
HETATM   13  C   UNL     1      -6.328   3.932  68.167  1.00  0.00    -0.037 C  
HETATM   14  O   UNL     1      -5.702   2.952  68.549  1.00  0.00    -0.021 OA 
BRANCH  13  15
HETATM   15  N   UNL     1      -6.559   4.278  66.855  1.00  0.00    -0.045 N  
HETATM   16  H   UNL     1      -6.581   5.270  66.618  1.00  0.00     0.000 HD 
BRANCH  15  17
HETATM   17  N   UNL     1      -6.766   3.345  65.822  1.00  0.00    -0.040 NA 
HETATM   18  C   UNL     1      -8.114   2.743  65.868  1.00  0.00    -0.084 C  
HETATM   19  C   UNL     1      -9.021   3.533  64.915  1.00  0.00    -0.131 C  
HETATM   20  C   UNL     1     -10.092   4.375  65.600  1.00  0.00    -0.256 C  
HETATM   21  C   UNL     1      -9.391   5.668  65.972  1.00  0.00    -0.150 C  
HETATM   22  C   UNL     1      -8.435   5.912  64.810  1.00  0.00    -0.054 C  
HETATM   23  C   UNL     1      -8.099   4.534  64.214  1.00  0.00    -0.100 C  
HETATM   24  C   UNL     1      -6.698   4.003  64.504  1.00  0.00    -0.044 C  
ENDBRANCH  15  17
ENDBRANCH  13  15
ENDBRANCH  11  13
ENDBRANCH   8  11
ENDBRANCH   5   8
TORSDOF 5
ENDMDL
MODEL      285
REMARK 921   NORMALIZED FREE ENERGY PREDICTED BY IDOCK:   -1.29 KCAL/MOL
REMARK 922        TOTAL FREE ENERGY PREDICTED BY IDOCK:   -2.45 KCAL/MOL
REMARK 923 INTER-LIGAND FREE ENERGY PREDICTED BY IDOCK:   -2.50 KCAL/MOL
REMARK 924 INTRA-LIGAND FREE ENERGY PREDICTED BY IDOCK:    0.06 KCAL/MOL
REMARK 927      BINDING AFFINITY PREDICTED BY RF-SCORE:    0.00 PKD
ROOT
HETATM    1  C   UNL     1     -11.667  10.731  70.467  1.00  0.00    -0.449 C  
HETATM    2  C   UNL     1     -10.916   9.527  69.982  1.00  0.00    -0.284 A  
HETATM    3  C   UNL     1     -11.453   8.243  70.129  1.00  0.00     0.010 A  
HETATM    4  C   UNL     1     -10.713   7.121  69.752  1.00  0.00    -0.257 A  
HETATM    5  C   UNL     1      -9.433   7.284  69.211  1.00  0.00    -0.153 A  
HETATM    6  C   UNL     1      -8.897   8.560  69.036  1.00  0.00    -0.145 A  
HETATM    7  C   UNL     1      -9.639   9.678  69.421  1.00  0.00    -0.200 A  
ENDROOT
BRANCH   5   8
HETATM    8  S   UNL     1      -8.414   5.860  68.904  1.00  0.00    -0.104 S  
HETATM    9  O   UNL     1      -7.146   6.349  68.403  1.00  0.00    -0.077 OA 
HETATM   10  O   UNL     1      -9.193   4.891  68.168  1.00  0.00    -0.114 OA 
BRANCH   8  11
HETATM   11  N   UNL     1      -8.172   5.235  70.413  1.00  0.00    -0.101 N  
HETATM   12  H   UNL     1      -7.906   5.908  71.132  1.00  0.00     0.000 HD 
BRANCH  11  13
HETATM   13  C   UNL     1      -8.283   3.911  70.837  1.00  0.00    -0.067 C  
HETATM   14  O   UNL     1      -8.238   3.025  69.995  1.00  0.00    -0.045 OA 
BRANCH  13  15
HETATM   15  N   UNL     1      -8.389   3.725  72.196  1.00  0.00    -0.083 N  
HETATM   16  H   UNL     1      -9.290   3.908  72.636  1.00  0.00     0.000 HD 
BRANCH  15  17
HETATM   17  N   UNL     1      -7.326   3.297  73.015  1.00  0.00    -0.046 NA 
HETATM   18  C   UNL     1      -6.036   3.900  72.625  1.00  0.00    -0.012 C  
HETATM   19  C   UNL     1      -5.804   5.138  73.503  1.00  0.00    -0.023 C  
HETATM   20  C   UNL     1      -5.898   6.471  72.769  1.00  0.00    -0.038 C  
HETATM   21  C   UNL     1      -7.380   6.795  72.740  1.00  0.00    -0.080 C  
HETATM   22  C   UNL     1      -7.890   6.288  74.083  1.00  0.00    -0.094 C  
HETATM   23  C   UNL     1      -6.956   5.142  74.510  1.00  0.00    -0.078 C  
HETATM   24  C   UNL     1      -7.535   3.734  74.409  1.00  0.00    -0.062 C  
ENDBRANCH  15  17
ENDBRANCH  13  15
ENDBRANCH  11  13
ENDBRANCH   8  11
ENDBRANCH   5   8
TORSDOF 5
ENDMDL
MODEL      286
REMARK 921   NORMALIZED FREE ENERGY PREDICTED BY IDOCK:   -1.26 KCAL/MOL
REMARK 922        TOTAL FREE ENERGY PREDICTED BY IDOCK:   -2.41 KCAL/MOL
REMARK 923 INTER-LIGAND FREE ENERGY PREDICTED BY IDOCK:   -2.31 KCAL/MOL
REMARK 924 INTRA-LIGAND FREE ENERGY PREDICTED BY IDOCK:   -0.10 KCAL/MOL
REMARK 927      BINDING AFFINITY PREDICTED BY RF-SCORE:    0.00 PKD
ROOT
HETATM    1  C   UNL     1      -7.790   3.178  64.818  1.00  0.00    -0.078 C  
HETATM    2  C   UNL     1      -7.862   4.610  64.377  1.00  0.00    -0.087 A  
HETATM    3  C   UNL     1      -6.891   5.145  63.522  1.00  0.00    -0.042 A  
HETATM    4  C   UNL     1      -6.919   6.498  63.183  1.00  0.00    -0.051 A  
HETATM    5  C   UNL     1      -7.932   7.321  63.688  1.00  0.00    -0.073 A  
HETATM    6  C   UNL     1      -8.920   6.793  64.521  1.00  0.00     0.806 A  
HETATM    7  C   UNL     1      -8.883   5.440  64.862  1.00  0.00    -0.054 A  
ENDROOT
BRANCH   5   8
HETATM    8  S   UNL     1      -7.867   9.075  63.415  1.00  0.00    -0.147 S  
HETATM    9  O   UNL     1      -8.869   9.383  62.415  1.00  0.00    -0.224 OA 
HETATM   10  O   UNL     1      -6.484   9.459  63.241  1.00  0.00    -0.091 OA 
BRANCH   8  11
HETATM   11  N   UNL     1      -8.361   9.703  64.859  1.00  0.00    -0.138 N  
HETATM   12  H   UNL     1      -7.823   9.410  65.676  1.00  0.00     0.000 HD 
BRANCH  11  13
HETATM   13  C   UNL     1      -9.413  10.581  65.115  1.00  0.00    -0.233 C  
HETATM   14  O   UNL     1     -10.472  10.407  64.526  1.00  0.00    -0.249 OA 
BRANCH  13  15
HETATM   15  N   UNL     1      -9.168  11.550  66.060  1.00  0.00    -0.218 N  
HETATM   16  H   UNL     1      -8.199  11.811  66.239  1.00  0.00     0.000 HD 
BRANCH  15  17
HETATM   17  N   UNL     1     -10.177  12.204  66.795  1.00  0.00    -0.202 NA 
HETATM   18  C   UNL     1     -11.257  11.285  67.209  1.00  0.00    -0.296 C  
HETATM   19  C   UNL     1     -10.957  10.810  68.637  1.00  0.00    -0.285 C  
HETATM   20  C   UNL     1     -10.561   9.342  68.754  1.00  0.00    -0.220 C  
HETATM   21  C   UNL     1      -9.074   9.316  68.454  1.00  0.00    -0.128 C  
HETATM   22  C   UNL     1      -8.554  10.605  69.077  1.00  0.00    -0.150 C  
HETATM   23  C   UNL     1      -9.724  11.603  69.077  1.00  0.00     0.067 C  
HETATM   24  C   UNL     1      -9.637  12.737  68.059  1.00  0.00    -0.217 C  
ENDBRANCH  15  17
ENDBRANCH  13  15
ENDBRANCH  11  13
ENDBRANCH   8  11
ENDBRANCH   5   8
TORSDOF 5
ENDMDL
MODEL      287
REMARK 921   NORMALIZED FREE ENERGY PREDICTED BY IDOCK:   -1.05 KCAL/MOL
REMARK 922        TOTAL FREE ENERGY PREDICTED BY IDOCK:   -2.13 KCAL/MOL
REMARK 923 INTER-LIGAND FREE ENERGY PREDICTED BY IDOCK:   -2.30 KCAL/MOL
REMARK 924 INTRA-LIGAND FREE ENERGY PREDICTED BY IDOCK:    0.16 KCAL/MOL
REMARK 927      BINDING AFFINITY PREDICTED BY RF-SCORE:    0.00 PKD
ROOT
HETATM    1  C   UNL     1     -11.430  17.959  74.140  1.00  0.00     0.920 C  
HETATM    2  C   UNL     1     -11.758  16.652  73.482  1.00  0.00    -0.014 A  
HETATM    3  C   UNL     1     -11.435  16.426  72.139  1.00  0.00    -0.157 A  
HETATM    4  C   UNL     1     -11.816  15.241  71.511  1.00  0.00    -0.441 A  
HETATM    5  C   UNL     1     -12.513  14.265  72.233  1.00  0.00    -0.188 A  
HETATM    6  C   UNL     1     -12.819  14.468  73.580  1.00  0.00    -0.293 A  
HETATM    7  C   UNL     1     -12.440  15.659  74.201  1.00  0.00    -0.804 A  
ENDROOT
BRANCH   5   8
HETATM    8  S   UNL     1     -13.165  12.840  71.395  1.00  0.00    -0.030 S  
HETATM    9  O   UNL     1     -14.286  13.296  70.598  1.00  0.00     1.681 OA 
HETATM   10  O   UNL     1     -13.308  11.771  72.357  1.00  0.00    -0.343 OA 
BRANCH   8  11
HETATM   11  N   UNL     1     -11.941  12.407  70.375  1.00  0.00    -0.514 N  
HETATM   12  H   UNL     1     -11.213  11.819  70.784  1.00  0.00     0.000 HD 
BRANCH  11  13
HETATM   13  C   UNL     1     -11.768  12.735  69.032  1.00  0.00    -0.323 C  
HETATM   14  O   UNL     1     -12.084  13.857  68.661  1.00  0.00    -0.358 OA 
BRANCH  13  15
HETATM   15  N   UNL     1     -11.204  11.757  68.245  1.00  0.00    -0.233 N  
HETATM   16  H   UNL     1     -10.644  12.050  67.444  1.00  0.00     0.000 HD 
BRANCH  15  17
HETATM   17  N   UNL     1     -11.354  10.377  68.479  1.00  0.00    -0.250 NA 
HETATM   18  C   UNL     1     -10.970   9.561  67.309  1.00  0.00     0.008 C  
HETATM   19  C   UNL     1      -9.513   9.118  67.494  1.00  0.00    -0.169 C  
HETATM   20  C   UNL     1      -8.519   9.770  66.538  1.00  0.00    -0.127 C  
HETATM   21  C   UNL     1      -8.175  11.100  67.182  1.00  0.00    -0.137 C  
HETATM   22  C   UNL     1      -8.162  10.790  68.674  1.00  0.00    -0.139 C  
HETATM   23  C   UNL     1      -9.116   9.603  68.891  1.00  0.00    -0.144 C  
HETATM   24  C   UNL     1     -10.450   9.930  69.556  1.00  0.00    -0.241 C  
ENDBRANCH  15  17
ENDBRANCH  13  15
ENDBRANCH  11  13
ENDBRANCH   8  11
ENDBRANCH   5   8
TORSDOF 5
ENDMDL
MODEL      288
REMARK 921   NORMALIZED FREE ENERGY PREDICTED BY IDOCK:   -0.69 KCAL/MOL
REMARK 922        TOTAL FREE ENERGY PREDICTED BY IDOCK:   -1.67 KCAL/MOL
REMARK 923 INTER-LIGAND FREE ENERGY PREDICTED BY IDOCK:   -0.84 KCAL/MOL
REMARK 924 INTRA-LIGAND FREE ENERGY PREDICTED BY IDOCK:   -0.83 KCAL/MOL
REMARK 927      BINDING AFFINITY PREDICTED BY RF-SCORE:    0.00 PKD
ROOT
HETATM    1  C   UNL     1      -5.126  17.705  71.372  1.00  0.00    -0.017 C  
HETATM    2  C   UNL     1      -5.748  16.723  70.424  1.00  0.00    -0.115 A  
HETATM    3  C   UNL     1      -5.573  16.853  69.041  1.00  0.00    -0.141 A  
HETATM    4  C   UNL     1      -6.221  15.986  68.163  1.00  0.00    -0.127 A  
HETATM    5  C   UNL     1      -7.041  14.970  68.668  1.00  0.00    -0.109 A  
HETATM    6  C   UNL     1      -7.203  14.814  70.046  1.00  0.00     0.035 A  
HETATM    7  C   UNL     1      -6.556  15.689  70.920  1.00  0.00     0.919 A  
ENDROOT
BRANCH   5   8
HETATM    8  S   UNL     1      -8.016  13.984  67.557  1.00  0.00    -0.186 S  
HETATM    9  O   UNL     1      -7.202  12.846  67.179  1.00  0.00    -0.105 OA 
HETATM   10  O   UNL     1      -8.599  14.856  66.565  1.00  0.00    -0.230 OA 
BRANCH   8  11
HETATM   11  N   UNL     1      -9.252  13.447  68.511  1.00  0.00    -0.344 N  
HETATM   12  H   UNL     1      -9.238  13.774  69.477  1.00  0.00     0.000 HD 
BRANCH  11  13
HETATM   13  C   UNL     1     -10.312  12.607  68.174  1.00  0.00    -0.234 C  
HETATM   14  O   UNL     1     -11.409  12.828  68.669  1.00  0.00    -0.252 OA 
BRANCH  13  15
HETATM   15  N   UNL     1     -10.025  11.616  67.264  1.00  0.00    -0.190 N  
HETATM   16  H   UNL     1      -9.054  11.495  66.977  1.00  0.00     0.000 HD 
BRANCH  15  17
HETATM   17  N   UNL     1     -10.992  10.758  66.705  1.00  0.00    -0.200 NA 
HETATM   18  C   UNL     1     -11.742  11.396  65.604  1.00  0.00     0.419 C  
HETATM   19  C   UNL     1     -11.075  10.998  64.281  1.00  0.00    -0.016 C  
HETATM   20  C   UNL     1     -10.349  12.130  63.562  1.00  0.00    -0.473 C  
HETATM   21  C   UNL     1      -8.979  12.187  64.212  1.00  0.00     0.902 C  
HETATM   22  C   UNL     1      -8.648  10.726  64.492  1.00  0.00    -0.050 C  
HETATM   23  C   UNL     1      -9.988   9.990  64.662  1.00  0.00    -0.206 C  
HETATM   24  C   UNL     1     -10.351   9.583  66.087  1.00  0.00    -0.118 C  
ENDBRANCH  15  17
ENDBRANCH  13  15
ENDBRANCH  11  13
ENDBRANCH   8  11
ENDBRANCH   5   8
TORSDOF 5
ENDMDL
MODEL      289
REMARK 921   NORMALIZED FREE ENERGY PREDICTED BY IDOCK:    2.96 KCAL/MOL
REMARK 922        TOTAL FREE ENERGY PREDICTED BY IDOCK:    3.04 KCAL/MOL
REMARK 923 INTER-LIGAND FREE ENERGY PREDICTED BY IDOCK:    1.92 KCAL/MOL
REMARK 924 INTRA-LIGAND FREE ENERGY PREDICTED BY IDOCK:    1.12 KCAL/MOL
REMARK 927      BINDING AFFINITY PREDICTED BY RF-SCORE:    0.00 PKD
ROOT
HETATM    1  C   UNL     1     -10.816  11.087  71.567  1.00  0.00     3.346 C  
HETATM    2  C   UNL     1     -10.350  10.395  70.320  1.00  0.00    -0.031 A  
HETATM    3  C   UNL     1     -11.000   9.246  69.854  1.00  0.00    -0.231 A  
HETATM    4  C   UNL     1     -10.511   8.562  68.742  1.00  0.00    -0.208 A  
HETATM    5  C   UNL     1      -9.372   9.035  68.080  1.00  0.00    -0.141 A  
HETATM    6  C   UNL     1      -8.730  10.194  68.520  1.00  0.00    -0.123 A  
HETATM    7  C   UNL     1      -9.221  10.871  69.638  1.00  0.00     0.372 A  
ENDROOT
BRANCH   5   8
HETATM    8  S   UNL     1      -8.636   8.069  66.783  1.00  0.00    -0.135 S  
HETATM    9  O   UNL     1      -7.452   8.781  66.347  1.00  0.00    -0.086 OA 
HETATM   10  O   UNL     1      -9.673   7.689  65.852  1.00  0.00     0.064 OA 
BRANCH   8  11
HETATM   11  N   UNL     1      -8.160   6.691  67.559  1.00  0.00    -0.117 N  
HETATM   12  H   UNL     1      -7.560   6.828  68.373  1.00  0.00     0.000 HD 
BRANCH  11  13
HETATM   13  C   UNL     1      -8.468   5.367  67.253  1.00  0.00    -0.106 C  
HETATM   14  O   UNL     1      -9.458   5.142  66.570  1.00  0.00    -0.133 OA 
BRANCH  13  15
HETATM   15  N   UNL     1      -7.583   4.423  67.723  1.00  0.00    -0.076 N  
HETATM   16  H   UNL     1      -6.735   4.749  68.185  1.00  0.00     0.000 HD 
BRANCH  15  17
HETATM   17  N   UNL     1      -7.780   3.034  67.603  1.00  0.00    -0.064 NA 
HETATM   18  C   UNL     1      -8.720   2.690  66.517  1.00  0.00    -0.123 C  
HETATM   19  C   UNL     1      -7.898   2.367  65.261  1.00  0.00    -0.078 C  
HETATM   20  C   UNL     1      -8.011   3.396  64.140  1.00  0.00    -0.082 C  
HETATM   21  C   UNL     1      -7.003   4.472  64.499  1.00  0.00    -0.050 C  
HETATM   22  C   UNL     1      -5.843   3.697  65.112  1.00  0.00    -0.022 C  
HETATM   23  C   UNL     1      -6.436   2.410  65.711  1.00  0.00    -0.024 C  
HETATM   24  C   UNL     1      -6.522   2.359  67.234  1.00  0.00    -0.032 C  
ENDBRANCH  15  17
ENDBRANCH  13  15
ENDBRANCH  11  13
ENDBRANCH   8  11
ENDBRANCH   5   8
TORSDOF 5
ENDMDL
MODEL      290
REMARK 921   NORMALIZED FREE ENERGY PREDICTED BY IDOCK:    4.75 KCAL/MOL
REMARK 922        TOTAL FREE ENERGY PREDICTED BY IDOCK:    5.36 KCAL/MOL
REMARK 923 INTER-LIGAND FREE ENERGY PREDICTED BY IDOCK:    2.84 KCAL/MOL
REMARK 924 INTRA-LIGAND FREE ENERGY PREDICTED BY IDOCK:    2.53 KCAL/MOL
REMARK 927      BINDING AFFINITY PREDICTED BY RF-SCORE:    0.00 PKD
ROOT
HETATM    1  C   UNL     1      -7.380  18.686  65.992  1.00  0.00    -0.276 C  
HETATM    2  C   UNL     1      -7.955  17.349  66.357  1.00  0.00    -0.325 A  
HETATM    3  C   UNL     1      -8.488  16.507  65.374  1.00  0.00     1.558 A  
HETATM    4  C   UNL     1      -9.095  15.303  65.731  1.00  0.00     0.007 A  
HETATM    5  C   UNL     1      -9.160  14.929  67.078  1.00  0.00    -0.237 A  
HETATM    6  C   UNL     1      -8.610  15.749  68.065  1.00  0.00    -0.163 A  
HETATM    7  C   UNL     1      -8.009  16.956  67.703  1.00  0.00    -0.186 A  
ENDROOT
BRANCH   5   8
HETATM    8  S   UNL     1     -10.094  13.495  67.556  1.00  0.00    -0.237 S  
HETATM    9  O   UNL     1      -9.461  12.352  66.929  1.00  0.00    -0.207 OA 
HETATM   10  O   UNL     1     -11.497  13.780  67.364  1.00  0.00    -0.311 OA 
BRANCH   8  11
HETATM   11  N   UNL     1      -9.842  13.403  69.185  1.00  0.00    -0.343 N  
HETATM   12  H   UNL     1      -9.969  12.479  69.600  1.00  0.00     0.000 HD 
BRANCH  11  13
HETATM   13  C   UNL     1      -9.479  14.417  70.070  1.00  0.00     1.065 C  
HETATM   14  O   UNL     1      -8.309  14.773  70.099  1.00  0.00     0.367 OA 
BRANCH  13  15
HETATM   15  N   UNL     1     -10.504  14.960  70.810  1.00  0.00    -0.395 N  
HETATM   16  H   UNL     1     -10.262  15.588  71.576  1.00  0.00     0.000 HD 
BRANCH  15  17
HETATM   17  N   UNL     1     -11.868  14.701  70.573  1.00  0.00    -0.288 NA 
HETATM   18  C   UNL     1     -12.358  13.529  71.325  1.00  0.00    -0.235 C  
HETATM   19  C   UNL     1     -13.000  14.032  72.625  1.00  0.00    -0.481 C  
HETATM   20  C   UNL     1     -12.225  13.697  73.895  1.00  0.00     3.224 C  
HETATM   21  C   UNL     1     -11.179  14.790  74.012  1.00  0.00     1.557 C  
HETATM   22  C   UNL     1     -11.897  16.037  73.508  1.00  0.00    -0.342 C  
HETATM   23  C   UNL     1     -12.979  15.559  72.523  1.00  0.00    -0.520 C  
HETATM   24  C   UNL     1     -12.701  15.822  71.046  1.00  0.00    -0.398 C  
ENDBRANCH  15  17
ENDBRANCH  13  15
ENDBRANCH  11  13
ENDBRANCH   8  11
ENDBRANCH   5   8
TORSDOF 5
ENDMDL
MODEL      291
REMARK 921   NORMALIZED FREE ENERGY PREDICTED BY IDOCK:   11.43 KCAL/MOL
REMARK 922        TOTAL FREE ENERGY PREDICTED BY IDOCK:   13.99 KCAL/MOL
REMARK 923 INTER-LIGAND FREE ENERGY PREDICTED BY IDOCK:   13.32 KCAL/MOL
REMARK 924 INTRA-LIGAND FREE ENERGY PREDICTED BY IDOCK:    0.67 KCAL/MOL
REMARK 927      BINDING AFFINITY PREDICTED BY RF-SCORE:    0.00 PKD
ROOT
HETATM    1  C   UNL     1      -9.921  19.148  73.839  1.00  0.00     4.451 C  
HETATM    2  C   UNL     1     -10.640  18.000  73.197  1.00  0.00     3.972 A  
HETATM    3  C   UNL     1     -10.617  17.829  71.808  1.00  0.00     3.318 A  
HETATM    4  C   UNL     1     -11.356  16.808  71.210  1.00  0.00     0.336 A  
HETATM    5  C   UNL     1     -12.112  15.940  72.006  1.00  0.00    -0.506 A  
HETATM    6  C   UNL     1     -12.123  16.085  73.394  1.00  0.00    -0.587 A  
HETATM    7  C   UNL     1     -11.387  17.113  73.986  1.00  0.00     1.275 A  
ENDROOT
BRANCH   5   8
HETATM    8  S   UNL     1     -13.200  14.760  71.243  1.00  0.00    -0.406 S  
HETATM    9  O   UNL     1     -14.322  15.506  70.708  1.00  0.00    -0.284 OA 
HETATM   10  O   UNL     1     -13.394  13.660  72.159  1.00  0.00    -0.412 OA 
BRANCH   8  11
HETATM   11  N   UNL     1     -12.308  14.182  69.981  1.00  0.00    -0.346 N  
HETATM   12  H   UNL     1     -11.511  13.596  70.235  1.00  0.00     0.000 HD 
BRANCH  11  13
HETATM   13  C   UNL     1     -12.495  14.385  68.614  1.00  0.00     0.173 C  
HETATM   14  O   UNL     1     -13.332  15.203  68.257  1.00  0.00     2.574 OA 
BRANCH  13  15
HETATM   15  N   UNL     1     -11.670  13.663  67.783  1.00  0.00    -0.341 N  
HETATM   16  H   UNL     1     -11.754  13.810  66.778  1.00  0.00     0.000 HD 
BRANCH  15  17
HETATM   17  N   UNL     1     -10.717  12.732  68.238  1.00  0.00    -0.231 NA 
HETATM   18  C   UNL     1      -9.654  12.481  67.244  1.00  0.00    -0.205 C  
HETATM   19  C   UNL     1      -8.465  13.393  67.578  1.00  0.00    -0.192 C  
HETATM   20  C   UNL     1      -8.222  14.520  66.579  1.00  0.00     0.389 C  
HETATM   21  C   UNL     1      -9.166  15.628  67.007  1.00  0.00    -0.239 C  
HETATM   22  C   UNL     1      -9.163  15.542  68.529  1.00  0.00    -0.197 C  
HETATM   23  C   UNL     1      -8.839  14.083  68.891  1.00  0.00     0.062 C  
HETATM   24  C   UNL     1     -10.004  13.251  69.421  1.00  0.00     0.717 C  
ENDBRANCH  15  17
ENDBRANCH  13  15
ENDBRANCH  11  13
ENDBRANCH   8  11
ENDBRANCH   5   8
TORSDOF 5
ENDMDL
MODEL      292
REMARK 921   NORMALIZED FREE ENERGY PREDICTED BY IDOCK:   17.07 KCAL/MOL
REMARK 922        TOTAL FREE ENERGY PREDICTED BY IDOCK:   21.28 KCAL/MOL
REMARK 923 INTER-LIGAND FREE ENERGY PREDICTED BY IDOCK:   20.82 KCAL/MOL
REMARK 924 INTRA-LIGAND FREE ENERGY PREDICTED BY IDOCK:    0.46 KCAL/MOL
REMARK 927      BINDING AFFINITY PREDICTED BY RF-SCORE:    0.00 PKD
ROOT
HETATM    1  C   UNL     1      -6.775  20.880  72.164  1.00  0.00     2.066 C  
HETATM    2  C   UNL     1      -6.659  20.083  70.899  1.00  0.00     0.041 A  
HETATM    3  C   UNL     1      -7.693  20.084  69.956  1.00  0.00     0.643 A  
HETATM    4  C   UNL     1      -7.615  19.276  68.821  1.00  0.00    -0.393 A  
HETATM    5  C   UNL     1      -6.489  18.471  68.618  1.00  0.00    -0.231 A  
HETATM    6  C   UNL     1      -5.440  18.480  69.539  1.00  0.00    -0.213 A  
HETATM    7  C   UNL     1      -5.527  19.286  70.675  1.00  0.00    -0.250 A  
ENDROOT
BRANCH   5   8
HETATM    8  S   UNL     1      -6.465  17.303  67.279  1.00  0.00    -0.172 S  
HETATM    9  O   UNL     1      -6.247  15.995  67.864  1.00  0.00    -0.109 OA 
HETATM   10  O   UNL     1      -5.602  17.817  66.241  1.00  0.00    -0.164 OA 
BRANCH   8  11
HETATM   11  N   UNL     1      -8.007  17.364  66.695  1.00  0.00    -0.236 N  
HETATM   12  H   UNL     1      -8.518  16.480  66.703  1.00  0.00     0.000 HD 
BRANCH  11  13
HETATM   13  C   UNL     1      -8.707  18.459  66.192  1.00  0.00    -0.104 C  
HETATM   14  O   UNL     1      -8.116  19.241  65.459  1.00  0.00    -0.338 OA 
BRANCH  13  15
HETATM   15  N   UNL     1     -10.037  18.531  66.539  1.00  0.00    -0.377 N  
HETATM   16  H   UNL     1     -10.448  19.454  66.673  1.00  0.00     0.000 HD 
BRANCH  15  17
HETATM   17  N   UNL     1     -10.863  17.405  66.720  1.00  0.00    -0.073 NA 
HETATM   18  C   UNL     1     -10.600  16.713  67.998  1.00  0.00    -0.338 C  
HETATM   19  C   UNL     1     -11.605  17.230  69.036  1.00  0.00     1.176 C  
HETATM   20  C   UNL     1     -11.001  18.094  70.138  1.00  0.00     2.183 C  
HETATM   21  C   UNL     1     -10.928  19.488  69.543  1.00  0.00     1.734 C  
HETATM   22  C   UNL     1     -12.188  19.587  68.691  1.00  0.00     5.573 C  
HETATM   23  C   UNL     1     -12.548  18.154  68.262  1.00  0.00     6.087 C  
HETATM   24  C   UNL     1     -12.280  17.806  66.800  1.00  0.00     4.318 C  
ENDBRANCH  15  17
ENDBRANCH  13  15
ENDBRANCH  11  13
ENDBRANCH   8  11
ENDBRANCH   5   8
TORSDOF 5
ENDMDL
